REMARK VINA RESULT:    -6.313      2.737      5.897
REMARK INTER + INTRA:         -16.043
REMARK INTER:                 -13.147
REMARK INTRA:                  -2.896
REMARK UNBOUND:                -3.824
REMARK  Name = lig_assembled_81.pdb
REMARK  17 active torsions:
REMARK  status: ('A' for Active; 'I' for Inactive)
REMARK    1  A    between atoms: _2  and  _11
REMARK    2  A    between atoms: _7  and  _23
REMARK    3  A    between atoms: _8  and  _9
REMARK    4  A    between atoms: _8  and  _25
REMARK    5  A    between atoms: _13  and  _14
REMARK    6  A    between atoms: _20  and  _21
REMARK    7  A    between atoms: _21  and  _22
REMARK    8  A    between atoms: _22  and  _24
REMARK    9  A    between atoms: _23  and  _24
REMARK   10  A    between atoms: _25  and  _27
REMARK   11  A    between atoms: _26  and  _31
REMARK   12  A    between atoms: _27  and  _30
REMARK   13  A    between atoms: _35  and  _45
REMARK   14  A    between atoms: _37  and  _38
REMARK   15  A    between atoms: _39  and  _41
REMARK   16  A    between atoms: _41  and  _43
REMARK   17  A    between atoms: _43  and  _45
REMARK                            x       y       z     vdW  Elec       q    Type
REMARK                         _______ _______ _______ _____ _____    ______ ____
ROOT
ATOM      1  C   UNL     1      31.509  12.789  -0.934  0.00  0.00    +0.096 C 
ENDROOT
BRANCH   1   3
ATOM      2  N   UNL     1      30.274  14.882  -0.609  0.00  0.00    -0.133 NA
ATOM      3  C   UNL     1      30.274  13.591  -1.045  0.00  0.00    +0.066 C 
ATOM      4  C   UNL     1      29.009  13.280  -1.506  0.00  0.00    +0.120 C 
ATOM      5  N   UNL     1      28.311  14.479  -1.453  0.00  0.00    -0.187 N 
ATOM      6  N   UNL     1      29.046  15.354  -0.738  0.00  0.00    -0.010 NA
BRANCH   5   7
ATOM      7  C   UNL     1      26.962  14.735  -1.868  0.00  0.00    +0.150 A 
ATOM      8  C   UNL     1      25.887  13.812  -1.802  0.00  0.00    +0.022 A 
ATOM      9  C   UNL     1      24.682  14.315  -2.360  0.00  0.00    +0.081 A 
ATOM     10  N   UNL     1      24.626  15.536  -2.960  0.00  0.00    -0.214 NA
ATOM     11  C   UNL     1      25.706  16.298  -2.984  0.00  0.00    +0.215 A 
ATOM     12  N   UNL     1      25.652  17.486  -3.673  0.00  0.00    -0.327 N 
ATOM     13  H   UNL     1      24.701  17.807  -3.773  0.00  0.00    +0.145 HD
ATOM     14  H   UNL     1      26.356  18.134  -3.356  0.00  0.00    +0.145 HD
ATOM     15  N   UNL     1      26.839  15.989  -2.384  0.00  0.00    -0.198 NA
BRANCH   9  16
ATOM     16  C   UNL     1      23.331  13.637  -2.421  0.00  0.00    +0.001 A 
ATOM     17  C   UNL     1      22.966  12.644  -3.349  0.00  0.00    +0.010 A 
ATOM     18  C   UNL     1      21.697  12.043  -3.348  0.00  0.00    +0.001 A 
ATOM     19  C   UNL     1      20.764  12.367  -2.381  0.00  0.00    +0.000 A 
ATOM     20  C   UNL     1      21.098  13.305  -1.406  0.00  0.00    +0.001 A 
ATOM     21  C   UNL     1      22.352  13.931  -1.441  0.00  0.00    +0.010 A 
ENDBRANCH   9  16
BRANCH   8  22
ATOM     22  C   UNL     1      25.848  12.440  -1.124  0.00  0.00    +0.069 C 
BRANCH  22  23
ATOM     23  C   UNL     1      25.599  12.306   0.366  0.00  0.00    +0.164 C 
BRANCH  23  24
ATOM     24  O   UNL     1      25.286  10.993   0.843  0.00  0.00    -0.380 OA
BRANCH  24  25
ATOM     25  C   UNL     1      23.977  10.679   0.329  0.00  0.00    +0.156 C 
ATOM     26  C   UNL     1      22.885  11.316   1.156  0.00  0.00    +0.034 C 
ENDBRANCH  24  25
ENDBRANCH  23  24
ENDBRANCH  22  23
ENDBRANCH   8  22
ENDBRANCH   5   7
ENDBRANCH   1   3
BRANCH   1  27
ATOM     27  C   UNL     1      32.193  13.044   0.423  0.00  0.00    +0.240 C 
BRANCH  27  28
ATOM     28  O   UNL     1      33.592  12.893   0.484  0.00  0.00    -0.450 OA
BRANCH  28  29
ATOM     29  C   UNL     1      34.656  13.625   0.538  0.00  0.00    +0.400 C 
ATOM     30  N   UNL     1      34.912  14.214   1.754  0.00  0.00    -0.278 N 
ATOM     31  H   UNL     1      35.905  14.594   1.640  0.00  0.00    +0.152 HD
ATOM     32  O   UNL     1      35.456  13.811  -0.376  0.00  0.00    -0.226 OA
BRANCH  30  33
ATOM     33  C   UNL     1      34.442  14.558   3.093  0.00  0.00    +0.152 C 
BRANCH  33  34
ATOM     34  C   UNL     1      34.301  13.386   4.086  0.00  0.00    +0.193 C 
ATOM     35  O   UNL     1      33.987  13.965   5.371  0.00  0.00    -0.219 OA
BRANCH  34  36
ATOM     36  C   UNL     1      33.166  12.369   3.834  0.00  0.00    +0.212 C 
ATOM     37  O   UNL     1      33.707  11.104   3.421  0.00  0.00    -0.218 OA
BRANCH  36  38
ATOM     38  C   UNL     1      32.246  12.136   5.093  0.00  0.00    +0.171 C 
ATOM     39  O   UNL     1      32.801  11.200   6.011  0.00  0.00    -0.343 OA
ATOM     40  C   UNL     1      32.100  10.629   7.076  0.00  0.00    +0.220 C 
ATOM     41  C   UNL     1      30.755  10.037   6.621  0.00  0.00    +0.076 C 
ATOM     42  C   UNL     1      29.997  11.139   5.863  0.00  0.00    +0.177 C 
ATOM     43  O   UNL     1      28.725  10.655   5.454  0.00  0.00    -0.221 OA
ATOM     44  C   UNL     1      30.837  11.628   4.643  0.00  0.00    +0.155 C 
BRANCH  44  45
ATOM     45  N   UNL     1      30.117  12.670   3.916  0.00  0.00    -0.202 NA
ATOM     46  C   UNL     1      29.401  12.590   2.766  0.00  0.00    +0.242 C 
ATOM     47  C   UNL     1      28.516  13.750   2.392  0.00  0.00    +0.096 C 
ATOM     48  O   UNL     1      29.489  11.584   2.065  0.00  0.00    -0.273 OA
ENDBRANCH  44  45
BRANCH  40  49
ATOM     49  C   UNL     1      31.914  11.633   8.340  0.00  0.00    +0.391 C 
ATOM     50  O   UNL     1      32.958  12.480   8.268  0.00  0.00    -0.243 OA
ATOM     51  O   UNL     1      30.666  11.439   8.785  0.00  0.00    -0.243 OA
ENDBRANCH  40  49
ENDBRANCH  36  38
ENDBRANCH  34  36
ENDBRANCH  33  34
ENDBRANCH  30  33
ENDBRANCH  28  29
ENDBRANCH  27  28
ENDBRANCH   1  27
TORSDOF 16
