REMARK VINA RESULT:    -6.021      1.777      3.249
REMARK INTER + INTRA:         -14.786
REMARK INTER:                 -12.581
REMARK INTRA:                  -2.205
REMARK UNBOUND:                -2.957
REMARK  Name = lig_assembled_74.pdb
REMARK  19 active torsions:
REMARK  status: ('A' for Active; 'I' for Inactive)
REMARK    1  A    between atoms: _2  and  _8
REMARK    2  A    between atoms: _4  and  _13
REMARK    3  A    between atoms: _5  and  _6
REMARK    4  A    between atoms: _5  and  _17
REMARK    5  A    between atoms: _8  and  _9
REMARK    6  A    between atoms: _9  and  _10
REMARK    7  A    between atoms: _9  and  _12
REMARK    8  A    between atoms: _10  and  _11
REMARK    9  A    between atoms: _11  and  _15
REMARK   10  A    between atoms: _12  and  _13
REMARK   11  A    between atoms: _13  and  _14
REMARK   12  A    between atoms: _17  and  _19
REMARK   13  A    between atoms: _18  and  _23
REMARK   14  A    between atoms: _19  and  _22
REMARK   15  A    between atoms: _27  and  _37
REMARK   16  A    between atoms: _29  and  _30
REMARK   17  A    between atoms: _31  and  _33
REMARK   18  A    between atoms: _33  and  _35
REMARK   19  A    between atoms: _35  and  _37
REMARK                            x       y       z     vdW  Elec       q    Type
REMARK                         _______ _______ _______ _____ _____    ______ ____
ROOT
ATOM      1  C   UNL     1      28.191  17.733  -0.640  0.00  0.00    +0.400 C 
ATOM      2  N   UNL     1      29.431  17.504  -0.092  0.00  0.00    -0.278 N 
ATOM      3  H   UNL     1      29.473  18.197   0.722  0.00  0.00    +0.152 HD
ATOM      4  O   UNL     1      27.413  18.462  -0.029  0.00  0.00    -0.226 OA
ENDROOT
BRANCH   1   5
ATOM      5  O   UNL     1      27.972  17.172  -1.784  0.00  0.00    -0.450 OA
BRANCH   5   6
ATOM      6  C   UNL     1      27.241  16.096  -2.323  0.00  0.00    +0.240 C 
BRANCH   6   7
ATOM      7  C   UNL     1      26.313  16.395  -3.517  0.00  0.00    +0.100 C 
BRANCH   7   9
ATOM      8  N   UNL     1      26.378  14.091  -4.442  0.00  0.00    -0.134 NA
ATOM      9  C   UNL     1      25.654  15.161  -3.986  0.00  0.00    +0.086 A 
ATOM     10  C   UNL     1      24.317  14.827  -3.979  0.00  0.00    +0.133 A 
ATOM     11  N   UNL     1      24.319  13.490  -4.264  0.00  0.00    -0.251 N 
ATOM     12  N   UNL     1      25.546  13.078  -4.636  0.00  0.00    -0.065 NA
BRANCH  11  13
ATOM     13  C   UNL     1      23.306  12.520  -3.898  0.00  0.00    +0.149 C 
BRANCH  13  14
ATOM     14  C   UNL     1      23.045  12.369  -2.383  0.00  0.00    +0.021 C 
BRANCH  14  15
ATOM     15  C   UNL     1      24.149  11.581  -1.647  0.00  0.00    +0.125 C 
BRANCH  15  16
ATOM     16  C   UNL     1      24.893  12.369  -0.589  0.00  0.00    +0.305 C 
ATOM     17  O   UNL     1      25.480  11.880   0.362  0.00  0.00    -0.251 OA
BRANCH  16  18
ATOM     18  O   UNL     1      24.906  13.693  -0.831  0.00  0.00    -0.481 OA
ATOM     19  H   UNL     1      25.764  14.135  -0.698  0.00  0.00    +0.295 HD
ENDBRANCH  16  18
ENDBRANCH  15  16
ENDBRANCH  14  15
BRANCH  14  20
ATOM     20  C   UNL     1      21.625  11.770  -2.168  0.00  0.00    +0.009 C 
BRANCH  20  21
ATOM     21  C   UNL     1      20.753  12.468  -1.101  0.00  0.00    -0.017 C 
ATOM     22  C   UNL     1      21.202  12.131   0.323  0.00  0.00    +0.007 C 
ATOM     23  C   UNL     1      20.788  13.989  -1.288  0.00  0.00    +0.007 C 
ENDBRANCH  20  21
ENDBRANCH  14  20
ENDBRANCH  13  14
ENDBRANCH  11  13
ENDBRANCH   7   9
ENDBRANCH   6   7
ENDBRANCH   5   6
ENDBRANCH   1   5
BRANCH   2  24
ATOM     24  C   UNL     1      30.680  16.748  -0.112  0.00  0.00    +0.152 C 
BRANCH  24  25
ATOM     25  C   UNL     1      30.600  15.290   0.386  0.00  0.00    +0.193 C 
ATOM     26  O   UNL     1      30.922  14.447  -0.742  0.00  0.00    -0.219 OA
BRANCH  25  27
ATOM     27  C   UNL     1      31.591  14.855   1.487  0.00  0.00    +0.212 C 
ATOM     28  O   UNL     1      31.648  15.843   2.529  0.00  0.00    -0.218 OA
BRANCH  27  29
ATOM     29  C   UNL     1      31.235  13.462   2.133  0.00  0.00    +0.171 C 
ATOM     30  O   UNL     1      29.854  13.345   2.458  0.00  0.00    -0.343 OA
ATOM     31  C   UNL     1      29.313  12.331   3.252  0.00  0.00    +0.220 C 
ATOM     32  C   UNL     1      30.080  12.173   4.576  0.00  0.00    +0.076 C 
ATOM     33  C   UNL     1      31.569  12.002   4.231  0.00  0.00    +0.177 C 
ATOM     34  O   UNL     1      32.320  11.811   5.422  0.00  0.00    -0.221 OA
ATOM     35  C   UNL     1      32.081  13.239   3.430  0.00  0.00    +0.155 C 
BRANCH  35  36
ATOM     36  N   UNL     1      33.496  13.083   3.106  0.00  0.00    -0.202 NA
ATOM     37  C   UNL     1      34.570  13.785   3.549  0.00  0.00    +0.242 C 
ATOM     38  C   UNL     1      35.946  13.230   3.288  0.00  0.00    +0.096 C 
ATOM     39  O   UNL     1      34.398  14.845   4.149  0.00  0.00    -0.273 OA
ENDBRANCH  35  36
BRANCH  31  40
ATOM     40  C   UNL     1      29.165  10.912   2.475  0.00  0.00    +0.391 C 
ATOM     41  O   UNL     1      28.968  10.001   3.449  0.00  0.00    -0.243 OA
ATOM     42  O   UNL     1      28.993  11.214   1.182  0.00  0.00    -0.243 OA
ENDBRANCH  31  40
ENDBRANCH  27  29
ENDBRANCH  25  27
ENDBRANCH  24  25
ENDBRANCH   2  24
TORSDOF 17
