REMARK VINA RESULT:    -6.630      4.002      8.115
REMARK INTER + INTRA:         -13.050
REMARK INTER:                 -10.821
REMARK INTRA:                  -2.229
REMARK UNBOUND:                -2.544
REMARK  Name = lig_assembled_65.pdb
REMARK  11 active torsions:
REMARK  status: ('A' for Active; 'I' for Inactive)
REMARK    1  A    between atoms: _8  and  _14
REMARK    2  A    between atoms: _9  and  _10
REMARK    3  A    between atoms: _9  and  _15
REMARK    4  A    between atoms: _15  and  _17
REMARK    5  A    between atoms: _16  and  _21
REMARK    6  A    between atoms: _17  and  _20
REMARK    7  A    between atoms: _25  and  _35
REMARK    8  A    between atoms: _27  and  _28
REMARK    9  A    between atoms: _29  and  _31
REMARK   10  A    between atoms: _31  and  _33
REMARK   11  A    between atoms: _33  and  _35
REMARK                            x       y       z     vdW  Elec       q    Type
REMARK                         _______ _______ _______ _____ _____    ______ ____
ROOT
ATOM      1  C   UNL     1      27.861  17.871  -0.985  0.00  0.00    +0.400 C 
ATOM      2  N   UNL     1      27.148  17.619  -2.134  0.00  0.00    -0.278 N 
ATOM      3  H   UNL     1      26.151  17.900  -1.872  0.00  0.00    +0.152 HD
ATOM      4  O   UNL     1      27.300  18.477  -0.076  0.00  0.00    -0.226 OA
ENDROOT
BRANCH   1   5
ATOM      5  O   UNL     1      29.068  17.408  -0.963  0.00  0.00    -0.450 OA
BRANCH   5   6
ATOM      6  C   UNL     1      30.173  17.348  -0.091  0.00  0.00    +0.240 C 
BRANCH   6   7
ATOM      7  C   UNL     1      31.065  16.094  -0.160  0.00  0.00    +0.100 C 
BRANCH   7   9
ATOM      8  N   UNL     1      31.398  14.659   1.830  0.00  0.00    -0.134 NA
ATOM      9  C   UNL     1      30.600  15.078   0.801  0.00  0.00    +0.087 A 
ATOM     10  C   UNL     1      29.402  14.407   0.862  0.00  0.00    +0.146 A 
ATOM     11  N   UNL     1      29.517  13.572   1.953  0.00  0.00    -0.155 N 
ATOM     12  C   UNL     1      28.545  12.647   2.435  0.00  0.00    +0.416 C 
ATOM     13  N   UNL     1      28.837  11.918   3.520  0.00  0.00    +0.041 NA
ATOM     14  C   UNL     1      27.886  11.067   3.899  0.00  0.00    +0.339 C 
ATOM     15  C   UNL     1      28.160  10.213   5.098  0.00  0.00    +0.149 C 
ATOM     16  N   UNL     1      26.716  10.915   3.279  0.00  0.00    +0.007 NA
ATOM     17  C   UNL     1      26.533  11.673   2.210  0.00  0.00    +0.386 C 
ATOM     18  N   UNL     1      25.340  11.538   1.533  0.00  0.00    -0.296 N 
ATOM     19  H   UNL     1      24.628  11.147   2.135  0.00  0.00    +0.148 HD
ATOM     20  H   UNL     1      25.109  12.379   1.023  0.00  0.00    +0.148 HD
ATOM     21  N   UNL     1      27.393  12.567   1.755  0.00  0.00    -0.290 NA
ATOM     22  N   UNL     1      30.734  13.747   2.530  0.00  0.00    -0.056 NA
ENDBRANCH   7   9
ENDBRANCH   6   7
ENDBRANCH   5   6
ENDBRANCH   1   5
BRANCH   2  23
ATOM     23  C   UNL     1      27.145  17.165  -3.522  0.00  0.00    +0.152 C 
BRANCH  23  24
ATOM     24  C   UNL     1      26.086  16.105  -3.888  0.00  0.00    +0.193 C 
ATOM     25  O   UNL     1      26.200  15.877  -5.310  0.00  0.00    -0.219 OA
BRANCH  24  26
ATOM     26  C   UNL     1      26.232  14.701  -3.260  0.00  0.00    +0.212 C 
ATOM     27  O   UNL     1      26.927  14.783  -2.005  0.00  0.00    -0.218 OA
BRANCH  26  28
ATOM     28  C   UNL     1      24.853  13.975  -3.026  0.00  0.00    +0.171 C 
ATOM     29  O   UNL     1      23.906  14.800  -2.356  0.00  0.00    -0.343 OA
ATOM     30  C   UNL     1      22.705  14.340  -1.811  0.00  0.00    +0.220 C 
ATOM     31  C   UNL     1      22.923  13.114  -0.906  0.00  0.00    +0.076 C 
ATOM     32  C   UNL     1      23.706  12.071  -1.719  0.00  0.00    +0.177 C 
ATOM     33  O   UNL     1      23.900  10.899  -0.940  0.00  0.00    -0.221 OA
ATOM     34  C   UNL     1      25.068  12.670  -2.191  0.00  0.00    +0.155 C 
BRANCH  34  35
ATOM     35  N   UNL     1      25.819  11.680  -2.959  0.00  0.00    -0.202 NA
ATOM     36  C   UNL     1      26.995  11.068  -2.669  0.00  0.00    +0.242 C 
ATOM     37  C   UNL     1      27.400   9.871  -3.491  0.00  0.00    +0.096 C 
ATOM     38  O   UNL     1      27.695  11.497  -1.754  0.00  0.00    -0.273 OA
ENDBRANCH  34  35
BRANCH  30  39
ATOM     39  C   UNL     1      21.554  14.064  -2.923  0.00  0.00    +0.391 C 
ATOM     40  O   UNL     1      22.004  14.660  -4.044  0.00  0.00    -0.243 OA
ATOM     41  O   UNL     1      20.760  13.117  -2.407  0.00  0.00    -0.243 OA
ENDBRANCH  30  39
ENDBRANCH  26  28
ENDBRANCH  24  26
ENDBRANCH  23  24
ENDBRANCH   2  23
TORSDOF 10
