REMARK VINA RESULT:    -7.067      1.843      2.610
REMARK INTER + INTRA:         -13.866
REMARK INTER:                 -12.500
REMARK INTRA:                  -1.365
REMARK UNBOUND:                -1.841
REMARK  Name = lig_assembled_39.pdb
REMARK  12 active torsions:
REMARK  status: ('A' for Active; 'I' for Inactive)
REMARK    1  A    between atoms: _2  and  _8
REMARK    2  A    between atoms: _5  and  _6
REMARK    3  A    between atoms: _5  and  _14
REMARK    4  A    between atoms: _8  and  _9
REMARK    5  A    between atoms: _14  and  _16
REMARK    6  A    between atoms: _15  and  _20
REMARK    7  A    between atoms: _16  and  _19
REMARK    8  A    between atoms: _24  and  _34
REMARK    9  A    between atoms: _26  and  _27
REMARK   10  A    between atoms: _28  and  _30
REMARK   11  A    between atoms: _30  and  _32
REMARK   12  A    between atoms: _32  and  _34
REMARK                            x       y       z     vdW  Elec       q    Type
REMARK                         _______ _______ _______ _____ _____    ______ ____
ROOT
ATOM      1  C   UNL     1      28.252  16.987  -0.519  0.00  0.00    +0.400 C 
ATOM      2  N   UNL     1      28.617  15.995   0.360  0.00  0.00    -0.278 N 
ATOM      3  H   UNL     1      28.870  16.533   1.249  0.00  0.00    +0.152 HD
ATOM      4  O   UNL     1      28.123  18.128  -0.084  0.00  0.00    -0.226 OA
ENDROOT
BRANCH   2   5
ATOM      5  C   UNL     1      28.797  14.570   0.624  0.00  0.00    +0.152 C 
BRANCH   5   6
ATOM      6  C   UNL     1      30.252  14.087   0.789  0.00  0.00    +0.193 C 
ATOM      7  O   UNL     1      30.197  12.654   0.966  0.00  0.00    -0.219 OA
BRANCH   6   8
ATOM      8  C   UNL     1      31.213  14.292  -0.402  0.00  0.00    +0.212 C 
ATOM      9  O   UNL     1      31.560  15.680  -0.534  0.00  0.00    -0.218 OA
BRANCH   8  10
ATOM     10  C   UNL     1      32.541  13.450  -0.286  0.00  0.00    +0.171 C 
ATOM     11  O   UNL     1      33.390  13.908   0.762  0.00  0.00    -0.343 OA
ATOM     12  C   UNL     1      34.718  13.508   0.931  0.00  0.00    +0.220 C 
ATOM     13  C   UNL     1      35.527  13.651  -0.370  0.00  0.00    +0.076 C 
ATOM     14  C   UNL     1      34.762  12.904  -1.475  0.00  0.00    +0.177 C 
ATOM     15  O   UNL     1      35.489  12.971  -2.693  0.00  0.00    -0.221 OA
ATOM     16  C   UNL     1      33.329  13.501  -1.635  0.00  0.00    +0.155 C 
BRANCH  16  17
ATOM     17  N   UNL     1      32.602  12.798  -2.689  0.00  0.00    -0.202 NA
ATOM     18  C   UNL     1      32.577  13.026  -4.027  0.00  0.00    +0.242 C 
ATOM     19  C   UNL     1      31.978  11.971  -4.921  0.00  0.00    +0.096 C 
ATOM     20  O   UNL     1      33.039  14.074  -4.473  0.00  0.00    -0.273 OA
ENDBRANCH  16  17
BRANCH  12  21
ATOM     21  C   UNL     1      34.870  12.022   1.569  0.00  0.00    +0.391 C 
ATOM     22  O   UNL     1      36.199  11.817   1.657  0.00  0.00    -0.243 OA
ATOM     23  O   UNL     1      33.659  11.694   2.036  0.00  0.00    -0.243 OA
ENDBRANCH  12  21
ENDBRANCH   8  10
ENDBRANCH   6   8
ENDBRANCH   5   6
ENDBRANCH   2   5
BRANCH   1  24
ATOM     24  O   UNL     1      28.107  16.618  -1.750  0.00  0.00    -0.450 OA
BRANCH  24  25
ATOM     25  C   UNL     1      27.290  15.769  -2.521  0.00  0.00    +0.240 C 
BRANCH  25  26
ATOM     26  C   UNL     1      25.999  16.367  -3.112  0.00  0.00    +0.100 C 
BRANCH  26  28
ATOM     27  N   UNL     1      23.584  15.833  -3.206  0.00  0.00    -0.134 NA
ATOM     28  C   UNL     1      24.864  15.451  -2.900  0.00  0.00    +0.086 A 
ATOM     29  C   UNL     1      24.849  14.158  -2.426  0.00  0.00    +0.134 A 
ATOM     30  N   UNL     1      23.543  13.783  -2.547  0.00  0.00    -0.247 N 
ATOM     31  N   UNL     1      22.777  14.811  -2.957  0.00  0.00    -0.065 NA
BRANCH  30  32
ATOM     32  C   UNL     1      22.971  12.457  -2.358  0.00  0.00    +0.181 C 
BRANCH  32  33
ATOM     33  C   UNL     1      22.625  12.154  -0.912  0.00  0.00    -0.012 A 
ATOM     34  C   UNL     1      23.479  11.367  -0.110  0.00  0.00    +0.006 A 
ATOM     35  C   UNL     1      23.170  11.076   1.221  0.00  0.00    +0.000 A 
ATOM     36  C   UNL     1      21.987  11.544   1.777  0.00  0.00    +0.001 A 
ATOM     37  C   UNL     1      21.105  12.287   0.997  0.00  0.00    +0.015 A 
ATOM     38  C   UNL     1      21.414  12.581  -0.338  0.00  0.00    +0.023 A 
ATOM     39 BR   UNL     1      20.106  13.551  -1.321  0.00  0.00    -0.050 Br
ENDBRANCH  32  33
ENDBRANCH  30  32
ENDBRANCH  26  28
ENDBRANCH  25  26
ENDBRANCH  24  25
ENDBRANCH   1  24
TORSDOF 12
