REMARK VINA RESULT:    -6.571      2.637      9.561
REMARK INTER + INTRA:         -13.099
REMARK INTER:                 -11.175
REMARK INTRA:                  -1.925
REMARK UNBOUND:                -1.919
REMARK  Name = lig_assembled_41.pdb
REMARK  13 active torsions:
REMARK  status: ('A' for Active; 'I' for Inactive)
REMARK    1  A    between atoms: _2  and  _8
REMARK    2  A    between atoms: _5  and  _6
REMARK    3  A    between atoms: _5  and  _16
REMARK    4  A    between atoms: _9  and  _10
REMARK    5  A    between atoms: _10  and  _11
REMARK    6  A    between atoms: _16  and  _18
REMARK    7  A    between atoms: _17  and  _22
REMARK    8  A    between atoms: _18  and  _21
REMARK    9  A    between atoms: _26  and  _36
REMARK   10  A    between atoms: _28  and  _29
REMARK   11  A    between atoms: _30  and  _32
REMARK   12  A    between atoms: _32  and  _34
REMARK   13  A    between atoms: _34  and  _36
REMARK                            x       y       z     vdW  Elec       q    Type
REMARK                         _______ _______ _______ _____ _____    ______ ____
ROOT
ATOM      1  C   UNL     1      27.895  17.497  -0.885  0.00  0.00    +0.400 C 
ATOM      2  N   UNL     1      26.945  17.026  -1.761  0.00  0.00    -0.278 N 
ATOM      3  H   UNL     1      26.062  17.558  -1.478  0.00  0.00    +0.152 HD
ATOM      4  O   UNL     1      27.605  18.458  -0.178  0.00  0.00    -0.226 OA
ENDROOT
BRANCH   2   5
ATOM      5  C   UNL     1      26.612  16.156  -2.886  0.00  0.00    +0.152 C 
BRANCH   5   6
ATOM      6  C   UNL     1      25.446  15.172  -2.663  0.00  0.00    +0.193 C 
ATOM      7  O   UNL     1      24.658  15.180  -3.874  0.00  0.00    -0.219 OA
BRANCH   6   8
ATOM      8  C   UNL     1      25.797  13.685  -2.442  0.00  0.00    +0.212 C 
ATOM      9  O   UNL     1      27.161  13.430  -2.816  0.00  0.00    -0.218 OA
BRANCH   8  10
ATOM     10  C   UNL     1      25.586  13.207  -0.955  0.00  0.00    +0.171 C 
ATOM     11  O   UNL     1      26.643  12.374  -0.491  0.00  0.00    -0.343 OA
ATOM     12  C   UNL     1      26.596  11.622   0.685  0.00  0.00    +0.220 C 
ATOM     13  C   UNL     1      25.314  10.775   0.770  0.00  0.00    +0.076 C 
ATOM     14  C   UNL     1      24.121  11.721   0.559  0.00  0.00    +0.177 C 
ATOM     15  O   UNL     1      22.905  10.994   0.668  0.00  0.00    -0.221 OA
ATOM     16  C   UNL     1      24.235  12.429  -0.827  0.00  0.00    +0.155 C 
BRANCH  16  17
ATOM     17  N   UNL     1      23.099  13.324  -1.035  0.00  0.00    -0.202 NA
ATOM     18  C   UNL     1      22.141  13.301  -1.996  0.00  0.00    +0.242 C 
ATOM     19  C   UNL     1      20.918  14.161  -1.809  0.00  0.00    +0.096 C 
ATOM     20  O   UNL     1      22.291  12.587  -2.986  0.00  0.00    -0.273 OA
ENDBRANCH  16  17
BRANCH  12  21
ATOM     21  C   UNL     1      26.817  12.508   2.029  0.00  0.00    +0.391 C 
ATOM     22  O   UNL     1      26.361  11.735   3.033  0.00  0.00    -0.243 OA
ATOM     23  O   UNL     1      27.625  13.516   1.678  0.00  0.00    -0.243 OA
ENDBRANCH  12  21
ENDBRANCH   8  10
ENDBRANCH   6   8
ENDBRANCH   5   6
ENDBRANCH   2   5
BRANCH   1  24
ATOM     24  O   UNL     1      29.013  16.849  -0.871  0.00  0.00    -0.450 OA
BRANCH  24  25
ATOM     25  C   UNL     1      29.565  15.683  -0.304  0.00  0.00    +0.240 C 
BRANCH  25  26
ATOM     26  C   UNL     1      31.030  15.746   0.166  0.00  0.00    +0.100 C 
BRANCH  26  28
ATOM     27  N   UNL     1      30.904  13.380   0.850  0.00  0.00    -0.134 NA
ATOM     28  C   UNL     1      31.314  14.652   1.111  0.00  0.00    +0.086 A 
ATOM     29  C   UNL     1      31.995  14.668   2.310  0.00  0.00    +0.139 A 
ATOM     30  N   UNL     1      31.881  13.389   2.804  0.00  0.00    -0.219 N 
ATOM     31  N   UNL     1      31.296  12.608   1.853  0.00  0.00    -0.061 NA
BRANCH  30  32
ATOM     32  C   UNL     1      32.358  12.814   4.017  0.00  0.00    +0.077 A 
ATOM     33  C   UNL     1      33.666  12.323   4.214  0.00  0.00    +0.043 A 
ATOM     34  C   UNL     1      33.989  11.731   5.453  0.00  0.00    +0.013 A 
ATOM     35  C   UNL     1      33.041  11.618   6.473  0.00  0.00    +0.001 A 
ATOM     36  C   UNL     1      31.763  12.122   6.288  0.00  0.00    +0.002 A 
ATOM     37  C   UNL     1      31.428  12.725   5.076  0.00  0.00    +0.028 A 
BRANCH  33  38
ATOM     38  C   UNL     1      34.801  12.574   3.274  0.00  0.00    +0.162 C 
ATOM     39  O   UNL     1      35.059  11.743   2.406  0.00  0.00    -0.292 OA
ATOM     40  C   UNL     1      35.619  13.838   3.388  0.00  0.00    +0.091 C 
ENDBRANCH  33  38
ENDBRANCH  30  32
ENDBRANCH  26  28
ENDBRANCH  25  26
ENDBRANCH  24  25
ENDBRANCH   1  24
TORSDOF 12
