REMARK VINA RESULT:    -7.577      1.621      3.285
REMARK INTER + INTRA:         -15.020
REMARK INTER:                 -13.592
REMARK INTRA:                  -1.428
REMARK UNBOUND:                -2.128
REMARK  Name = lig_assembled_0.pdb
REMARK  12 active torsions:
REMARK  status: ('A' for Active; 'I' for Inactive)
REMARK    1  A    between atoms: _2  and  _9
REMARK    2  A    between atoms: _6  and  _7
REMARK    3  A    between atoms: _6  and  _16
REMARK    4  A    between atoms: _10  and  _11
REMARK    5  A    between atoms: _16  and  _18
REMARK    6  A    between atoms: _17  and  _22
REMARK    7  A    between atoms: _18  and  _21
REMARK    8  A    between atoms: _26  and  _36
REMARK    9  A    between atoms: _28  and  _29
REMARK   10  A    between atoms: _30  and  _32
REMARK   11  A    between atoms: _32  and  _34
REMARK   12  A    between atoms: _34  and  _36
REMARK                            x       y       z     vdW  Elec       q    Type
REMARK                         _______ _______ _______ _____ _____    ______ ____
ROOT
ATOM      1  C   UNL     1      28.563  16.974  -0.573  0.00  0.00    +0.400 C 
ATOM      2  N   UNL     1      28.684  15.856   0.219  0.00  0.00    -0.278 N 
ATOM      3  H   UNL     1      29.333  16.178   1.004  0.00  0.00    +0.152 HD
ATOM      4  O   UNL     1      29.018  18.034  -0.150  0.00  0.00    -0.226 OA
ENDROOT
BRANCH   2   5
ATOM      5  C   UNL     1      28.320  14.464   0.469  0.00  0.00    +0.152 C 
BRANCH   5   6
ATOM      6  C   UNL     1      28.727  13.892   1.843  0.00  0.00    +0.193 C 
ATOM      7  O   UNL     1      27.529  13.346   2.437  0.00  0.00    -0.219 OA
BRANCH   6   8
ATOM      8  C   UNL     1      29.733  12.720   1.859  0.00  0.00    +0.212 C 
ATOM      9  O   UNL     1      29.296  11.671   0.979  0.00  0.00    -0.218 OA
BRANCH   8  10
ATOM     10  C   UNL     1      31.194  13.145   1.449  0.00  0.00    +0.171 C 
ATOM     11  O   UNL     1      31.438  12.994   0.055  0.00  0.00    -0.343 OA
ATOM     12  C   UNL     1      32.702  13.063  -0.536  0.00  0.00    +0.220 C 
ATOM     13  C   UNL     1      33.716  12.152   0.178  0.00  0.00    +0.076 C 
ATOM     14  C   UNL     1      33.682  12.505   1.674  0.00  0.00    +0.177 C 
ATOM     15  O   UNL     1      34.632  11.718   2.377  0.00  0.00    -0.221 OA
ATOM     16  C   UNL     1      32.243  12.298   2.242  0.00  0.00    +0.155 C 
BRANCH  16  17
ATOM     17  N   UNL     1      32.207  12.625   3.665  0.00  0.00    -0.202 NA
ATOM     18  C   UNL     1      31.945  11.829   4.732  0.00  0.00    +0.242 C 
ATOM     19  C   UNL     1      32.263  12.351   6.109  0.00  0.00    +0.096 C 
ATOM     20  O   UNL     1      31.461  10.713   4.553  0.00  0.00    -0.273 OA
ENDBRANCH  16  17
BRANCH  12  21
ATOM     21  C   UNL     1      33.264  14.579  -0.687  0.00  0.00    +0.391 C 
ATOM     22  O   UNL     1      34.591  14.441  -0.874  0.00  0.00    -0.243 OA
ATOM     23  O   UNL     1      32.189  15.356  -0.870  0.00  0.00    -0.243 OA
ENDBRANCH  12  21
ENDBRANCH   8  10
ENDBRANCH   6   8
ENDBRANCH   5   6
ENDBRANCH   2   5
BRANCH   1  24
ATOM     24  O   UNL     1      27.999  16.789  -1.721  0.00  0.00    -0.450 OA
BRANCH  24  25
ATOM     25  C   UNL     1      27.120  17.453  -2.598  0.00  0.00    +0.240 C 
BRANCH  25  26
ATOM     26  C   UNL     1      26.743  16.733  -3.907  0.00  0.00    +0.100 C 
BRANCH  26  28
ATOM     27  N   UNL     1      24.994  15.208  -4.743  0.00  0.00    -0.134 NA
ATOM     28  C   UNL     1      25.568  15.867  -3.697  0.00  0.00    +0.086 A 
ATOM     29  C   UNL     1      24.893  15.552  -2.539  0.00  0.00    +0.139 A 
ATOM     30  N   UNL     1      23.841  14.763  -2.941  0.00  0.00    -0.219 N 
ATOM     31  N   UNL     1      23.979  14.500  -4.270  0.00  0.00    -0.061 NA
BRANCH  30  32
ATOM     32  C   UNL     1      22.800  14.145  -2.190  0.00  0.00    +0.079 A 
ATOM     33  C   UNL     1      21.456  14.571  -2.178  0.00  0.00    +0.062 A 
ATOM     34  C   UNL     1      20.534  13.889  -1.353  0.00  0.00    +0.015 A 
ATOM     35  C   UNL     1      20.931  12.821  -0.547  0.00  0.00    +0.001 A 
ATOM     36  C   UNL     1      22.250  12.393  -0.572  0.00  0.00    +0.002 A 
ATOM     37  C   UNL     1      23.173  13.040  -1.392  0.00  0.00    +0.028 A 
BRANCH  33  38
ATOM     38  C   UNL     1      20.891  15.579  -3.119  0.00  0.00    +0.244 C 
ATOM     39  O   UNL     1      19.819  15.416  -3.682  0.00  0.00    -0.270 OA
ATOM     40  N   UNL     1      21.599  16.735  -3.310  0.00  0.00    -0.325 N 
ATOM     41  H   UNL     1      21.181  17.436  -3.911  0.00  0.00    +0.145 HD
ATOM     42  H   UNL     1      22.482  16.951  -2.872  0.00  0.00    +0.145 HD
ENDBRANCH  33  38
ENDBRANCH  30  32
ENDBRANCH  26  28
ENDBRANCH  25  26
ENDBRANCH  24  25
ENDBRANCH   1  24
TORSDOF 12
