REMARK VINA RESULT:    -7.738      1.446      1.776
REMARK INTER + INTRA:         -14.369
REMARK INTER:                 -12.755
REMARK INTRA:                  -1.614
REMARK UNBOUND:                -1.202
REMARK  Name = lig_assembled_38.pdb
REMARK  12 active torsions:
REMARK  status: ('A' for Active; 'I' for Inactive)
REMARK    1  A    between atoms: _2  and  _8
REMARK    2  A    between atoms: _5  and  _6
REMARK    3  A    between atoms: _5  and  _14
REMARK    4  A    between atoms: _8  and  _9
REMARK    5  A    between atoms: _14  and  _16
REMARK    6  A    between atoms: _15  and  _20
REMARK    7  A    between atoms: _16  and  _19
REMARK    8  A    between atoms: _24  and  _34
REMARK    9  A    between atoms: _26  and  _27
REMARK   10  A    between atoms: _28  and  _30
REMARK   11  A    between atoms: _30  and  _32
REMARK   12  A    between atoms: _32  and  _34
REMARK                            x       y       z     vdW  Elec       q    Type
REMARK                         _______ _______ _______ _____ _____    ______ ____
ROOT
ATOM      1  C   UNL     1      27.915  17.203  -1.051  0.00  0.00    +0.400 C 
ATOM      2  N   UNL     1      28.361  16.178  -0.250  0.00  0.00    -0.278 N 
ATOM      3  H   UNL     1      28.692  16.681   0.634  0.00  0.00    +0.152 HD
ATOM      4  O   UNL     1      27.823  18.325  -0.558  0.00  0.00    -0.226 OA
ENDROOT
BRANCH   2   5
ATOM      5  C   UNL     1      28.568  14.744  -0.064  0.00  0.00    +0.152 C 
BRANCH   5   6
ATOM      6  C   UNL     1      29.986  14.311   0.362  0.00  0.00    +0.193 C 
ATOM      7  O   UNL     1      29.949  12.877   0.528  0.00  0.00    -0.219 OA
BRANCH   6   8
ATOM      8  C   UNL     1      31.138  14.554  -0.638  0.00  0.00    +0.212 C 
ATOM      9  O   UNL     1      31.581  15.919  -0.571  0.00  0.00    -0.218 OA
BRANCH   8  10
ATOM     10  C   UNL     1      32.377  13.609  -0.404  0.00  0.00    +0.171 C 
ATOM     11  O   UNL     1      33.198  14.040   0.677  0.00  0.00    -0.343 OA
ATOM     12  C   UNL     1      34.473  13.538   0.948  0.00  0.00    +0.220 C 
ATOM     13  C   UNL     1      35.369  13.554  -0.303  0.00  0.00    +0.076 C 
ATOM     14  C   UNL     1      34.611  12.826  -1.425  0.00  0.00    +0.177 C 
ATOM     15  O   UNL     1      35.414  12.777  -2.596  0.00  0.00    -0.221 OA
ATOM     16  C   UNL     1      33.248  13.534  -1.701  0.00  0.00    +0.155 C 
BRANCH  16  17
ATOM     17  N   UNL     1      32.528  12.848  -2.771  0.00  0.00    -0.202 NA
ATOM     18  C   UNL     1      32.545  13.071  -4.110  0.00  0.00    +0.242 C 
ATOM     19  C   UNL     1      31.938  12.031  -5.016  0.00  0.00    +0.096 C 
ATOM     20  O   UNL     1      33.051  14.102  -4.547  0.00  0.00    -0.273 OA
ENDBRANCH  16  17
BRANCH  12  21
ATOM     21  C   UNL     1      34.457  12.074   1.651  0.00  0.00    +0.391 C 
ATOM     22  O   UNL     1      35.745  11.678   1.659  0.00  0.00    -0.243 OA
ATOM     23  O   UNL     1      33.250  11.949   2.218  0.00  0.00    -0.243 OA
ENDBRANCH  12  21
ENDBRANCH   8  10
ENDBRANCH   6   8
ENDBRANCH   5   6
ENDBRANCH   2   5
BRANCH   1  24
ATOM     24  O   UNL     1      27.661  16.885  -2.277  0.00  0.00    -0.450 OA
BRANCH  24  25
ATOM     25  C   UNL     1      26.771  17.240  -3.310  0.00  0.00    +0.240 C 
BRANCH  25  26
ATOM     26  C   UNL     1      26.253  16.111  -4.221  0.00  0.00    +0.100 C 
BRANCH  26  28
ATOM     27  N   UNL     1      24.171  15.884  -2.899  0.00  0.00    -0.134 NA
ATOM     28  C   UNL     1      25.247  15.296  -3.510  0.00  0.00    +0.086 A 
ATOM     29  C   UNL     1      25.162  13.931  -3.359  0.00  0.00    +0.134 A 
ATOM     30  N   UNL     1      23.982  13.746  -2.696  0.00  0.00    -0.247 N 
ATOM     31  N   UNL     1      23.398  14.924  -2.410  0.00  0.00    -0.065 NA
BRANCH  30  32
ATOM     32  C   UNL     1      23.253  12.503  -2.517  0.00  0.00    +0.180 C 
BRANCH  32  33
ATOM     33  C   UNL     1      22.838  12.249  -1.089  0.00  0.00    -0.025 A 
ATOM     34  C   UNL     1      21.502  12.404  -0.688  0.00  0.00    +0.005 A 
ATOM     35  C   UNL     1      21.108  12.080   0.614  0.00  0.00    +0.001 A 
ATOM     36  C   UNL     1      22.042  11.600   1.530  0.00  0.00    +0.015 A 
ATOM     37  C   UNL     1      23.371  11.454   1.143  0.00  0.00    +0.018 A 
ATOM     38 BR   UNL     1      24.641  10.794   2.379  0.00  0.00    -0.050 Br
ATOM     39  C   UNL     1      23.773  11.774  -0.155  0.00  0.00    +0.020 A 
ENDBRANCH  32  33
ENDBRANCH  30  32
ENDBRANCH  26  28
ENDBRANCH  25  26
ENDBRANCH  24  25
ENDBRANCH   1  24
TORSDOF 12
