REMARK VINA RESULT:    -6.827      1.509      2.219
REMARK INTER + INTRA:         -16.252
REMARK INTER:                 -13.276
REMARK INTRA:                  -2.976
REMARK UNBOUND:                -3.439
REMARK  Name = lig_assembled_84.pdb
REMARK  16 active torsions:
REMARK  status: ('A' for Active; 'I' for Inactive)
REMARK    1  A    between atoms: _2  and  _10
REMARK    2  A    between atoms: _3  and  _13
REMARK    3  A    between atoms: _4  and  _16
REMARK    4  A    between atoms: _7  and  _8
REMARK    5  A    between atoms: _7  and  _23
REMARK    6  A    between atoms: _10  and  _11
REMARK    7  A    between atoms: _11  and  _12
REMARK    8  A    between atoms: _11  and  _13
REMARK    9  A    between atoms: _23  and  _25
REMARK   10  A    between atoms: _24  and  _29
REMARK   11  A    between atoms: _25  and  _28
REMARK   12  A    between atoms: _33  and  _43
REMARK   13  A    between atoms: _35  and  _36
REMARK   14  A    between atoms: _37  and  _39
REMARK   15  A    between atoms: _39  and  _41
REMARK   16  A    between atoms: _41  and  _43
REMARK                            x       y       z     vdW  Elec       q    Type
REMARK                         _______ _______ _______ _____ _____    ______ ____
ROOT
ATOM      1  C   UNL     1      27.049  15.601  -2.435  0.00  0.00    +0.240 C 
ENDROOT
BRANCH   1   2
ATOM      2  C   UNL     1      25.786  16.212  -3.072  0.00  0.00    +0.100 C 
BRANCH   2   4
ATOM      3  N   UNL     1      24.570  14.517  -4.411  0.00  0.00    -0.134 NA
ATOM      4  C   UNL     1      24.734  15.190  -3.229  0.00  0.00    +0.086 A 
ATOM      5  C   UNL     1      23.773  14.770  -2.336  0.00  0.00    +0.133 A 
ATOM      6  N   UNL     1      23.019  13.892  -3.055  0.00  0.00    -0.251 N 
ATOM      7  N   UNL     1      23.512  13.724  -4.293  0.00  0.00    -0.065 NA
BRANCH   6   8
ATOM      8  C   UNL     1      21.754  13.293  -2.676  0.00  0.00    +0.149 C 
BRANCH   8   9
ATOM      9  C   UNL     1      21.655  12.908  -1.190  0.00  0.00    +0.021 C 
ATOM     10  C   UNL     1      20.451  13.584  -0.518  0.00  0.00    +0.010 C 
BRANCH   9  11
ATOM     11  C   UNL     1      21.528  11.375  -1.014  0.00  0.00    +0.089 C 
BRANCH  11  12
ATOM     12  N   UNL     1      22.671  10.711  -0.373  0.00  0.00    -0.299 NA
ATOM     13  C   UNL     1      22.739  11.087   1.065  0.00  0.00    +0.103 C 
ATOM     14  C   UNL     1      23.876  10.346   1.796  0.00  0.00    +0.120 C 
ATOM     15  N   UNL     1      25.158  10.642   1.147  0.00  0.00    -0.327 N 
ATOM     16  C   UNL     1      25.185  10.360  -0.296  0.00  0.00    +0.120 C 
ATOM     17  C   UNL     1      23.977  11.046  -0.999  0.00  0.00    +0.103 C 
BRANCH  15  18
ATOM     18  C   UNL     1      26.256  11.093   1.841  0.00  0.00    +0.030 A 
ATOM     19  C   UNL     1      26.141  12.099   2.819  0.00  0.00    +0.024 A 
ATOM     20  C   UNL     1      27.249  12.589   3.517  0.00  0.00    +0.022 A 
ATOM     21  C   UNL     1      28.507  12.070   3.256  0.00  0.00    +0.041 A 
ATOM     22 CL   UNL     1      29.877  12.670   4.108  0.00  0.00    -0.084 Cl
ATOM     23  C   UNL     1      28.664  11.073   2.301  0.00  0.00    +0.022 A 
ATOM     24  C   UNL     1      27.546  10.596   1.602  0.00  0.00    +0.024 A 
ENDBRANCH  15  18
ENDBRANCH  11  12
ENDBRANCH   9  11
ENDBRANCH   8   9
ENDBRANCH   6   8
ENDBRANCH   2   4
ENDBRANCH   1   2
BRANCH   1  25
ATOM     25  O   UNL     1      27.947  16.482  -1.801  0.00  0.00    -0.450 OA
BRANCH  25  26
ATOM     26  C   UNL     1      28.221  16.916  -0.615  0.00  0.00    +0.400 C 
ATOM     27  N   UNL     1      28.611  15.961   0.294  0.00  0.00    -0.278 N 
ATOM     28  H   UNL     1      28.971  16.537   1.119  0.00  0.00    +0.152 HD
ATOM     29  O   UNL     1      28.193  18.088  -0.247  0.00  0.00    -0.226 OA
BRANCH  27  30
ATOM     30  C   UNL     1      28.737  14.546   0.635  0.00  0.00    +0.152 C 
BRANCH  30  31
ATOM     31  C   UNL     1      30.074  13.873   0.261  0.00  0.00    +0.193 C 
ATOM     32  O   UNL     1      30.267  14.093  -1.154  0.00  0.00    -0.219 OA
BRANCH  31  33
ATOM     33  C   UNL     1      31.360  14.425   0.915  0.00  0.00    +0.212 C 
ATOM     34  O   UNL     1      31.041  15.160   2.108  0.00  0.00    -0.218 OA
BRANCH  33  35
ATOM     35  C   UNL     1      32.405  13.303   1.280  0.00  0.00    +0.171 C 
ATOM     36  O   UNL     1      32.678  13.240   2.676  0.00  0.00    -0.343 OA
ATOM     37  C   UNL     1      33.730  12.516   3.242  0.00  0.00    +0.220 C 
ATOM     38  C   UNL     1      35.071  12.829   2.557  0.00  0.00    +0.076 C 
ATOM     39  C   UNL     1      34.880  12.618   1.046  0.00  0.00    +0.177 C 
ATOM     40  O   UNL     1      36.105  12.856   0.367  0.00  0.00    -0.221 OA
ATOM     41  C   UNL     1      33.746  13.548   0.513  0.00  0.00    +0.155 C 
BRANCH  41  42
ATOM     42  N   UNL     1      33.566  13.356  -0.924  0.00  0.00    -0.202 NA
ATOM     43  C   UNL     1      33.545  14.271  -1.926  0.00  0.00    +0.242 C 
ATOM     44  C   UNL     1      33.638  13.778  -3.347  0.00  0.00    +0.096 C 
ATOM     45  O   UNL     1      33.453  15.467  -1.655  0.00  0.00    -0.273 OA
ENDBRANCH  41  42
BRANCH  37  46
ATOM     46  C   UNL     1      33.452  10.917   3.309  0.00  0.00    +0.391 C 
ATOM     47  O   UNL     1      34.364  10.442   4.179  0.00  0.00    -0.243 OA
ATOM     48  O   UNL     1      32.262  10.723   2.727  0.00  0.00    -0.243 OA
ENDBRANCH  37  46
ENDBRANCH  33  35
ENDBRANCH  31  33
ENDBRANCH  30  31
ENDBRANCH  27  30
ENDBRANCH  25  26
ENDBRANCH   1  25
TORSDOF 15
