REMARK VINA RESULT:    -6.341      2.910      5.832
REMARK INTER + INTRA:         -13.885
REMARK INTER:                 -11.862
REMARK INTRA:                  -2.023
REMARK UNBOUND:                -2.911
REMARK  Name = lig_assembled_23.pdb
REMARK  13 active torsions:
REMARK  status: ('A' for Active; 'I' for Inactive)
REMARK    1  A    between atoms: _2  and  _9
REMARK    2  A    between atoms: _3  and  _44
REMARK    3  A    between atoms: _6  and  _7
REMARK    4  A    between atoms: _6  and  _16
REMARK    5  A    between atoms: _11  and  _44
REMARK    6  A    between atoms: _16  and  _18
REMARK    7  A    between atoms: _17  and  _22
REMARK    8  A    between atoms: _18  and  _21
REMARK    9  A    between atoms: _26  and  _36
REMARK   10  A    between atoms: _28  and  _29
REMARK   11  A    between atoms: _30  and  _32
REMARK   12  A    between atoms: _32  and  _34
REMARK   13  A    between atoms: _34  and  _36
REMARK                            x       y       z     vdW  Elec       q    Type
REMARK                         _______ _______ _______ _____ _____    ______ ____
ROOT
ATOM      1  C   UNL     1      26.870   9.210   3.061  0.00  0.00    +0.400 C 
ATOM      2  N   UNL     1      26.682  10.566   3.189  0.00  0.00    -0.278 N 
ATOM      3  H   UNL     1      27.027  10.772   4.179  0.00  0.00    +0.152 HD
ATOM      4  O   UNL     1      27.501   8.627   3.940  0.00  0.00    -0.226 OA
ENDROOT
BRANCH   2   5
ATOM      5  C   UNL     1      26.248  11.824   2.587  0.00  0.00    +0.152 C 
BRANCH   5   6
ATOM      6  C   UNL     1      27.125  12.367   1.440  0.00  0.00    +0.193 C 
ATOM      7  O   UNL     1      26.223  12.881   0.435  0.00  0.00    -0.219 OA
BRANCH   6   8
ATOM      8  C   UNL     1      28.063  13.553   1.758  0.00  0.00    +0.212 C 
ATOM      9  O   UNL     1      28.411  13.557   3.152  0.00  0.00    -0.218 OA
BRANCH   8  10
ATOM     10  C   UNL     1      29.390  13.544   0.907  0.00  0.00    +0.171 C 
ATOM     11  O   UNL     1      30.496  13.003   1.623  0.00  0.00    -0.343 OA
ATOM     12  C   UNL     1      31.826  13.096   1.207  0.00  0.00    +0.220 C 
ATOM     13  C   UNL     1      32.212  14.543   0.851  0.00  0.00    +0.076 C 
ATOM     14  C   UNL     1      31.178  15.062  -0.162  0.00  0.00    +0.177 C 
ATOM     15  O   UNL     1      31.512  16.385  -0.556  0.00  0.00    -0.221 OA
ATOM     16  C   UNL     1      29.745  14.997   0.451  0.00  0.00    +0.155 C 
BRANCH  16  17
ATOM     17  N   UNL     1      28.761  15.496  -0.507  0.00  0.00    -0.202 NA
ATOM     18  C   UNL     1      28.316  16.761  -0.715  0.00  0.00    +0.242 C 
ATOM     19  C   UNL     1      27.519  17.043  -1.961  0.00  0.00    +0.096 C 
ATOM     20  O   UNL     1      28.573  17.638   0.108  0.00  0.00    -0.273 OA
ENDBRANCH  16  17
BRANCH  12  21
ATOM     21  C   UNL     1      32.203  12.066   0.008  0.00  0.00    +0.391 C 
ATOM     22  O   UNL     1      33.381  12.509  -0.473  0.00  0.00    -0.243 OA
ATOM     23  O   UNL     1      31.380  11.020   0.148  0.00  0.00    -0.243 OA
ENDBRANCH  12  21
ENDBRANCH   8  10
ENDBRANCH   6   8
ENDBRANCH   5   6
ENDBRANCH   2   5
BRANCH   1  24
ATOM     24  O   UNL     1      26.326   8.664   2.023  0.00  0.00    -0.450 OA
BRANCH  24  25
ATOM     25  C   UNL     1      25.047   8.319   1.545  0.00  0.00    +0.240 C 
BRANCH  25  26
ATOM     26  C   UNL     1      23.842   8.621   2.456  0.00  0.00    +0.100 C 
BRANCH  26  28
ATOM     27  N   UNL     1      21.983  10.246   2.587  0.00  0.00    -0.134 NA
ATOM     28  C   UNL     1      23.066   9.754   1.919  0.00  0.00    +0.086 A 
ATOM     29  C   UNL     1      23.245  10.474   0.760  0.00  0.00    +0.139 A 
ATOM     30  N   UNL     1      22.242  11.417   0.769  0.00  0.00    -0.220 N 
ATOM     31  N   UNL     1      21.486  11.253   1.882  0.00  0.00    -0.061 NA
BRANCH  30  32
ATOM     32  C   UNL     1      21.956  12.424  -0.188  0.00  0.00    +0.069 A 
ATOM     33  C   UNL     1      22.987  12.910  -1.005  0.00  0.00    +0.056 A 
ATOM     34  C   UNL     1      22.715  13.930  -1.925  0.00  0.00    +0.107 A 
ATOM     35  C   UNL     1      21.428  14.452  -2.060  0.00  0.00    +0.028 A 
ATOM     36  C   UNL     1      20.401  13.957  -1.256  0.00  0.00    +0.004 A 
ATOM     37  C   UNL     1      20.662  12.951  -0.320  0.00  0.00    +0.028 A 
BRANCH  34  38
ATOM     38  S   UNL     1      24.038  14.571  -2.907  0.00  0.00    +0.056 S 
ATOM     39  O   UNL     1      25.285  14.332  -2.219  0.00  0.00    -0.153 OA
ATOM     40  O   UNL     1      23.827  14.206  -4.288  0.00  0.00    -0.153 OA
BRANCH  38  41
ATOM     41  N   UNL     1      23.758  16.223  -2.835  0.00  0.00    -0.204 NA
ATOM     42  H   UNL     1      24.446  16.669  -2.228  0.00  0.00    +0.144 HD
ATOM     43  H   UNL     1      22.789  16.403  -2.567  0.00  0.00    +0.144 HD
ENDBRANCH  38  41
ENDBRANCH  34  38
ENDBRANCH  30  32
ENDBRANCH  26  28
ENDBRANCH  25  26
ENDBRANCH  24  25
ENDBRANCH   1  24
TORSDOF 13
