REMARK VINA RESULT:    -7.353      1.712      2.324
REMARK INTER + INTRA:         -15.660
REMARK INTER:                 -13.907
REMARK INTRA:                  -1.752
REMARK UNBOUND:                -1.860
REMARK  Name = lig_assembled_37.pdb
REMARK  16 active torsions:
REMARK  status: ('A' for Active; 'I' for Inactive)
REMARK    1  A    between atoms: _2  and  _8
REMARK    2  A    between atoms: _5  and  _6
REMARK    3  A    between atoms: _5  and  _19
REMARK    4  A    between atoms: _8  and  _9
REMARK    5  A    between atoms: _8  and  _10
REMARK    6  A    between atoms: _10  and  _17
REMARK    7  A    between atoms: _11  and  _12
REMARK    8  A    between atoms: _11  and  _17
REMARK    9  A    between atoms: _19  and  _21
REMARK   10  A    between atoms: _20  and  _25
REMARK   11  A    between atoms: _21  and  _24
REMARK   12  A    between atoms: _29  and  _39
REMARK   13  A    between atoms: _31  and  _32
REMARK   14  A    between atoms: _33  and  _35
REMARK   15  A    between atoms: _35  and  _37
REMARK   16  A    between atoms: _37  and  _39
REMARK                            x       y       z     vdW  Elec       q    Type
REMARK                         _______ _______ _______ _____ _____    ______ ____
ROOT
ATOM      1  C   UNL     1      28.963  17.062  -0.490  0.00  0.00    +0.400 C 
ATOM      2  N   UNL     1      29.105  15.905   0.238  0.00  0.00    -0.278 N 
ATOM      3  H   UNL     1      29.873  16.147   0.940  0.00  0.00    +0.152 HD
ATOM      4  O   UNL     1      29.545  18.070  -0.096  0.00  0.00    -0.226 OA
ENDROOT
BRANCH   2   5
ATOM      5  C   UNL     1      28.676  14.531   0.487  0.00  0.00    +0.152 C 
BRANCH   5   6
ATOM      6  C   UNL     1      29.182  13.887   1.794  0.00  0.00    +0.193 C 
ATOM      7  O   UNL     1      28.074  13.903   2.721  0.00  0.00    -0.219 OA
BRANCH   6   8
ATOM      8  C   UNL     1      29.618  12.406   1.740  0.00  0.00    +0.212 C 
ATOM      9  O   UNL     1      29.523  11.904   0.397  0.00  0.00    -0.218 OA
BRANCH   8  10
ATOM     10  C   UNL     1      31.085  12.167   2.265  0.00  0.00    +0.171 C 
ATOM     11  O   UNL     1      31.178  12.246   3.684  0.00  0.00    -0.343 OA
ATOM     12  C   UNL     1      32.380  12.316   4.392  0.00  0.00    +0.220 C 
ATOM     13  C   UNL     1      33.304  13.416   3.840  0.00  0.00    +0.076 C 
ATOM     14  C   UNL     1      33.456  13.177   2.328  0.00  0.00    +0.177 C 
ATOM     15  O   UNL     1      34.334  14.146   1.773  0.00  0.00    -0.221 OA
ATOM     16  C   UNL     1      32.058  13.216   1.635  0.00  0.00    +0.155 C 
BRANCH  16  17
ATOM     17  N   UNL     1      32.199  12.997   0.198  0.00  0.00    -0.202 NA
ATOM     18  C   UNL     1      32.242  13.896  -0.818  0.00  0.00    +0.242 C 
ATOM     19  C   UNL     1      32.689  13.422  -2.176  0.00  0.00    +0.096 C 
ATOM     20  O   UNL     1      31.921  15.064  -0.608  0.00  0.00    -0.273 OA
ENDBRANCH  16  17
BRANCH  12  21
ATOM     21  C   UNL     1      33.150  10.890   4.503  0.00  0.00    +0.391 C 
ATOM     22  O   UNL     1      34.424  11.206   4.808  0.00  0.00    -0.243 OA
ATOM     23  O   UNL     1      32.193   9.956   4.550  0.00  0.00    -0.243 OA
ENDBRANCH  12  21
ENDBRANCH   8  10
ENDBRANCH   6   8
ENDBRANCH   5   6
ENDBRANCH   2   5
BRANCH   1  24
ATOM     24  O   UNL     1      28.240  16.967  -1.558  0.00  0.00    -0.450 OA
BRANCH  24  25
ATOM     25  C   UNL     1      27.150  17.615  -2.171  0.00  0.00    +0.240 C 
BRANCH  25  26
ATOM     26  C   UNL     1      26.940  17.379  -3.679  0.00  0.00    +0.100 C 
BRANCH  26  28
ATOM     27  N   UNL     1      25.902  15.602  -5.058  0.00  0.00    -0.134 NA
ATOM     28  C   UNL     1      25.929  16.329  -3.899  0.00  0.00    +0.086 A 
ATOM     29  C   UNL     1      24.910  15.902  -3.076  0.00  0.00    +0.134 A 
ATOM     30  N   UNL     1      24.282  14.932  -3.802  0.00  0.00    -0.238 N 
ATOM     31  N   UNL     1      24.894  14.742  -4.986  0.00  0.00    -0.065 NA
BRANCH  30  32
ATOM     32  C   UNL     1      23.155  14.096  -3.437  0.00  0.00    +0.214 C 
ATOM     33  C   UNL     1      23.097  12.832  -4.293  0.00  0.00    +0.045 C 
BRANCH  32  34
ATOM     34  C   UNL     1      23.196  13.733  -1.970  0.00  0.00    +0.332 C 
ATOM     35  O   UNL     1      24.178  13.258  -1.407  0.00  0.00    -0.248 OA
BRANCH  34  36
ATOM     36  O   UNL     1      22.007  13.997  -1.365  0.00  0.00    -0.458 OA
BRANCH  36  37
ATOM     37  C   UNL     1      21.044  12.931  -1.372  0.00  0.00    +0.267 C 
BRANCH  37  38
ATOM     38  C   UNL     1      21.399  11.911  -0.322  0.00  0.00    -0.010 A 
ATOM     39  C   UNL     1      21.768  10.609  -0.692  0.00  0.00    +0.007 A 
ATOM     40  C   UNL     1      22.125   9.671   0.279  0.00  0.00    +0.000 A 
ATOM     41  C   UNL     1      22.114  10.022   1.628  0.00  0.00    +0.000 A 
ATOM     42  C   UNL     1      21.743  11.311   2.007  0.00  0.00    +0.000 A 
ATOM     43  C   UNL     1      21.385  12.251   1.038  0.00  0.00    +0.007 A 
ENDBRANCH  37  38
ENDBRANCH  36  37
ENDBRANCH  34  36
ENDBRANCH  32  34
ENDBRANCH  30  32
ENDBRANCH  26  28
ENDBRANCH  25  26
ENDBRANCH  24  25
ENDBRANCH   1  24
TORSDOF 15
