REMARK VINA RESULT:    -8.059      1.853      3.818
REMARK INTER + INTRA:         -16.226
REMARK INTER:                 -13.988
REMARK INTRA:                  -2.237
REMARK UNBOUND:                -1.807
REMARK  Name = lig_assembled_75.pdb
REMARK  14 active torsions:
REMARK  status: ('A' for Active; 'I' for Inactive)
REMARK    1  A    between atoms: _2  and  _8
REMARK    2  A    between atoms: _5  and  _6
REMARK    3  A    between atoms: _5  and  _18
REMARK    4  A    between atoms: _10  and  _11
REMARK    5  A    between atoms: _12  and  _13
REMARK    6  A    between atoms: _13  and  _16
REMARK    7  A    between atoms: _18  and  _20
REMARK    8  A    between atoms: _19  and  _24
REMARK    9  A    between atoms: _20  and  _23
REMARK   10  A    between atoms: _28  and  _38
REMARK   11  A    between atoms: _30  and  _31
REMARK   12  A    between atoms: _32  and  _34
REMARK   13  A    between atoms: _34  and  _36
REMARK   14  A    between atoms: _36  and  _38
REMARK                            x       y       z     vdW  Elec       q    Type
REMARK                         _______ _______ _______ _____ _____    ______ ____
ROOT
ATOM      1  C   UNL     1      28.235  17.562  -0.519  0.00  0.00    +0.400 C 
ATOM      2  N   UNL     1      29.445  17.227   0.041  0.00  0.00    -0.278 N 
ATOM      3  H   UNL     1      29.423  17.718   0.990  0.00  0.00    +0.152 HD
ATOM      4  O   UNL     1      27.405  18.127   0.190  0.00  0.00    -0.226 OA
ENDROOT
BRANCH   2   5
ATOM      5  C   UNL     1      30.710  16.506  -0.070  0.00  0.00    +0.152 C 
BRANCH   5   6
ATOM      6  C   UNL     1      30.618  14.966  -0.065  0.00  0.00    +0.193 C 
ATOM      7  O   UNL     1      31.596  14.488  -1.014  0.00  0.00    -0.219 OA
BRANCH   6   8
ATOM      8  C   UNL     1      30.965  14.233   1.249  0.00  0.00    +0.212 C 
ATOM      9  O   UNL     1      31.209  15.179   2.302  0.00  0.00    -0.218 OA
BRANCH   8  10
ATOM     10  C   UNL     1      29.843  13.232   1.721  0.00  0.00    +0.171 C 
ATOM     11  O   UNL     1      28.550  13.828   1.740  0.00  0.00    -0.343 OA
ATOM     12  C   UNL     1      27.426  13.254   2.340  0.00  0.00    +0.220 C 
ATOM     13  C   UNL     1      27.715  12.810   3.785  0.00  0.00    +0.076 C 
ATOM     14  C   UNL     1      28.962  11.910   3.752  0.00  0.00    +0.177 C 
ATOM     15  O   UNL     1      29.250  11.438   5.060  0.00  0.00    -0.221 OA
ATOM     16  C   UNL     1      30.172  12.691   3.151  0.00  0.00    +0.155 C 
BRANCH  16  17
ATOM     17  N   UNL     1      31.360  11.841   3.124  0.00  0.00    -0.202 NA
ATOM     18  C   UNL     1      32.537  11.973   3.788  0.00  0.00    +0.242 C 
ATOM     19  C   UNL     1      33.483  10.801   3.808  0.00  0.00    +0.096 C 
ATOM     20  O   UNL     1      32.800  13.033   4.353  0.00  0.00    -0.273 OA
ENDBRANCH  16  17
BRANCH  12  21
ATOM     21  C   UNL     1      26.769  12.052   1.467  0.00  0.00    +0.391 C 
ATOM     22  O   UNL     1      25.947  11.412   2.320  0.00  0.00    -0.243 OA
ATOM     23  O   UNL     1      27.049  12.330   0.187  0.00  0.00    -0.243 OA
ENDBRANCH  12  21
ENDBRANCH   8  10
ENDBRANCH   6   8
ENDBRANCH   5   6
ENDBRANCH   2   5
BRANCH   1  24
ATOM     24  O   UNL     1      28.098  17.272  -1.771  0.00  0.00    -0.450 OA
BRANCH  24  25
ATOM     25  C   UNL     1      27.118  17.333  -2.781  0.00  0.00    +0.240 C 
BRANCH  25  26
ATOM     26  C   UNL     1      26.978  16.114  -3.711  0.00  0.00    +0.100 C 
BRANCH  26  28
ATOM     27  N   UNL     1      24.859  15.173  -4.576  0.00  0.00    -0.134 NA
ATOM     28  C   UNL     1      25.667  15.467  -3.516  0.00  0.00    +0.086 A 
ATOM     29  C   UNL     1      25.046  15.072  -2.353  0.00  0.00    +0.139 A 
ATOM     30  N   UNL     1      23.845  14.534  -2.756  0.00  0.00    -0.220 N 
ATOM     31  N   UNL     1      23.755  14.608  -4.108  0.00  0.00    -0.061 NA
BRANCH  30  32
ATOM     32  C   UNL     1      22.798  13.998  -1.964  0.00  0.00    +0.068 A 
ATOM     33  C   UNL     1      23.077  12.943  -1.077  0.00  0.00    +0.035 A 
ATOM     34  C   UNL     1      22.054  12.345  -0.327  0.00  0.00    -0.023 A 
ATOM     35  C   UNL     1      20.756  12.860  -0.429  0.00  0.00    +0.008 A 
ATOM     36  C   UNL     1      20.478  13.923  -1.292  0.00  0.00    +0.003 A 
ATOM     37  C   UNL     1      21.491  14.487  -2.065  0.00  0.00    +0.028 A 
BRANCH  34  38
ATOM     38  C   UNL     1      22.297  11.210   0.576  0.00  0.00    +0.015 C 
ATOM     39  C   UNL     1      22.041  11.239   1.894  0.00  0.00    +0.092 C 
BRANCH  39  40
ATOM     40  C   UNL     1      22.369  10.065   2.728  0.00  0.00    +0.330 C 
ATOM     41  O   UNL     1      21.794   8.993   2.672  0.00  0.00    -0.246 OA
BRANCH  40  42
ATOM     42  O   UNL     1      23.399  10.311   3.562  0.00  0.00    -0.478 OA
ATOM     43  H   UNL     1      24.284  10.299   3.155  0.00  0.00    +0.295 HD
ENDBRANCH  40  42
ENDBRANCH  39  40
ENDBRANCH  34  38
ENDBRANCH  30  32
ENDBRANCH  26  28
ENDBRANCH  25  26
ENDBRANCH  24  25
ENDBRANCH   1  24
TORSDOF 14
