REMARK VINA RESULT:    -7.981      2.541      4.150
REMARK INTER + INTRA:         -16.333
REMARK INTER:                 -14.628
REMARK INTRA:                  -1.706
REMARK UNBOUND:                -1.120
REMARK  Name = lig_assembled_76.pdb
REMARK  16 active torsions:
REMARK  status: ('A' for Active; 'I' for Inactive)
REMARK    1  A    between atoms: _2  and  _8
REMARK    2  A    between atoms: _5  and  _6
REMARK    3  A    between atoms: _5  and  _18
REMARK    4  A    between atoms: _8  and  _9
REMARK    5  A    between atoms: _9  and  _10
REMARK    6  A    between atoms: _9  and  _17
REMARK    7  A    between atoms: _10  and  _11
REMARK    8  A    between atoms: _11  and  _12
REMARK    9  A    between atoms: _18  and  _20
REMARK   10  A    between atoms: _19  and  _24
REMARK   11  A    between atoms: _20  and  _23
REMARK   12  A    between atoms: _28  and  _38
REMARK   13  A    between atoms: _30  and  _31
REMARK   14  A    between atoms: _32  and  _34
REMARK   15  A    between atoms: _34  and  _36
REMARK   16  A    between atoms: _36  and  _38
REMARK                            x       y       z     vdW  Elec       q    Type
REMARK                         _______ _______ _______ _____ _____    ______ ____
ROOT
ATOM      1  C   UNL     1      28.296  17.663  -0.639  0.00  0.00    +0.400 C 
ATOM      2  N   UNL     1      29.487  17.579   0.043  0.00  0.00    -0.278 N 
ATOM      3  H   UNL     1      29.423  18.375   0.753  0.00  0.00    +0.152 HD
ATOM      4  O   UNL     1      27.433  18.422  -0.205  0.00  0.00    -0.226 OA
ENDROOT
BRANCH   1   5
ATOM      5  O   UNL     1      28.210  16.943  -1.709  0.00  0.00    -0.450 OA
BRANCH   5   6
ATOM      6  C   UNL     1      27.295  16.085  -2.349  0.00  0.00    +0.240 C 
BRANCH   6   7
ATOM      7  C   UNL     1      26.490  16.658  -3.531  0.00  0.00    +0.100 C 
BRANCH   7   9
ATOM      8  N   UNL     1      25.188  15.193  -5.048  0.00  0.00    -0.134 NA
ATOM      9  C   UNL     1      25.331  15.800  -3.827  0.00  0.00    +0.086 A 
ATOM     10  C   UNL     1      24.256  15.476  -3.032  0.00  0.00    +0.133 A 
ATOM     11  N   UNL     1      23.499  14.666  -3.823  0.00  0.00    -0.249 N 
ATOM     12  N   UNL     1      24.052  14.505  -5.036  0.00  0.00    -0.065 NA
BRANCH  11  13
ATOM     13  C   UNL     1      22.189  14.126  -3.539  0.00  0.00    +0.176 C 
BRANCH  13  14
ATOM     14  C   UNL     1      21.500  14.822  -2.360  0.00  0.00    +0.136 C 
BRANCH  14  15
ATOM     15  O   UNL     1      20.806  15.993  -2.814  0.00  0.00    -0.390 OA
ATOM     16  H   UNL     1      19.897  15.978  -2.467  0.00  0.00    +0.210 HD
ENDBRANCH  14  15
BRANCH  14  17
ATOM     17  C   UNL     1      20.470  13.917  -1.665  0.00  0.00    +0.038 C 
BRANCH  17  18
ATOM     18  C   UNL     1      20.752  12.425  -1.844  0.00  0.00    +0.038 C 
BRANCH  18  19
ATOM     19  C   UNL     1      21.230  11.781  -0.569  0.00  0.00    -0.047 A 
ATOM     20  C   UNL     1      21.850  10.524  -0.601  0.00  0.00    +0.003 A 
ATOM     21  C   UNL     1      22.310   9.933   0.577  0.00  0.00    +0.000 A 
ATOM     22  C   UNL     1      22.149  10.590   1.795  0.00  0.00    +0.000 A 
ATOM     23  C   UNL     1      21.524  11.835   1.838  0.00  0.00    +0.000 A 
ATOM     24  C   UNL     1      21.062  12.427   0.662  0.00  0.00    +0.003 A 
ENDBRANCH  18  19
ENDBRANCH  17  18
ENDBRANCH  14  17
ENDBRANCH  13  14
ENDBRANCH  11  13
ENDBRANCH   7   9
ENDBRANCH   6   7
ENDBRANCH   5   6
ENDBRANCH   1   5
BRANCH   2  25
ATOM     25  C   UNL     1      30.764  16.897   0.236  0.00  0.00    +0.152 C 
BRANCH  25  26
ATOM     26  C   UNL     1      30.699  15.364   0.388  0.00  0.00    +0.193 C 
ATOM     27  O   UNL     1      31.258  14.803  -0.821  0.00  0.00    -0.219 OA
BRANCH  26  28
ATOM     28  C   UNL     1      31.523  14.722   1.527  0.00  0.00    +0.212 C 
ATOM     29  O   UNL     1      31.646  15.633   2.631  0.00  0.00    -0.218 OA
BRANCH  28  30
ATOM     30  C   UNL     1      30.910  13.370   2.055  0.00  0.00    +0.171 C 
ATOM     31  O   UNL     1      29.493  13.423   2.182  0.00  0.00    -0.343 OA
ATOM     32  C   UNL     1      28.725  12.465   2.848  0.00  0.00    +0.220 C 
ATOM     33  C   UNL     1      29.270  12.176   4.257  0.00  0.00    +0.076 C 
ATOM     34  C   UNL     1      30.760  11.824   4.113  0.00  0.00    +0.177 C 
ATOM     35  O   UNL     1      31.306  11.508   5.386  0.00  0.00    -0.221 OA
ATOM     36  C   UNL     1      31.529  13.006   3.444  0.00  0.00    +0.155 C 
BRANCH  36  37
ATOM     37  N   UNL     1      32.947  12.679   3.312  0.00  0.00    -0.202 NA
ATOM     38  C   UNL     1      34.022  13.204   3.953  0.00  0.00    +0.242 C 
ATOM     39  C   UNL     1      35.341  12.483   3.845  0.00  0.00    +0.096 C 
ATOM     40  O   UNL     1      33.897  14.242   4.599  0.00  0.00    -0.273 OA
ENDBRANCH  36  37
BRANCH  32  41
ATOM     41  C   UNL     1      28.514  11.098   1.997  0.00  0.00    +0.391 C 
ATOM     42  O   UNL     1      27.955  10.231   2.863  0.00  0.00    -0.243 OA
ATOM     43  O   UNL     1      28.687  11.432   0.712  0.00  0.00    -0.243 OA
ENDBRANCH  32  41
ENDBRANCH  28  30
ENDBRANCH  26  28
ENDBRANCH  25  26
ENDBRANCH   2  25
TORSDOF 16
