REMARK VINA RESULT:    -5.986      3.108      8.984
REMARK INTER + INTRA:         -12.783
REMARK INTER:                 -10.516
REMARK INTRA:                  -2.267
REMARK UNBOUND:                -2.422
REMARK  Name = lig_assembled_53.pdb
REMARK  13 active torsions:
REMARK  status: ('A' for Active; 'I' for Inactive)
REMARK    1  A    between atoms: _2  and  _8
REMARK    2  A    between atoms: _4  and  _8
REMARK    3  A    between atoms: _4  and  _9
REMARK    4  A    between atoms: _5  and  _6
REMARK    5  A    between atoms: _5  and  _11
REMARK    6  A    between atoms: _11  and  _13
REMARK    7  A    between atoms: _12  and  _17
REMARK    8  A    between atoms: _13  and  _16
REMARK    9  A    between atoms: _21  and  _31
REMARK   10  A    between atoms: _23  and  _24
REMARK   11  A    between atoms: _25  and  _27
REMARK   12  A    between atoms: _27  and  _29
REMARK   13  A    between atoms: _29  and  _31
REMARK                            x       y       z     vdW  Elec       q    Type
REMARK                         _______ _______ _______ _____ _____    ______ ____
ROOT
ATOM      1  C   UNL     1      28.074  13.610  -0.488  0.00  0.00    +0.152 C 
ENDROOT
BRANCH   1   3
ATOM      2  C   UNL     1      28.593  16.288  -0.518  0.00  0.00    +0.400 C 
ATOM      3  N   UNL     1      27.967  15.066  -0.454  0.00  0.00    -0.278 N 
ATOM      4  H   UNL     1      26.936  15.322  -0.336  0.00  0.00    +0.152 HD
ATOM      5  O   UNL     1      27.893  17.294  -0.611  0.00  0.00    -0.226 OA
BRANCH   2   6
ATOM      6  O   UNL     1      29.883  16.261  -0.440  0.00  0.00    -0.450 OA
BRANCH   6   7
ATOM      7  C   UNL     1      30.893  16.143   0.535  0.00  0.00    +0.240 C 
BRANCH   7   8
ATOM      8  C   UNL     1      31.599  14.780   0.666  0.00  0.00    +0.100 C 
BRANCH   8  10
ATOM      9  N   UNL     1      33.235  15.166  -1.153  0.00  0.00    -0.134 NA
ATOM     10  C   UNL     1      32.236  14.404  -0.610  0.00  0.00    +0.086 A 
ATOM     11  C   UNL     1      31.991  13.329  -1.434  0.00  0.00    +0.134 A 
ATOM     12  N   UNL     1      32.823  13.526  -2.495  0.00  0.00    -0.241 N 
ATOM     13  N   UNL     1      33.603  14.608  -2.298  0.00  0.00    -0.065 NA
BRANCH  12  14
ATOM     14  C   UNL     1      33.080  12.693  -3.651  0.00  0.00    +0.265 C 
BRANCH  14  15
ATOM     15  C   UNL     1      33.038  13.403  -4.978  0.00  0.00    +0.326 C 
ATOM     16  O   UNL     1      32.084  13.477  -5.737  0.00  0.00    -0.249 OA
BRANCH  15  17
ATOM     17  O   UNL     1      34.227  13.981  -5.295  0.00  0.00    -0.479 OA
ATOM     18  H   UNL     1      34.174  14.853  -5.732  0.00  0.00    +0.295 HD
ENDBRANCH  15  17
ENDBRANCH  14  15
ENDBRANCH  12  14
ENDBRANCH   8  10
ENDBRANCH   7   8
ENDBRANCH   6   7
ENDBRANCH   2   6
ENDBRANCH   1   3
BRANCH   1  19
ATOM     19  C   UNL     1      28.404  12.985  -1.859  0.00  0.00    +0.193 C 
ATOM     20  O   UNL     1      28.985  11.689  -1.596  0.00  0.00    -0.219 OA
BRANCH  19  21
ATOM     21  C   UNL     1      27.225  12.692  -2.814  0.00  0.00    +0.212 C 
ATOM     22  O   UNL     1      27.238  11.313  -3.218  0.00  0.00    -0.218 OA
BRANCH  21  23
ATOM     23  C   UNL     1      25.817  13.020  -2.186  0.00  0.00    +0.171 C 
ATOM     24  O   UNL     1      24.978  11.874  -2.094  0.00  0.00    -0.343 OA
ATOM     25  C   UNL     1      23.611  11.918  -1.808  0.00  0.00    +0.220 C 
ATOM     26  C   UNL     1      22.872  12.919  -2.713  0.00  0.00    +0.076 C 
ATOM     27  C   UNL     1      23.600  14.268  -2.603  0.00  0.00    +0.177 C 
ATOM     28  O   UNL     1      22.932  15.242  -3.392  0.00  0.00    -0.221 OA
ATOM     29  C   UNL     1      25.091  14.112  -3.039  0.00  0.00    +0.155 C 
BRANCH  29  30
ATOM     30  N   UNL     1      25.785  15.393  -2.942  0.00  0.00    -0.202 NA
ATOM     31  C   UNL     1      26.277  16.189  -3.925  0.00  0.00    +0.242 C 
ATOM     32  C   UNL     1      26.684  17.596  -3.569  0.00  0.00    +0.096 C 
ATOM     33  O   UNL     1      26.378  15.751  -5.069  0.00  0.00    -0.273 OA
ENDBRANCH  29  30
BRANCH  25  34
ATOM     34  C   UNL     1      23.286  12.180  -0.238  0.00  0.00    +0.391 C 
ATOM     35  O   UNL     1      21.952  12.357  -0.184  0.00  0.00    -0.243 OA
ATOM     36  O   UNL     1      24.391  11.828   0.432  0.00  0.00    -0.243 OA
ENDBRANCH  25  34
ENDBRANCH  21  23
ENDBRANCH  19  21
ENDBRANCH   1  19
TORSDOF 13
