REMARK VINA RESULT:    -7.045      3.992      8.586
REMARK INTER + INTRA:         -15.311
REMARK INTER:                 -13.079
REMARK INTRA:                  -2.232
REMARK UNBOUND:                -2.913
REMARK  Name = lig_assembled_92.pdb
REMARK  13 active torsions:
REMARK  status: ('A' for Active; 'I' for Inactive)
REMARK    1  A    between atoms: _2  and  _10
REMARK    2  A    between atoms: _3  and  _49
REMARK    3  A    between atoms: _7  and  _8
REMARK    4  A    between atoms: _7  and  _20
REMARK    5  A    between atoms: _13  and  _49
REMARK    6  A    between atoms: _20  and  _22
REMARK    7  A    between atoms: _21  and  _26
REMARK    8  A    between atoms: _22  and  _25
REMARK    9  A    between atoms: _30  and  _40
REMARK   10  A    between atoms: _32  and  _33
REMARK   11  A    between atoms: _34  and  _36
REMARK   12  A    between atoms: _36  and  _38
REMARK   13  A    between atoms: _38  and  _40
REMARK                            x       y       z     vdW  Elec       q    Type
REMARK                         _______ _______ _______ _____ _____    ______ ____
ROOT
ATOM      1  O   UNL     1      28.049  16.565  -1.625  0.00  0.00    -0.450 OA
ENDROOT
BRANCH   1   2
ATOM      2  C   UNL     1      27.114  16.593  -2.518  0.00  0.00    +0.400 C 
ATOM      3  N   UNL     1      26.118  15.658  -2.366  0.00  0.00    -0.278 N 
ATOM      4  H   UNL     1      25.373  15.975  -3.064  0.00  0.00    +0.152 HD
ATOM      5  O   UNL     1      27.028  17.385  -3.452  0.00  0.00    -0.226 OA
BRANCH   3   6
ATOM      6  C   UNL     1      25.638  14.447  -1.705  0.00  0.00    +0.152 C 
BRANCH   6   7
ATOM      7  C   UNL     1      25.949  13.115  -2.418  0.00  0.00    +0.193 C 
ATOM      8  O   UNL     1      27.311  13.206  -2.892  0.00  0.00    -0.219 OA
BRANCH   7   9
ATOM      9  C   UNL     1      25.922  11.826  -1.568  0.00  0.00    +0.212 C 
ATOM     10  O   UNL     1      27.030  10.977  -1.908  0.00  0.00    -0.218 OA
BRANCH   9  11
ATOM     11  C   UNL     1      25.956  12.101  -0.016  0.00  0.00    +0.171 C 
ATOM     12  O   UNL     1      27.183  11.698   0.585  0.00  0.00    -0.343 OA
ATOM     13  C   UNL     1      27.391  11.600   1.963  0.00  0.00    +0.220 C 
ATOM     14  C   UNL     1      26.287  10.778   2.649  0.00  0.00    +0.076 C 
ATOM     15  C   UNL     1      24.935  11.385   2.240  0.00  0.00    +0.177 C 
ATOM     16  O   UNL     1      23.878  10.685   2.881  0.00  0.00    -0.221 OA
ATOM     17  C   UNL     1      24.778  11.351   0.688  0.00  0.00    +0.155 C 
BRANCH  17  18
ATOM     18  N   UNL     1      23.492  11.922   0.296  0.00  0.00    -0.202 NA
ATOM     19  C   UNL     1      22.400  11.316  -0.236  0.00  0.00    +0.242 C 
ATOM     20  C   UNL     1      21.103  12.081  -0.272  0.00  0.00    +0.096 C 
ATOM     21  O   UNL     1      22.493  10.169  -0.671  0.00  0.00    -0.273 OA
ENDBRANCH  17  18
BRANCH  13  22
ATOM     22  C   UNL     1      27.603  13.038   2.689  0.00  0.00    +0.391 C 
ATOM     23  O   UNL     1      27.573  12.769   4.008  0.00  0.00    -0.243 OA
ATOM     24  O   UNL     1      28.022  13.877   1.733  0.00  0.00    -0.243 OA
ENDBRANCH  13  22
ENDBRANCH   9  11
ENDBRANCH   7   9
ENDBRANCH   6   7
ENDBRANCH   3   6
ENDBRANCH   1   2
BRANCH   1  25
ATOM     25  C   UNL     1      28.468  17.293  -0.495  0.00  0.00    +0.240 C 
BRANCH  25  26
ATOM     26  C   UNL     1      29.985  17.453  -0.275  0.00  0.00    +0.100 C 
BRANCH  26  28
ATOM     27  N   UNL     1      30.883  15.154  -0.510  0.00  0.00    -0.134 NA
ATOM     28  C   UNL     1      30.556  16.215   0.285  0.00  0.00    +0.086 A 
ATOM     29  C   UNL     1      30.858  15.907   1.591  0.00  0.00    +0.139 A 
ATOM     30  N   UNL     1      31.401  14.643   1.542  0.00  0.00    -0.220 N 
ATOM     31  N   UNL     1      31.390  14.201   0.261  0.00  0.00    -0.061 NA
BRANCH  30  32
ATOM     32  C   UNL     1      31.943  13.876   2.605  0.00  0.00    +0.067 A 
ATOM     33  C   UNL     1      31.129  12.988   3.325  0.00  0.00    +0.030 A 
ATOM     34  C   UNL     1      31.649  12.279   4.406  0.00  0.00    +0.031 A 
ATOM     35  C   UNL     1      32.989  12.445   4.766  0.00  0.00    +0.109 A 
ATOM     36  C   UNL     1      33.814  13.317   4.053  0.00  0.00    +0.031 A 
ATOM     37  C   UNL     1      33.293  14.026   2.964  0.00  0.00    +0.030 A 
BRANCH  35  38
ATOM     38  S   UNL     1      33.574  11.645   6.236  0.00  0.00    +0.074 S 
ATOM     39  O   UNL     1      32.606  10.627   6.594  0.00  0.00    -0.150 OA
ATOM     40  O   UNL     1      34.962  11.291   6.048  0.00  0.00    -0.150 OA
BRANCH  38  41
ATOM     41  N   UNL     1      33.417  12.835   7.423  0.00  0.00    -0.194 N 
ATOM     42  H   UNL     1      32.690  13.467   7.096  0.00  0.00    +0.176 HD
ATOM     43  C   UNL     1      33.155  12.286   8.694  0.00  0.00    +0.177 A 
ATOM     44  S   UNL     1      31.579  12.175   9.345  0.00  0.00    -0.059 S 
ATOM     45  C   UNL     1      32.249  11.577  10.808  0.00  0.00    +0.068 A 
ATOM     46  C   UNL     1      33.626  11.581  10.716  0.00  0.00    +0.120 A 
ATOM     47  N   UNL     1      34.142  11.959   9.491  0.00  0.00    -0.232 NA
ENDBRANCH  38  41
ENDBRANCH  35  38
ENDBRANCH  30  32
ENDBRANCH  26  28
ENDBRANCH  25  26
ENDBRANCH   1  25
TORSDOF 13
