REMARK VINA RESULT:    -7.070      1.796      2.843
REMARK INTER + INTRA:         -13.436
REMARK INTER:                 -12.029
REMARK INTRA:                  -1.407
REMARK UNBOUND:                -1.407
REMARK  Name = lig_assembled_82.pdb
REMARK  14 active torsions:
REMARK  status: ('A' for Active; 'I' for Inactive)
REMARK    1  A    between atoms: _2  and  _8
REMARK    2  A    between atoms: _4  and  _15
REMARK    3  A    between atoms: _5  and  _6
REMARK    4  A    between atoms: _5  and  _17
REMARK    5  A    between atoms: _8  and  _9
REMARK    6  A    between atoms: _15  and  _16
REMARK    7  A    between atoms: _17  and  _19
REMARK    8  A    between atoms: _18  and  _23
REMARK    9  A    between atoms: _19  and  _22
REMARK   10  A    between atoms: _27  and  _37
REMARK   11  A    between atoms: _29  and  _30
REMARK   12  A    between atoms: _31  and  _33
REMARK   13  A    between atoms: _33  and  _35
REMARK   14  A    between atoms: _35  and  _37
REMARK                            x       y       z     vdW  Elec       q    Type
REMARK                         _______ _______ _______ _____ _____    ______ ____
ROOT
ATOM      1  C   UNL     1      28.190  17.254  -0.743  0.00  0.00    +0.400 C 
ATOM      2  N   UNL     1      28.922  16.203  -0.242  0.00  0.00    -0.278 N 
ATOM      3  H   UNL     1      29.147  16.512   0.756  0.00  0.00    +0.152 HD
ATOM      4  O   UNL     1      27.828  18.132   0.037  0.00  0.00    -0.226 OA
ENDROOT
BRANCH   2   5
ATOM      5  C   UNL     1      29.504  14.881  -0.453  0.00  0.00    +0.152 C 
BRANCH   5   6
ATOM      6  C   UNL     1      30.961  14.696   0.020  0.00  0.00    +0.193 C 
ATOM      7  O   UNL     1      31.724  15.779  -0.554  0.00  0.00    -0.219 OA
BRANCH   6   8
ATOM      8  C   UNL     1      31.237  14.791   1.537  0.00  0.00    +0.212 C 
ATOM      9  O   UNL     1      30.052  14.473   2.284  0.00  0.00    -0.218 OA
BRANCH   8  10
ATOM     10  C   UNL     1      32.404  13.847   2.019  0.00  0.00    +0.171 C 
ATOM     11  O   UNL     1      33.693  14.362   1.699  0.00  0.00    -0.343 OA
ATOM     12  C   UNL     1      34.879  13.629   1.788  0.00  0.00    +0.220 C 
ATOM     13  C   UNL     1      34.768  12.274   1.068  0.00  0.00    +0.076 C 
ATOM     14  C   UNL     1      33.522  11.559   1.617  0.00  0.00    +0.177 C 
ATOM     15  O   UNL     1      33.395  10.280   1.012  0.00  0.00    -0.221 OA
ATOM     16  C   UNL     1      32.251  12.431   1.374  0.00  0.00    +0.155 C 
BRANCH  16  17
ATOM     17  N   UNL     1      31.064  11.751   1.888  0.00  0.00    -0.202 NA
ATOM     18  C   UNL     1      30.048  11.153   1.217  0.00  0.00    +0.242 C 
ATOM     19  C   UNL     1      29.101  10.271   1.990  0.00  0.00    +0.096 C 
ATOM     20  O   UNL     1      29.925  11.339   0.008  0.00  0.00    -0.273 OA
ENDBRANCH  16  17
BRANCH  12  21
ATOM     21  C   UNL     1      35.418  13.454   3.311  0.00  0.00    +0.391 C 
ATOM     22  O   UNL     1      36.504  12.664   3.206  0.00  0.00    -0.243 OA
ATOM     23  O   UNL     1      34.781  14.380   4.038  0.00  0.00    -0.243 OA
ENDBRANCH  12  21
ENDBRANCH   8  10
ENDBRANCH   6   8
ENDBRANCH   5   6
ENDBRANCH   2   5
BRANCH   1  24
ATOM     24  O   UNL     1      27.976  17.230  -2.017  0.00  0.00    -0.450 OA
BRANCH  24  25
ATOM     25  C   UNL     1      26.921  17.440  -2.927  0.00  0.00    +0.240 C 
BRANCH  25  26
ATOM     26  C   UNL     1      26.667  16.348  -3.984  0.00  0.00    +0.100 C 
BRANCH  26  28
ATOM     27  N   UNL     1      24.849  14.677  -3.841  0.00  0.00    -0.134 NA
ATOM     28  C   UNL     1      26.047  15.167  -3.378  0.00  0.00    +0.086 A 
ATOM     29  C   UNL     1      26.465  14.375  -2.324  0.00  0.00    +0.134 A 
ATOM     30  N   UNL     1      25.422  13.516  -2.117  0.00  0.00    -0.247 N 
ATOM     31  N   UNL     1      24.498  13.645  -3.087  0.00  0.00    -0.065 NA
BRANCH  30  32
ATOM     32  C   UNL     1      25.192  12.617  -0.983  0.00  0.00    +0.176 C 
BRANCH  32  33
ATOM     33  C   UNL     1      23.856  11.919  -1.058  0.00  0.00    -0.049 C 
ATOM     34  C   UNL     1      22.666  12.631  -0.498  0.00  0.00    +0.023 C 
ATOM     35  C   UNL     1      21.262  12.457  -1.237  0.00  0.00    -0.025 C 
ATOM     36  C   UNL     1      20.918  12.270  -2.720  0.00  0.00    +0.012 C 
ATOM     37  C   UNL     1      21.310  11.029  -0.519  0.00  0.00    -0.000 C 
ATOM     38  C   UNL     1      22.279  10.000  -1.181  0.00  0.00    +0.031 C 
ATOM     39  C   UNL     1      20.439  13.681  -0.761  0.00  0.00    +0.012 C 
ATOM     40  C   UNL     1      22.028  11.752   0.651  0.00  0.00    +0.012 C 
ATOM     41  C   UNL     1      23.638  10.639  -1.417  0.00  0.00    -0.025 C 
ENDBRANCH  32  33
ENDBRANCH  30  32
ENDBRANCH  26  28
ENDBRANCH  25  26
ENDBRANCH  24  25
ENDBRANCH   1  24
TORSDOF 12
