REMARK VINA RESULT:    -7.033      2.326      3.870
REMARK INTER + INTRA:         -13.844
REMARK INTER:                 -12.353
REMARK INTRA:                  -1.491
REMARK UNBOUND:                -1.466
REMARK  Name = lig_assembled_78.pdb
REMARK  13 active torsions:
REMARK  status: ('A' for Active; 'I' for Inactive)
REMARK    1  A    between atoms: _2  and  _8
REMARK    2  A    between atoms: _5  and  _6
REMARK    3  A    between atoms: _5  and  _16
REMARK    4  A    between atoms: _8  and  _44
REMARK    5  A    between atoms: _9  and  _44
REMARK    6  A    between atoms: _16  and  _18
REMARK    7  A    between atoms: _17  and  _22
REMARK    8  A    between atoms: _18  and  _21
REMARK    9  A    between atoms: _26  and  _36
REMARK   10  A    between atoms: _28  and  _29
REMARK   11  A    between atoms: _30  and  _32
REMARK   12  A    between atoms: _32  and  _34
REMARK   13  A    between atoms: _34  and  _36
REMARK                            x       y       z     vdW  Elec       q    Type
REMARK                         _______ _______ _______ _____ _____    ______ ____
ROOT
ATOM      1  C   UNL     1      29.589  17.079  -0.160  0.00  0.00    +0.400 C 
ATOM      2  N   UNL     1      30.563  16.560   0.660  0.00  0.00    -0.278 N 
ATOM      3  H   UNL     1      31.035  17.429   1.064  0.00  0.00    +0.152 HD
ATOM      4  O   UNL     1      29.370  18.287  -0.107  0.00  0.00    -0.226 OA
ENDROOT
BRANCH   2   5
ATOM      5  C   UNL     1      31.216  15.382   1.224  0.00  0.00    +0.152 C 
BRANCH   5   6
ATOM      6  C   UNL     1      31.284  14.140   0.311  0.00  0.00    +0.193 C 
ATOM      7  O   UNL     1      32.136  14.489  -0.802  0.00  0.00    -0.219 OA
BRANCH   6   8
ATOM      8  C   UNL     1      31.919  12.858   0.894  0.00  0.00    +0.212 C 
ATOM      9  O   UNL     1      33.219  12.638   0.324  0.00  0.00    -0.218 OA
BRANCH   8  10
ATOM     10  C   UNL     1      32.055  12.887   2.465  0.00  0.00    +0.171 C 
ATOM     11  O   UNL     1      33.342  12.472   2.910  0.00  0.00    -0.343 OA
ATOM     12  C   UNL     1      33.657  12.172   4.238  0.00  0.00    +0.220 C 
ATOM     13  C   UNL     1      32.651  11.185   4.854  0.00  0.00    +0.076 C 
ATOM     14  C   UNL     1      31.243  11.765   4.639  0.00  0.00    +0.177 C 
ATOM     15  O   UNL     1      30.275  10.908   5.227  0.00  0.00    -0.221 OA
ATOM     16  C   UNL     1      30.972  11.965   3.115  0.00  0.00    +0.155 C 
BRANCH  16  17
ATOM     17  N   UNL     1      29.633  12.509   2.905  0.00  0.00    -0.202 NA
ATOM     18  C   UNL     1      28.602  12.019   2.170  0.00  0.00    +0.242 C 
ATOM     19  C   UNL     1      27.236  12.623   2.362  0.00  0.00    +0.096 C 
ATOM     20  O   UNL     1      28.805  11.102   1.376  0.00  0.00    -0.273 OA
ENDBRANCH  16  17
BRANCH  12  21
ATOM     21  C   UNL     1      33.850  13.489   5.170  0.00  0.00    +0.391 C 
ATOM     22  O   UNL     1      33.471  13.100   6.403  0.00  0.00    -0.243 OA
ATOM     23  O   UNL     1      34.581  14.349   4.449  0.00  0.00    -0.243 OA
ENDBRANCH  12  21
ENDBRANCH   8  10
ENDBRANCH   6   8
ENDBRANCH   5   6
ENDBRANCH   2   5
BRANCH   1  24
ATOM     24  O   UNL     1      29.008  16.232  -0.945  0.00  0.00    -0.450 OA
BRANCH  24  25
ATOM     25  C   UNL     1      27.722  15.946  -1.444  0.00  0.00    +0.240 C 
BRANCH  25  26
ATOM     26  C   UNL     1      27.115  16.935  -2.457  0.00  0.00    +0.100 C 
BRANCH  26  28
ATOM     27  N   UNL     1      26.542  15.964  -4.664  0.00  0.00    -0.134 NA
ATOM     28  C   UNL     1      26.191  16.235  -3.368  0.00  0.00    +0.086 A 
ATOM     29  C   UNL     1      24.922  15.752  -3.137  0.00  0.00    +0.135 A 
ATOM     30  N   UNL     1      24.581  15.150  -4.310  0.00  0.00    -0.230 N 
ATOM     31  N   UNL     1      25.538  15.318  -5.239  0.00  0.00    -0.064 NA
BRANCH  30  32
ATOM     32  C   UNL     1      23.354  14.473  -4.652  0.00  0.00    +0.316 C 
BRANCH  32  33
ATOM     33  S   UNL     1      23.274  12.804  -4.061  0.00  0.00    +0.017 S 
ATOM     34  O   UNL     1      22.499  11.991  -4.978  0.00  0.00    -0.168 OA
ATOM     35  O   UNL     1      24.614  12.405  -3.662  0.00  0.00    -0.168 OA
BRANCH  33  36
ATOM     36  C   UNL     1      22.302  12.916  -2.573  0.00  0.00    +0.090 A 
ATOM     37  C   UNL     1      21.274  13.861  -2.499  0.00  0.00    +0.027 A 
ATOM     38  C   UNL     1      20.494  13.935  -1.345  0.00  0.00    +0.002 A 
ATOM     39  C   UNL     1      20.730  13.058  -0.285  0.00  0.00    +0.000 A 
ATOM     40  C   UNL     1      21.744  12.104  -0.373  0.00  0.00    +0.002 A 
ATOM     41  C   UNL     1      22.536  12.030  -1.519  0.00  0.00    +0.027 A 
ENDBRANCH  33  36
ENDBRANCH  32  33
ENDBRANCH  30  32
ENDBRANCH  26  28
ENDBRANCH  25  26
ENDBRANCH  24  25
ENDBRANCH   1  24
TORSDOF 13
