REMARK VINA RESULT:    -7.140      2.645      4.000
REMARK INTER + INTRA:         -14.033
REMARK INTER:                 -11.892
REMARK INTRA:                  -2.141
REMARK UNBOUND:                -1.466
REMARK  Name = lig_assembled_78.pdb
REMARK  13 active torsions:
REMARK  status: ('A' for Active; 'I' for Inactive)
REMARK    1  A    between atoms: _2  and  _8
REMARK    2  A    between atoms: _5  and  _6
REMARK    3  A    between atoms: _5  and  _16
REMARK    4  A    between atoms: _8  and  _44
REMARK    5  A    between atoms: _9  and  _44
REMARK    6  A    between atoms: _16  and  _18
REMARK    7  A    between atoms: _17  and  _22
REMARK    8  A    between atoms: _18  and  _21
REMARK    9  A    between atoms: _26  and  _36
REMARK   10  A    between atoms: _28  and  _29
REMARK   11  A    between atoms: _30  and  _32
REMARK   12  A    between atoms: _32  and  _34
REMARK   13  A    between atoms: _34  and  _36
REMARK                            x       y       z     vdW  Elec       q    Type
REMARK                         _______ _______ _______ _____ _____    ______ ____
ROOT
ATOM      1  C   UNL     1      30.004  16.871   0.161  0.00  0.00    +0.400 C 
ATOM      2  N   UNL     1      30.792  16.223   1.083  0.00  0.00    -0.278 N 
ATOM      3  H   UNL     1      31.286  17.022   1.592  0.00  0.00    +0.152 HD
ATOM      4  O   UNL     1      29.901  18.092   0.243  0.00  0.00    -0.226 OA
ENDROOT
BRANCH   2   5
ATOM      5  C   UNL     1      31.236  14.963   1.673  0.00  0.00    +0.152 C 
BRANCH   5   6
ATOM      6  C   UNL     1      32.044  14.027   0.751  0.00  0.00    +0.193 C 
ATOM      7  O   UNL     1      32.815  13.160   1.611  0.00  0.00    -0.219 OA
BRANCH   6   8
ATOM      8  C   UNL     1      31.252  13.062  -0.159  0.00  0.00    +0.212 C 
ATOM      9  O   UNL     1      31.948  11.812  -0.292  0.00  0.00    -0.218 OA
BRANCH   8  10
ATOM     10  C   UNL     1      29.791  12.772   0.359  0.00  0.00    +0.171 C 
ATOM     11  O   UNL     1      29.770  12.300   1.702  0.00  0.00    -0.343 OA
ATOM     12  C   UNL     1      28.651  11.742   2.324  0.00  0.00    +0.220 C 
ATOM     13  C   UNL     1      28.019  10.630   1.468  0.00  0.00    +0.076 C 
ATOM     14  C   UNL     1      27.758  11.214   0.070  0.00  0.00    +0.177 C 
ATOM     15  O   UNL     1      27.136  10.237  -0.752  0.00  0.00    -0.221 OA
ATOM     16  C   UNL     1      29.095  11.716  -0.560  0.00  0.00    +0.155 C 
BRANCH  16  17
ATOM     17  N   UNL     1      28.853  12.265  -1.892  0.00  0.00    -0.202 NA
ATOM     18  C   UNL     1      29.260  11.811  -3.105  0.00  0.00    +0.242 C 
ATOM     19  C   UNL     1      28.625  12.399  -4.338  0.00  0.00    +0.096 C 
ATOM     20  O   UNL     1      30.125  10.940  -3.168  0.00  0.00    -0.273 OA
ENDBRANCH  16  17
BRANCH  12  21
ATOM     21  C   UNL     1      27.548  12.843   2.781  0.00  0.00    +0.391 C 
ATOM     22  O   UNL     1      26.426  12.136   3.013  0.00  0.00    -0.243 OA
ATOM     23  O   UNL     1      28.232  13.964   3.043  0.00  0.00    -0.243 OA
ENDBRANCH  12  21
ENDBRANCH   8  10
ENDBRANCH   6   8
ENDBRANCH   5   6
ENDBRANCH   2   5
BRANCH   1  24
ATOM     24  O   UNL     1      29.461  16.118  -0.739  0.00  0.00    -0.450 OA
BRANCH  24  25
ATOM     25  C   UNL     1      28.179  15.759  -1.200  0.00  0.00    +0.240 C 
BRANCH  25  26
ATOM     26  C   UNL     1      27.411  16.795  -2.044  0.00  0.00    +0.100 C 
BRANCH  26  28
ATOM     27  N   UNL     1      26.457  16.363  -4.290  0.00  0.00    -0.134 NA
ATOM     28  C   UNL     1      26.457  16.119  -2.942  0.00  0.00    +0.086 A 
ATOM     29  C   UNL     1      25.475  15.197  -2.653  0.00  0.00    +0.135 A 
ATOM     30  N   UNL     1      24.956  14.878  -3.871  0.00  0.00    -0.230 N 
ATOM     31  N   UNL     1      25.516  15.614  -4.847  0.00  0.00    -0.064 NA
BRANCH  30  32
ATOM     32  C   UNL     1      23.888  13.960  -4.183  0.00  0.00    +0.316 C 
BRANCH  32  33
ATOM     33  S   UNL     1      22.275  14.587  -3.796  0.00  0.00    +0.017 S 
ATOM     34  O   UNL     1      22.362  15.992  -3.445  0.00  0.00    -0.168 OA
ATOM     35  O   UNL     1      21.359  14.134  -4.829  0.00  0.00    -0.168 OA
BRANCH  33  36
ATOM     36  C   UNL     1      21.828  13.739  -2.296  0.00  0.00    +0.090 A 
ATOM     37  C   UNL     1      22.663  12.730  -1.806  0.00  0.00    +0.027 A 
ATOM     38  C   UNL     1      22.329  12.081  -0.618  0.00  0.00    +0.002 A 
ATOM     39  C   UNL     1      21.180  12.452   0.082  0.00  0.00    +0.000 A 
ATOM     40  C   UNL     1      20.361  13.473  -0.401  0.00  0.00    +0.002 A 
ATOM     41  C   UNL     1      20.682  14.121  -1.594  0.00  0.00    +0.027 A 
ENDBRANCH  33  36
ENDBRANCH  32  33
ENDBRANCH  30  32
ENDBRANCH  26  28
ENDBRANCH  25  26
ENDBRANCH  24  25
ENDBRANCH   1  24
TORSDOF 13
