REMARK VINA RESULT:    -7.629      2.149      3.205
REMARK INTER + INTRA:         -15.920
REMARK INTER:                 -12.577
REMARK INTRA:                  -3.344
REMARK UNBOUND:                -2.494
REMARK  Name = lig_assembled_79.pdb
REMARK  15 active torsions:
REMARK  status: ('A' for Active; 'I' for Inactive)
REMARK    1  A    between atoms: _2  and  _9
REMARK    2  A    between atoms: _6  and  _7
REMARK    3  A    between atoms: _6  and  _21
REMARK    4  A    between atoms: _9  and  _10
REMARK    5  A    between atoms: _9  and  _11
REMARK    6  A    between atoms: _9  and  _12
REMARK    7  A    between atoms: _12  and  _13
REMARK    8  A    between atoms: _21  and  _23
REMARK    9  A    between atoms: _22  and  _27
REMARK   10  A    between atoms: _23  and  _26
REMARK   11  A    between atoms: _31  and  _41
REMARK   12  A    between atoms: _33  and  _34
REMARK   13  A    between atoms: _35  and  _37
REMARK   14  A    between atoms: _37  and  _39
REMARK   15  A    between atoms: _39  and  _41
REMARK                            x       y       z     vdW  Elec       q    Type
REMARK                         _______ _______ _______ _____ _____    ______ ____
ROOT
ATOM      1  O   UNL     1      28.302  16.991  -1.624  0.00  0.00    -0.450 OA
ENDROOT
BRANCH   1   2
ATOM      2  C   UNL     1      28.344  17.656  -0.516  0.00  0.00    +0.400 C 
ATOM      3  N   UNL     1      29.465  17.458   0.255  0.00  0.00    -0.278 N 
ATOM      4  H   UNL     1      29.394  18.224   0.997  0.00  0.00    +0.152 HD
ATOM      5  O   UNL     1      27.500  18.454  -0.116  0.00  0.00    -0.226 OA
BRANCH   3   6
ATOM      6  C   UNL     1      30.673  16.680   0.518  0.00  0.00    +0.152 C 
BRANCH   6   7
ATOM      7  C   UNL     1      30.667  15.223   0.011  0.00  0.00    +0.193 C 
ATOM      8  O   UNL     1      32.022  14.736   0.131  0.00  0.00    -0.219 OA
BRANCH   7   9
ATOM      9  C   UNL     1      29.817  14.197   0.793  0.00  0.00    +0.212 C 
ATOM     10  O   UNL     1      28.431  14.575   0.774  0.00  0.00    -0.218 OA
BRANCH   9  11
ATOM     11  C   UNL     1      29.946  12.727   0.238  0.00  0.00    +0.171 C 
ATOM     12  O   UNL     1      29.728  12.651  -1.167  0.00  0.00    -0.343 OA
ATOM     13  C   UNL     1      29.542  11.460  -1.873  0.00  0.00    +0.220 C 
ATOM     14  C   UNL     1      28.465  10.574  -1.223  0.00  0.00    +0.076 C 
ATOM     15  C   UNL     1      28.842  10.398   0.257  0.00  0.00    +0.177 C 
ATOM     16  O   UNL     1      27.897   9.552   0.897  0.00  0.00    -0.221 OA
ATOM     17  C   UNL     1      28.925  11.789   0.960  0.00  0.00    +0.155 C 
BRANCH  17  18
ATOM     18  N   UNL     1      29.276  11.625   2.368  0.00  0.00    -0.202 NA
ATOM     19  C   UNL     1      28.562  11.930   3.482  0.00  0.00    +0.242 C 
ATOM     20  C   UNL     1      29.035  11.388   4.806  0.00  0.00    +0.096 C 
ATOM     21  O   UNL     1      27.558  12.632   3.386  0.00  0.00    -0.273 OA
ENDBRANCH  17  18
BRANCH  13  22
ATOM     22  C   UNL     1      30.920  10.636  -2.126  0.00  0.00    +0.391 C 
ATOM     23  O   UNL     1      30.524   9.407  -2.510  0.00  0.00    -0.243 OA
ATOM     24  O   UNL     1      31.897  11.550  -2.152  0.00  0.00    -0.243 OA
ENDBRANCH  13  22
ENDBRANCH   9  11
ENDBRANCH   7   9
ENDBRANCH   6   7
ENDBRANCH   3   6
ENDBRANCH   1   2
BRANCH   1  25
ATOM     25  C   UNL     1      27.405  16.188  -2.354  0.00  0.00    +0.240 C 
BRANCH  25  26
ATOM     26  C   UNL     1      26.561  16.877  -3.444  0.00  0.00    +0.100 C 
BRANCH  26  28
ATOM     27  N   UNL     1      25.521  15.346  -5.074  0.00  0.00    -0.134 NA
ATOM     28  C   UNL     1      25.465  15.989  -3.873  0.00  0.00    +0.086 A 
ATOM     29  C   UNL     1      24.287  15.663  -3.239  0.00  0.00    +0.134 A 
ATOM     30  N   UNL     1      23.699  14.741  -4.060  0.00  0.00    -0.238 N 
ATOM     31  N   UNL     1      24.419  14.623  -5.204  0.00  0.00    -0.065 NA
BRANCH  30  32
ATOM     32  C   UNL     1      22.375  14.060  -3.974  0.00  0.00    +0.122 C 
ATOM     33  C   UNL     1      22.638  12.555  -4.219  0.00  0.00    +0.044 C 
ATOM     34  C   UNL     1      21.504  14.745  -5.045  0.00  0.00    +0.044 C 
BRANCH  32  35
ATOM     35  C   UNL     1      21.705  14.190  -2.590  0.00  0.00    +0.192 C 
ATOM     36  O   UNL     1      20.935  15.127  -2.357  0.00  0.00    -0.289 OA
BRANCH  35  37
ATOM     37  C   UNL     1      21.961  13.229  -1.479  0.00  0.00    +0.045 A 
ATOM     38  C   UNL     1      20.893  12.588  -0.858  0.00  0.00    +0.095 A 
ATOM     39  N   UNL     1      21.357  11.784   0.138  0.00  0.00    -0.360 N 
ATOM     40  H   UNL     1      20.782  11.218   0.747  0.00  0.00    +0.165 HD
ATOM     41  C   UNL     1      22.723  11.863   0.207  0.00  0.00    +0.047 A 
ATOM     42  C   UNL     1      23.598  11.211   1.089  0.00  0.00    +0.026 A 
ATOM     43  C   UNL     1      24.965  11.458   0.966  0.00  0.00    +0.002 A 
ATOM     44  C   UNL     1      25.437  12.324  -0.007  0.00  0.00    +0.001 A 
ATOM     45  C   UNL     1      24.548  12.964  -0.879  0.00  0.00    +0.011 A 
ATOM     46  C   UNL     1      23.148  12.749  -0.792  0.00  0.00    +0.010 A 
ENDBRANCH  35  37
ENDBRANCH  32  35
ENDBRANCH  30  32
ENDBRANCH  26  28
ENDBRANCH  25  26
ENDBRANCH   1  25
TORSDOF 13
