REMARK VINA RESULT:    -7.770      3.768      8.381
REMARK INTER + INTRA:         -14.530
REMARK INTER:                 -10.993
REMARK INTRA:                  -3.537
REMARK UNBOUND:                -1.762
REMARK  Name = lig_assembled_25.pdb
REMARK  11 active torsions:
REMARK  status: ('A' for Active; 'I' for Inactive)
REMARK    1  A    between atoms: _2  and  _8
REMARK    2  A    between atoms: _5  and  _6
REMARK    3  A    between atoms: _5  and  _20
REMARK    4  A    between atoms: _20  and  _22
REMARK    5  A    between atoms: _21  and  _26
REMARK    6  A    between atoms: _22  and  _25
REMARK    7  A    between atoms: _30  and  _40
REMARK    8  A    between atoms: _32  and  _33
REMARK    9  A    between atoms: _34  and  _36
REMARK   10  A    between atoms: _36  and  _38
REMARK   11  A    between atoms: _38  and  _40
REMARK                            x       y       z     vdW  Elec       q    Type
REMARK                         _______ _______ _______ _____ _____    ______ ____
ROOT
ATOM      1  C   UNL     1      25.495  15.877  -4.202  0.00  0.00    +0.400 C 
ATOM      2  N   UNL     1      24.173  15.550  -4.016  0.00  0.00    -0.278 N 
ATOM      3  H   UNL     1      23.879  15.157  -4.966  0.00  0.00    +0.152 HD
ATOM      4  O   UNL     1      26.043  15.510  -5.239  0.00  0.00    -0.226 OA
ENDROOT
BRANCH   1   5
ATOM      5  O   UNL     1      26.035  16.581  -3.261  0.00  0.00    -0.450 OA
BRANCH   5   6
ATOM      6  C   UNL     1      27.214  17.310  -3.016  0.00  0.00    +0.240 C 
BRANCH   6   7
ATOM      7  C   UNL     1      27.443  17.831  -1.584  0.00  0.00    +0.100 C 
BRANCH   7   9
ATOM      8  N   UNL     1      29.696  17.443  -0.650  0.00  0.00    -0.134 NA
ATOM      9  C   UNL     1      28.426  16.987  -0.880  0.00  0.00    +0.086 A 
ATOM     10  C   UNL     1      28.308  15.709  -0.381  0.00  0.00    +0.134 A 
ATOM     11  N   UNL     1      29.547  15.432   0.127  0.00  0.00    -0.240 N 
ATOM     12  N   UNL     1      30.375  16.489  -0.031  0.00  0.00    -0.065 NA
BRANCH  11  13
ATOM     13  C   UNL     1      30.070  14.200   0.692  0.00  0.00    +0.170 C 
ATOM     14  C   UNL     1      30.440  13.180  -0.377  0.00  0.00    -0.011 A 
ATOM     15  C   UNL     1      29.759  11.966  -0.141  0.00  0.00    -0.012 A 
ATOM     16  C   UNL     1      28.921  12.116   1.033  0.00  0.00    -0.012 A 
ATOM     17  C   UNL     1      28.102  11.201   1.672  0.00  0.00    +0.009 A 
ATOM     18  C   UNL     1      27.421  11.609   2.822  0.00  0.00    +0.001 A 
ATOM     19  C   UNL     1      27.560  12.916   3.317  0.00  0.00    +0.000 A 
ATOM     20  C   UNL     1      28.385  13.842   2.674  0.00  0.00    +0.006 A 
ATOM     21  C   UNL     1      29.955  10.877  -0.974  0.00  0.00    +0.009 A 
ATOM     22  C   UNL     1      30.843  11.012  -2.046  0.00  0.00    +0.001 A 
ATOM     23  C   UNL     1      31.521  12.221  -2.275  0.00  0.00    +0.000 A 
ATOM     24  C   UNL     1      31.327  13.318  -1.435  0.00  0.00    +0.006 A 
ATOM     25  C   UNL     1      29.058  13.432   1.532  0.00  0.00    -0.011 A 
ENDBRANCH  11  13
ENDBRANCH   7   9
ENDBRANCH   6   7
ENDBRANCH   5   6
ENDBRANCH   1   5
BRANCH   2  26
ATOM     26  C   UNL     1      23.021  15.485  -3.121  0.00  0.00    +0.152 C 
BRANCH  26  27
ATOM     27  C   UNL     1      23.077  14.409  -2.018  0.00  0.00    +0.193 C 
ATOM     28  O   UNL     1      21.770  14.376  -1.403  0.00  0.00    -0.219 OA
BRANCH  27  29
ATOM     29  C   UNL     1      23.333  12.950  -2.455  0.00  0.00    +0.212 C 
ATOM     30  O   UNL     1      22.794  12.716  -3.766  0.00  0.00    -0.218 OA
BRANCH  29  31
ATOM     31  C   UNL     1      24.860  12.559  -2.461  0.00  0.00    +0.171 C 
ATOM     32  O   UNL     1      25.376  12.388  -3.777  0.00  0.00    -0.343 OA
ATOM     33  C   UNL     1      26.615  11.812  -4.069  0.00  0.00    +0.220 C 
ATOM     34  C   UNL     1      26.798  10.460  -3.357  0.00  0.00    +0.076 C 
ATOM     35  C   UNL     1      26.525  10.685  -1.861  0.00  0.00    +0.177 C 
ATOM     36  O   UNL     1      26.720   9.471  -1.148  0.00  0.00    -0.221 OA
ATOM     37  C   UNL     1      25.080  11.237  -1.655  0.00  0.00    +0.155 C 
BRANCH  37  38
ATOM     38  N   UNL     1      24.815  11.446  -0.234  0.00  0.00    -0.202 NA
ATOM     39  C   UNL     1      23.843  10.919   0.554  0.00  0.00    +0.242 C 
ATOM     40  C   UNL     1      23.973  11.068   2.047  0.00  0.00    +0.096 C 
ATOM     41  O   UNL     1      22.890  10.338   0.037  0.00  0.00    -0.273 OA
ENDBRANCH  37  38
BRANCH  33  42
ATOM     42  C   UNL     1      27.871  12.805  -3.795  0.00  0.00    +0.391 C 
ATOM     43  O   UNL     1      27.514  13.528  -2.716  0.00  0.00    -0.243 OA
ATOM     44  O   UNL     1      28.883  12.334  -4.534  0.00  0.00    -0.243 OA
ENDBRANCH  33  42
ENDBRANCH  29  31
ENDBRANCH  27  29
ENDBRANCH  26  27
ENDBRANCH   2  26
TORSDOF 11
