REMARK VINA RESULT:    -7.087      4.848     10.684
REMARK INTER + INTRA:         -15.232
REMARK INTER:                 -12.738
REMARK INTRA:                  -2.494
REMARK UNBOUND:                -2.551
REMARK  Name = lig_assembled_64.pdb
REMARK  14 active torsions:
REMARK  status: ('A' for Active; 'I' for Inactive)
REMARK    1  A    between atoms: _2  and  _9
REMARK    2  A    between atoms: _6  and  _7
REMARK    3  A    between atoms: _6  and  _22
REMARK    4  A    between atoms: _11  and  _12
REMARK    5  A    between atoms: _12  and  _20
REMARK    6  A    between atoms: _13  and  _14
REMARK    7  A    between atoms: _22  and  _24
REMARK    8  A    between atoms: _23  and  _28
REMARK    9  A    between atoms: _24  and  _27
REMARK   10  A    between atoms: _32  and  _42
REMARK   11  A    between atoms: _34  and  _35
REMARK   12  A    between atoms: _36  and  _38
REMARK   13  A    between atoms: _38  and  _40
REMARK   14  A    between atoms: _40  and  _42
REMARK                            x       y       z     vdW  Elec       q    Type
REMARK                         _______ _______ _______ _____ _____    ______ ____
ROOT
ATOM      1  O   UNL     1      33.569  12.715   1.811  0.00  0.00    -0.450 OA
ENDROOT
BRANCH   1   2
ATOM      2  C   UNL     1      32.404  12.160   1.738  0.00  0.00    +0.400 C 
ATOM      3  N   UNL     1      31.578  12.637   0.748  0.00  0.00    -0.278 N 
ATOM      4  H   UNL     1      30.775  11.931   0.734  0.00  0.00    +0.152 HD
ATOM      5  O   UNL     1      31.992  11.242   2.444  0.00  0.00    -0.226 OA
BRANCH   3   6
ATOM      6  C   UNL     1      31.305  13.658  -0.260  0.00  0.00    +0.152 C 
BRANCH   6   7
ATOM      7  C   UNL     1      30.725  14.989   0.262  0.00  0.00    +0.193 C 
ATOM      8  O   UNL     1      31.355  16.043  -0.499  0.00  0.00    -0.219 OA
BRANCH   7   9
ATOM      9  C   UNL     1      29.211  15.231   0.074  0.00  0.00    +0.212 C 
ATOM     10  O   UNL     1      28.985  16.283  -0.878  0.00  0.00    -0.218 OA
BRANCH   9  11
ATOM     11  C   UNL     1      28.427  13.948  -0.397  0.00  0.00    +0.171 C 
ATOM     12  O   UNL     1      27.576  14.204  -1.510  0.00  0.00    -0.343 OA
ATOM     13  C   UNL     1      26.597  13.321  -1.973  0.00  0.00    +0.220 C 
ATOM     14  C   UNL     1      25.681  12.838  -0.835  0.00  0.00    +0.076 C 
ATOM     15  C   UNL     1      26.582  12.279   0.279  0.00  0.00    +0.177 C 
ATOM     16  O   UNL     1      25.781  11.781   1.341  0.00  0.00    -0.221 OA
ATOM     17  C   UNL     1      27.565  13.382   0.779  0.00  0.00    +0.155 C 
BRANCH  17  18
ATOM     18  N   UNL     1      28.418  12.857   1.842  0.00  0.00    -0.202 NA
ATOM     19  C   UNL     1      28.291  12.964   3.189  0.00  0.00    +0.242 C 
ATOM     20  C   UNL     1      29.145  12.080   4.060  0.00  0.00    +0.096 C 
ATOM     21  O   UNL     1      27.491  13.768   3.662  0.00  0.00    -0.273 OA
ENDBRANCH  17  18
BRANCH  13  22
ATOM     22  C   UNL     1      27.199  12.076  -2.825  0.00  0.00    +0.391 C 
ATOM     23  O   UNL     1      26.198  11.175  -2.877  0.00  0.00    -0.243 OA
ATOM     24  O   UNL     1      28.321  12.528  -3.398  0.00  0.00    -0.243 OA
ENDBRANCH  13  22
ENDBRANCH   9  11
ENDBRANCH   7   9
ENDBRANCH   6   7
ENDBRANCH   3   6
ENDBRANCH   1   2
BRANCH   1  25
ATOM     25  C   UNL     1      34.139  13.966   2.118  0.00  0.00    +0.240 C 
BRANCH  25  26
ATOM     26  C   UNL     1      35.204  14.008   3.230  0.00  0.00    +0.100 C 
BRANCH  26  28
ATOM     27  N   UNL     1      35.378  11.902   4.530  0.00  0.00    -0.134 NA
ATOM     28  C   UNL     1      34.815  13.132   4.352  0.00  0.00    +0.086 A 
ATOM     29  C   UNL     1      33.897  13.353   5.351  0.00  0.00    +0.139 A 
ATOM     30  N   UNL     1      33.927  12.215   6.122  0.00  0.00    -0.220 N 
ATOM     31  N   UNL     1      34.835  11.350   5.609  0.00  0.00    -0.061 NA
BRANCH  30  32
ATOM     32  C   UNL     1      33.170  11.914   7.279  0.00  0.00    +0.071 A 
ATOM     33  C   UNL     1      31.787  12.057   7.269  0.00  0.00    +0.063 A 
ATOM     34  CA  UNL     1      31.107  11.748   8.431  0.00  0.00    +0.150 A 
ATOM     35  N   UNL     1      31.691  11.321   9.586  0.00  0.00    -0.240 NA
ATOM     36  C   UNL     1      33.047  11.196   9.591  0.00  0.00    +0.074 A 
ATOM     37  C   UNL     1      33.806  11.474   8.450  0.00  0.00    +0.056 A 
BRANCH  36  38
ATOM     38  C   UNL     1      33.646  10.778  10.881  0.00  0.00    +0.000 A 
ATOM     39  C   UNL     1      33.013  11.026  12.115  0.00  0.00    +0.010 A 
ATOM     40  C   UNL     1      33.570  10.595  13.325  0.00  0.00    +0.001 A 
ATOM     41  C   UNL     1      34.777   9.903  13.331  0.00  0.00    +0.000 A 
ATOM     42  C   UNL     1      35.429   9.650  12.130  0.00  0.00    +0.001 A 
ATOM     43  C   UNL     1      34.871  10.084  10.922  0.00  0.00    +0.010 A 
ENDBRANCH  36  38
BRANCH  34  44
ATOM     44  C   UNL     1      29.622  11.887   8.467  0.00  0.00    +0.355 C 
ATOM     45  OXT UNL     1      28.846  11.164   7.867  0.00  0.00    -0.243 OA
BRANCH  44  46
ATOM     46  O   UNL     1      29.257  12.926   9.253  0.00  0.00    -0.476 OA
ATOM     47  H   UNL     1      29.823  12.931  10.059  0.00  0.00    +0.295 HD
ENDBRANCH  44  46
ENDBRANCH  34  44
ENDBRANCH  30  32
ENDBRANCH  26  28
ENDBRANCH  25  26
ENDBRANCH   1  25
TORSDOF 14
