REMARK VINA RESULT:    -6.886      2.607      4.558
REMARK INTER + INTRA:         -12.632
REMARK INTER:                 -10.375
REMARK INTRA:                  -2.257
REMARK UNBOUND:                -1.318
REMARK  Name = lig_assembled_40.pdb
REMARK  12 active torsions:
REMARK  status: ('A' for Active; 'I' for Inactive)
REMARK    1  A    between atoms: _2  and  _8
REMARK    2  A    between atoms: _5  and  _6
REMARK    3  A    between atoms: _5  and  _14
REMARK    4  A    between atoms: _11  and  _12
REMARK    5  A    between atoms: _14  and  _16
REMARK    6  A    between atoms: _15  and  _20
REMARK    7  A    between atoms: _16  and  _19
REMARK    8  A    between atoms: _24  and  _34
REMARK    9  A    between atoms: _26  and  _27
REMARK   10  A    between atoms: _28  and  _30
REMARK   11  A    between atoms: _30  and  _32
REMARK   12  A    between atoms: _32  and  _34
REMARK                            x       y       z     vdW  Elec       q    Type
REMARK                         _______ _______ _______ _____ _____    ______ ____
ROOT
ATOM      1  C   UNL     1      27.978  17.123  -0.914  0.00  0.00    +0.400 C 
ATOM      2  N   UNL     1      28.254  15.894  -0.364  0.00  0.00    -0.278 N 
ATOM      3  H   UNL     1      28.524  16.128   0.643  0.00  0.00    +0.152 HD
ATOM      4  O   UNL     1      27.918  18.094  -0.163  0.00  0.00    -0.226 OA
ENDROOT
BRANCH   1   5
ATOM      5  O   UNL     1      27.834  17.143  -2.199  0.00  0.00    -0.450 OA
BRANCH   5   6
ATOM      6  C   UNL     1      26.898  17.564  -3.163  0.00  0.00    +0.240 C 
BRANCH   6   7
ATOM      7  C   UNL     1      26.444  16.530  -4.212  0.00  0.00    +0.100 C 
BRANCH   7   9
ATOM      8  N   UNL     1      26.627  14.109  -3.734  0.00  0.00    -0.134 NA
ATOM      9  C   UNL     1      25.981  15.296  -3.550  0.00  0.00    +0.086 A 
ATOM     10  C   UNL     1      24.926  15.105  -2.691  0.00  0.00    +0.139 A 
ATOM     11  N   UNL     1      24.984  13.775  -2.344  0.00  0.00    -0.220 N 
ATOM     12  N   UNL     1      26.011  13.187  -3.006  0.00  0.00    -0.061 NA
BRANCH  11  13
ATOM     13  C   UNL     1      24.172  13.065  -1.421  0.00  0.00    +0.067 A 
ATOM     14  C   UNL     1      22.775  13.150  -1.480  0.00  0.00    +0.028 A 
ATOM     15  C   UNL     1      21.991  12.502  -0.521  0.00  0.00    +0.005 A 
ATOM     16  C   UNL     1      22.587  11.763   0.506  0.00  0.00    -0.050 A 
ATOM     17  C   UNL     1      23.982  11.649   0.542  0.00  0.00    +0.005 A 
ATOM     18  C   UNL     1      21.751  11.105   1.563  0.00  0.00    +0.044 C 
ATOM     19  C   UNL     1      24.772  12.295  -0.414  0.00  0.00    +0.028 A 
ENDBRANCH  11  13
ENDBRANCH   7   9
ENDBRANCH   6   7
ENDBRANCH   5   6
ENDBRANCH   1   5
BRANCH   2  20
ATOM     20  C   UNL     1      28.329  14.445  -0.531  0.00  0.00    +0.152 C 
BRANCH  20  21
ATOM     21  C   UNL     1      29.470  13.732   0.223  0.00  0.00    +0.193 C 
ATOM     22  O   UNL     1      30.595  14.638   0.226  0.00  0.00    -0.219 OA
BRANCH  21  23
ATOM     23  C   UNL     1      29.242  13.395   1.713  0.00  0.00    +0.212 C 
ATOM     24  O   UNL     1      28.174  14.193   2.250  0.00  0.00    -0.218 OA
BRANCH  23  25
ATOM     25  C   UNL     1      28.911  11.875   1.966  0.00  0.00    +0.171 C 
ATOM     26  O   UNL     1      27.518  11.594   1.877  0.00  0.00    -0.343 OA
ATOM     27  C   UNL     1      26.927  10.398   2.290  0.00  0.00    +0.220 C 
ATOM     28  C   UNL     1      27.350  10.017   3.719  0.00  0.00    +0.076 C 
ATOM     29  C   UNL     1      28.887  10.029   3.766  0.00  0.00    +0.177 C 
ATOM     30  O   UNL     1      29.333   9.643   5.058  0.00  0.00    -0.221 OA
ATOM     31  C   UNL     1      29.425  11.441   3.378  0.00  0.00    +0.155 C 
BRANCH  31  32
ATOM     32  N   UNL     1      30.885  11.459   3.428  0.00  0.00    -0.202 NA
ATOM     33  C   UNL     1      31.714  11.818   4.440  0.00  0.00    +0.242 C 
ATOM     34  C   UNL     1      33.174  11.461   4.329  0.00  0.00    +0.096 C 
ATOM     35  O   UNL     1      31.262  12.417   5.413  0.00  0.00    -0.273 OA
ENDBRANCH  31  32
BRANCH  27  36
ATOM     36  C   UNL     1      27.156   9.170   1.252  0.00  0.00    +0.391 C 
ATOM     37  O   UNL     1      26.544   8.114   1.822  0.00  0.00    -0.243 OA
ATOM     38  O   UNL     1      27.588   9.725   0.113  0.00  0.00    -0.243 OA
ENDBRANCH  27  36
ENDBRANCH  23  25
ENDBRANCH  21  23
ENDBRANCH  20  21
ENDBRANCH   2  20
TORSDOF 11
