REMARK VINA RESULT:    -5.907      2.941      9.053
REMARK INTER + INTRA:         -12.895
REMARK INTER:                 -10.888
REMARK INTRA:                  -2.007
REMARK UNBOUND:                -1.808
REMARK  Name = lig_assembled_43.pdb
REMARK  15 active torsions:
REMARK  status: ('A' for Active; 'I' for Inactive)
REMARK    1  A    between atoms: _2  and  _8
REMARK    2  A    between atoms: _5  and  _6
REMARK    3  A    between atoms: _5  and  _13
REMARK    4  A    between atoms: _8  and  _9
REMARK    5  A    between atoms: _9  and  _10
REMARK    6  A    between atoms: _10  and  _11
REMARK    7  A    between atoms: _11  and  _12
REMARK    8  A    between atoms: _13  and  _15
REMARK    9  A    between atoms: _14  and  _19
REMARK   10  A    between atoms: _15  and  _18
REMARK   11  A    between atoms: _23  and  _33
REMARK   12  A    between atoms: _25  and  _26
REMARK   13  A    between atoms: _27  and  _29
REMARK   14  A    between atoms: _29  and  _31
REMARK   15  A    between atoms: _31  and  _33
REMARK                            x       y       z     vdW  Elec       q    Type
REMARK                         _______ _______ _______ _____ _____    ______ ____
ROOT
ATOM      1  C   UNL     1      28.044  14.354  -0.339  0.00  0.00    +0.152 C 
ENDROOT
BRANCH   1   3
ATOM      2  C   UNL     1      28.652  17.007  -0.538  0.00  0.00    +0.400 C 
ATOM      3  N   UNL     1      27.987  15.813  -0.388  0.00  0.00    -0.278 N 
ATOM      4  H   UNL     1      26.968  16.111  -0.262  0.00  0.00    +0.152 HD
ATOM      5  O   UNL     1      27.984  18.029  -0.674  0.00  0.00    -0.226 OA
BRANCH   2   6
ATOM      6  O   UNL     1      29.942  16.939  -0.489  0.00  0.00    -0.450 OA
BRANCH   6   7
ATOM      7  C   UNL     1      30.955  16.462   0.365  0.00  0.00    +0.240 C 
BRANCH   7   8
ATOM      8  C   UNL     1      31.620  15.122   0.001  0.00  0.00    +0.100 C 
BRANCH   8  10
ATOM      9  N   UNL     1      32.839  13.501   1.421  0.00  0.00    -0.134 NA
ATOM     10  C   UNL     1      31.720  14.258   1.192  0.00  0.00    +0.086 A 
ATOM     11  C   UNL     1      30.817  14.044   2.208  0.00  0.00    +0.133 A 
ATOM     12  N   UNL     1      31.442  13.145   3.018  0.00  0.00    -0.251 N 
ATOM     13  N   UNL     1      32.657  12.821   2.546  0.00  0.00    -0.065 NA
BRANCH  12  14
ATOM     14  C   UNL     1      30.937  12.533   4.228  0.00  0.00    +0.145 C 
BRANCH  14  15
ATOM     15  C   UNL     1      32.038  11.792   4.980  0.00  0.00    +0.024 C 
BRANCH  15  16
ATOM     16  C   UNL     1      32.343  12.434   6.334  0.00  0.00    +0.006 C 
BRANCH  16  17
ATOM     17  C   UNL     1      31.233  12.119   7.339  0.00  0.00    +0.026 C 
BRANCH  17  18
ATOM     18  C   UNL     1      31.738  12.118   8.752  0.00  0.00    -0.034 C 
ATOM     19  C   UNL     1      30.947  12.238   9.827  0.00  0.00    +0.004 C 
ENDBRANCH  17  18
ENDBRANCH  16  17
ENDBRANCH  15  16
ENDBRANCH  14  15
ENDBRANCH  12  14
ENDBRANCH   8  10
ENDBRANCH   7   8
ENDBRANCH   6   7
ENDBRANCH   2   6
ENDBRANCH   1   3
BRANCH   1  20
ATOM     20  C   UNL     1      28.526  13.649  -1.624  0.00  0.00    +0.193 C 
ATOM     21  O   UNL     1      29.370  12.554  -1.205  0.00  0.00    -0.219 OA
BRANCH  20  22
ATOM     22  C   UNL     1      27.456  12.991  -2.523  0.00  0.00    +0.212 C 
ATOM     23  O   UNL     1      27.700  11.580  -2.641  0.00  0.00    -0.218 OA
BRANCH  22  24
ATOM     24  C   UNL     1      25.984  13.206  -2.001  0.00  0.00    +0.171 C 
ATOM     25  O   UNL     1      25.251  11.989  -1.915  0.00  0.00    -0.343 OA
ATOM     26  C   UNL     1      23.869  11.914  -1.720  0.00  0.00    +0.220 C 
ATOM     27  C   UNL     1      23.104  12.806  -2.712  0.00  0.00    +0.076 C 
ATOM     28  C   UNL     1      23.695  14.222  -2.612  0.00  0.00    +0.177 C 
ATOM     29  O   UNL     1      22.995  15.099  -3.482  0.00  0.00    -0.221 OA
ATOM     30  C   UNL     1      25.220  14.192  -2.944  0.00  0.00    +0.155 C 
BRANCH  30  31
ATOM     31  N   UNL     1      25.784  15.537  -2.857  0.00  0.00    -0.202 NA
ATOM     32  C   UNL     1      26.312  16.321  -3.831  0.00  0.00    +0.242 C 
ATOM     33  C   UNL     1      26.552  17.777  -3.525  0.00  0.00    +0.096 C 
ATOM     34  O   UNL     1      26.577  15.832  -4.927  0.00  0.00    -0.273 OA
ENDBRANCH  30  31
BRANCH  26  35
ATOM     35  C   UNL     1      23.416  12.200  -0.186  0.00  0.00    +0.391 C 
ATOM     36  O   UNL     1      22.087  12.414  -0.251  0.00  0.00    -0.243 OA
ATOM     37  O   UNL     1      24.447  11.824   0.581  0.00  0.00    -0.243 OA
ENDBRANCH  26  35
ENDBRANCH  22  24
ENDBRANCH  20  22
ENDBRANCH   1  20
TORSDOF 15
