REMARK VINA RESULT:    -6.683      2.268      8.954
REMARK INTER + INTRA:         -15.708
REMARK INTER:                 -12.598
REMARK INTRA:                  -3.110
REMARK UNBOUND:                -2.580
REMARK  Name = lig_assembled_90.pdb
REMARK  17 active torsions:
REMARK  status: ('A' for Active; 'I' for Inactive)
REMARK    1  A    between atoms: _2  and  _12
REMARK    2  A    between atoms: _3  and  _14
REMARK    3  A    between atoms: _4  and  _16
REMARK    4  A    between atoms: _9  and  _10
REMARK    5  A    between atoms: _9  and  _23
REMARK    6  A    between atoms: _12  and  _13
REMARK    7  A    between atoms: _14  and  _15
REMARK    8  A    between atoms: _15  and  _16
REMARK    9  A    between atoms: _15  and  _21
REMARK   10  A    between atoms: _23  and  _25
REMARK   11  A    between atoms: _24  and  _29
REMARK   12  A    between atoms: _25  and  _28
REMARK   13  A    between atoms: _33  and  _43
REMARK   14  A    between atoms: _35  and  _36
REMARK   15  A    between atoms: _37  and  _39
REMARK   16  A    between atoms: _39  and  _41
REMARK   17  A    between atoms: _41  and  _43
REMARK                            x       y       z     vdW  Elec       q    Type
REMARK                         _______ _______ _______ _____ _____    ______ ____
ROOT
ATOM      1  C   UNL     1      26.629  15.950  -3.086  0.00  0.00    +0.240 C 
ENDROOT
BRANCH   1   2
ATOM      2  O   UNL     1      27.038  17.028  -2.275  0.00  0.00    -0.450 OA
BRANCH   2   3
ATOM      3  C   UNL     1      27.619  17.235  -1.140  0.00  0.00    +0.400 C 
ATOM      4  N   UNL     1      28.367  16.188  -0.654  0.00  0.00    -0.278 N 
ATOM      5  H   UNL     1      28.904  16.624   0.161  0.00  0.00    +0.152 HD
ATOM      6  O   UNL     1      27.585  18.274  -0.486  0.00  0.00    -0.226 OA
BRANCH   4   7
ATOM      7  C   UNL     1      28.738  14.778  -0.742  0.00  0.00    +0.152 C 
BRANCH   7   8
ATOM      8  C   UNL     1      30.028  14.367  -0.003  0.00  0.00    +0.193 C 
ATOM      9  O   UNL     1      31.066  15.269  -0.448  0.00  0.00    -0.219 OA
BRANCH   8  10
ATOM     10  C   UNL     1      30.042  14.493   1.537  0.00  0.00    +0.212 C 
ATOM     11  O   UNL     1      28.710  14.694   2.035  0.00  0.00    -0.218 OA
BRANCH  10  12
ATOM     12  C   UNL     1      30.668  13.241   2.260  0.00  0.00    +0.171 C 
ATOM     13  O   UNL     1      29.784  12.662   3.215  0.00  0.00    -0.343 OA
ATOM     14  C   UNL     1      30.163  11.706   4.161  0.00  0.00    +0.220 C 
ATOM     15  C   UNL     1      31.413  12.143   4.944  0.00  0.00    +0.076 C 
ATOM     16  C   UNL     1      32.500  12.502   3.917  0.00  0.00    +0.177 C 
ATOM     17  O   UNL     1      33.694  12.876   4.590  0.00  0.00    -0.221 OA
ATOM     18  C   UNL     1      31.996  13.644   2.980  0.00  0.00    +0.155 C 
BRANCH  18  19
ATOM     19  N   UNL     1      33.028  13.994   2.007  0.00  0.00    -0.202 NA
ATOM     20  C   UNL     1      33.548  13.259   0.991  0.00  0.00    +0.242 C 
ATOM     21  C   UNL     1      34.388  13.962  -0.044  0.00  0.00    +0.096 C 
ATOM     22  O   UNL     1      33.322  12.051   0.937  0.00  0.00    -0.273 OA
ENDBRANCH  18  19
BRANCH  14  23
ATOM     23  C   UNL     1      30.337  10.215   3.541  0.00  0.00    +0.391 C 
ATOM     24  O   UNL     1      30.967   9.510   4.501  0.00  0.00    -0.243 OA
ATOM     25  O   UNL     1      29.541  10.166   2.465  0.00  0.00    -0.243 OA
ENDBRANCH  14  23
ENDBRANCH  10  12
ENDBRANCH   8  10
ENDBRANCH   7   8
ENDBRANCH   4   7
ENDBRANCH   2   3
ENDBRANCH   1   2
BRANCH   1  26
ATOM     26  C   UNL     1      25.322  16.116  -3.883  0.00  0.00    +0.100 C 
BRANCH  26  28
ATOM     27  N   UNL     1      24.408  14.748  -2.028  0.00  0.00    -0.134 NA
ATOM     28  C   UNL     1      24.199  15.476  -3.171  0.00  0.00    +0.086 A 
ATOM     29  C   UNL     1      22.856  15.470  -3.469  0.00  0.00    +0.134 A 
ATOM     30  N   UNL     1      22.298  14.742  -2.461  0.00  0.00    -0.243 N 
ATOM     31  N   UNL     1      23.234  14.293  -1.606  0.00  0.00    -0.065 NA
BRANCH  30  32
ATOM     32  C   UNL     1      20.919  14.345  -2.301  0.00  0.00    +0.240 C 
BRANCH  32  33
ATOM     33  C   UNL     1      20.724  13.525  -1.046  0.00  0.00    +0.235 C 
ATOM     34  O   UNL     1      20.102  13.942  -0.071  0.00  0.00    -0.274 OA
ATOM     35  N   UNL     1      21.248  12.247  -1.091  0.00  0.00    -0.311 N 
ATOM     36  H   UNL     1      21.972  12.041  -1.776  0.00  0.00    +0.149 HD
BRANCH  35  37
ATOM     37  C   UNL     1      21.200  11.387   0.083  0.00  0.00    +0.137 C 
BRANCH  37  38
ATOM     38  C   UNL     1      22.328  11.730   1.068  0.00  0.00    +0.151 C 
BRANCH  38  39
ATOM     39  O   UNL     1      21.760  11.908   2.372  0.00  0.00    -0.388 OA
ATOM     40  H   UNL     1      22.484  11.979   3.026  0.00  0.00    +0.210 HD
ENDBRANCH  38  39
BRANCH  38  41
ATOM     41  C   UNL     1      23.418  10.650   1.079  0.00  0.00    +0.162 C 
BRANCH  41  42
ATOM     42  N   UNL     1      24.740  11.195   1.353  0.00  0.00    -0.269 N 
ATOM     43  C   UNL     1      25.218  11.398   2.630  0.00  0.00    +0.113 A 
ATOM     44  C   UNL     1      26.464  11.958   2.477  0.00  0.00    +0.137 A 
ATOM     45  N   UNL     1      26.765  12.109   1.149  0.00  0.00    -0.172 NA
ATOM     46  C   UNL     1      25.719  11.632   0.495  0.00  0.00    +0.450 A 
ATOM     47  N   UNL     1      25.655  11.605  -0.946  0.00  0.00    +0.120 N 
ATOM     48  O   UNL     1      24.683  11.043  -1.469  0.00  0.00    +0.045 OA
ATOM     49  O   UNL     1      26.573  12.159  -1.565  0.00  0.00    -0.573 OA
ENDBRANCH  41  42
ENDBRANCH  38  41
ENDBRANCH  37  38
ENDBRANCH  35  37
ENDBRANCH  32  33
ENDBRANCH  30  32
ENDBRANCH  26  28
ENDBRANCH   1  26
TORSDOF 17
