REMARK VINA RESULT:    -7.828      2.051      3.909
REMARK INTER + INTRA:         -16.270
REMARK INTER:                 -13.677
REMARK INTRA:                  -2.593
REMARK UNBOUND:                -2.494
REMARK  Name = lig_assembled_79.pdb
REMARK  15 active torsions:
REMARK  status: ('A' for Active; 'I' for Inactive)
REMARK    1  A    between atoms: _2  and  _9
REMARK    2  A    between atoms: _6  and  _7
REMARK    3  A    between atoms: _6  and  _21
REMARK    4  A    between atoms: _9  and  _10
REMARK    5  A    between atoms: _9  and  _11
REMARK    6  A    between atoms: _9  and  _12
REMARK    7  A    between atoms: _12  and  _13
REMARK    8  A    between atoms: _21  and  _23
REMARK    9  A    between atoms: _22  and  _27
REMARK   10  A    between atoms: _23  and  _26
REMARK   11  A    between atoms: _31  and  _41
REMARK   12  A    between atoms: _33  and  _34
REMARK   13  A    between atoms: _35  and  _37
REMARK   14  A    between atoms: _37  and  _39
REMARK   15  A    between atoms: _39  and  _41
REMARK                            x       y       z     vdW  Elec       q    Type
REMARK                         _______ _______ _______ _____ _____    ______ ____
ROOT
ATOM      1  O   UNL     1      28.226  16.898  -1.549  0.00  0.00    -0.450 OA
ENDROOT
BRANCH   1   2
ATOM      2  C   UNL     1      28.305  17.621  -0.480  0.00  0.00    +0.400 C 
ATOM      3  N   UNL     1      29.499  17.552   0.199  0.00  0.00    -0.278 N 
ATOM      4  H   UNL     1      29.427  18.348   0.908  0.00  0.00    +0.152 HD
ATOM      5  O   UNL     1      27.434  18.370  -0.045  0.00  0.00    -0.226 OA
BRANCH   3   6
ATOM      6  C   UNL     1      30.785  16.886   0.390  0.00  0.00    +0.152 C 
BRANCH   6   7
ATOM      7  C   UNL     1      30.808  15.366   0.127  0.00  0.00    +0.193 C 
ATOM      8  O   UNL     1      31.798  15.138  -0.900  0.00  0.00    -0.219 OA
BRANCH   7   9
ATOM      9  C   UNL     1      31.240  14.445   1.289  0.00  0.00    +0.212 C 
ATOM     10  O   UNL     1      31.556  15.223   2.455  0.00  0.00    -0.218 OA
BRANCH   9  11
ATOM     11  C   UNL     1      30.149  13.376   1.678  0.00  0.00    +0.171 C 
ATOM     12  O   UNL     1      29.954  13.279   3.085  0.00  0.00    -0.343 OA
ATOM     13  C   UNL     1      29.236  12.257   3.712  0.00  0.00    +0.220 C 
ATOM     14  C   UNL     1      29.698  10.866   3.246  0.00  0.00    +0.076 C 
ATOM     15  C   UNL     1      29.639  10.849   1.709  0.00  0.00    +0.177 C 
ATOM     16  O   UNL     1      30.019   9.569   1.226  0.00  0.00    -0.221 OA
ATOM     17  C   UNL     1      30.553  11.970   1.124  0.00  0.00    +0.155 C 
BRANCH  17  18
ATOM     18  N   UNL     1      30.504  11.954  -0.336  0.00  0.00    -0.202 NA
ATOM     19  C   UNL     1      31.483  11.672  -1.233  0.00  0.00    +0.242 C 
ATOM     20  C   UNL     1      31.091  11.439  -2.669  0.00  0.00    +0.096 C 
ATOM     21  O   UNL     1      32.652  11.612  -0.858  0.00  0.00    -0.273 OA
ENDBRANCH  17  18
BRANCH  13  22
ATOM     22  C   UNL     1      27.625  12.426   3.584  0.00  0.00    +0.391 C 
ATOM     23  O   UNL     1      27.130  11.188   3.778  0.00  0.00    -0.243 OA
ATOM     24  O   UNL     1      27.385  13.742   3.637  0.00  0.00    -0.243 OA
ENDBRANCH  13  22
ENDBRANCH   9  11
ENDBRANCH   7   9
ENDBRANCH   6   7
ENDBRANCH   3   6
ENDBRANCH   1   2
BRANCH   1  25
ATOM     25  C   UNL     1      27.291  16.091  -2.225  0.00  0.00    +0.240 C 
BRANCH  25  26
ATOM     26  C   UNL     1      26.498  16.735  -3.378  0.00  0.00    +0.100 C 
BRANCH  26  28
ATOM     27  N   UNL     1      25.522  15.030  -4.869  0.00  0.00    -0.134 NA
ATOM     28  C   UNL     1      25.391  15.852  -3.788  0.00  0.00    +0.086 A 
ATOM     29  C   UNL     1      24.138  15.689  -3.245  0.00  0.00    +0.134 A 
ATOM     30  N   UNL     1      23.572  14.685  -3.980  0.00  0.00    -0.238 N 
ATOM     31  N   UNL     1      24.392  14.355  -5.009  0.00  0.00    -0.065 NA
BRANCH  30  32
ATOM     32  C   UNL     1      22.202  14.096  -3.938  0.00  0.00    +0.122 C 
ATOM     33  C   UNL     1      22.348  12.612  -4.351  0.00  0.00    +0.044 C 
ATOM     34  C   UNL     1      21.369  14.956  -4.909  0.00  0.00    +0.044 C 
BRANCH  32  35
ATOM     35  C   UNL     1      21.564  14.121  -2.534  0.00  0.00    +0.192 C 
ATOM     36  O   UNL     1      20.699  14.958  -2.258  0.00  0.00    -0.289 OA
BRANCH  35  37
ATOM     37  C   UNL     1      21.963  13.175  -1.453  0.00  0.00    +0.045 A 
ATOM     38  C   UNL     1      20.987  12.461  -0.763  0.00  0.00    +0.095 A 
ATOM     39  N   UNL     1      21.574  11.685   0.190  0.00  0.00    -0.360 N 
ATOM     40  H   UNL     1      21.083  11.079   0.834  0.00  0.00    +0.165 HD
ATOM     41  C   UNL     1      22.933  11.855   0.162  0.00  0.00    +0.047 A 
ATOM     42  C   UNL     1      23.910  11.259   0.973  0.00  0.00    +0.026 A 
ATOM     43  C   UNL     1      25.245  11.598   0.756  0.00  0.00    +0.002 A 
ATOM     44  C   UNL     1      25.588  12.497  -0.241  0.00  0.00    +0.001 A 
ATOM     45  C   UNL     1      24.598  13.080  -1.042  0.00  0.00    +0.011 A 
ATOM     46  C   UNL     1      23.225  12.772  -0.857  0.00  0.00    +0.010 A 
ENDBRANCH  35  37
ENDBRANCH  32  35
ENDBRANCH  30  32
ENDBRANCH  26  28
ENDBRANCH  25  26
ENDBRANCH   1  25
TORSDOF 13
