REMARK VINA RESULT:    -7.216      1.557      3.538
REMARK INTER + INTRA:         -15.237
REMARK INTER:                 -13.213
REMARK INTRA:                  -2.024
REMARK UNBOUND:                -2.115
REMARK  Name = lig_assembled_26.pdb
REMARK  15 active torsions:
REMARK  status: ('A' for Active; 'I' for Inactive)
REMARK    1  A    between atoms: _2  and  _8
REMARK    2  A    between atoms: _5  and  _6
REMARK    3  A    between atoms: _5  and  _18
REMARK    4  A    between atoms: _8  and  _9
REMARK    5  A    between atoms: _8  and  _10
REMARK    6  A    between atoms: _10  and  _11
REMARK    7  A    between atoms: _11  and  _12
REMARK    8  A    between atoms: _18  and  _20
REMARK    9  A    between atoms: _19  and  _24
REMARK   10  A    between atoms: _20  and  _23
REMARK   11  A    between atoms: _28  and  _38
REMARK   12  A    between atoms: _30  and  _31
REMARK   13  A    between atoms: _32  and  _34
REMARK   14  A    between atoms: _34  and  _36
REMARK   15  A    between atoms: _36  and  _38
REMARK                            x       y       z     vdW  Elec       q    Type
REMARK                         _______ _______ _______ _____ _____    ______ ____
ROOT
ATOM      1  C   UNL     1      27.783  13.968  -1.916  0.00  0.00    +0.400 C 
ATOM      2  N   UNL     1      28.432  14.758  -0.996  0.00  0.00    -0.278 N 
ATOM      3  H   UNL     1      29.073  14.070  -0.488  0.00  0.00    +0.152 HD
ATOM      4  O   UNL     1      28.176  12.814  -2.068  0.00  0.00    -0.226 OA
ENDROOT
BRANCH   2   5
ATOM      5  C   UNL     1      28.644  16.086  -0.426  0.00  0.00    +0.152 C 
BRANCH   5   6
ATOM      6  C   UNL     1      30.111  16.492  -0.176  0.00  0.00    +0.193 C 
ATOM      7  O   UNL     1      30.081  17.789   0.458  0.00  0.00    -0.219 OA
BRANCH   6   8
ATOM      8  C   UNL     1      30.942  15.613   0.784  0.00  0.00    +0.212 C 
ATOM      9  O   UNL     1      30.078  14.818   1.612  0.00  0.00    -0.218 OA
BRANCH   8  10
ATOM     10  C   UNL     1      31.949  14.655   0.041  0.00  0.00    +0.171 C 
ATOM     11  O   UNL     1      31.392  14.083  -1.138  0.00  0.00    -0.343 OA
ATOM     12  C   UNL     1      31.965  13.025  -1.848  0.00  0.00    +0.220 C 
ATOM     13  C   UNL     1      32.319  11.846  -0.927  0.00  0.00    +0.076 C 
ATOM     14  C   UNL     1      33.182  12.398   0.220  0.00  0.00    +0.177 C 
ATOM     15  O   UNL     1      33.572  11.338   1.083  0.00  0.00    -0.221 OA
ATOM     16  C   UNL     1      32.400  13.502   0.997  0.00  0.00    +0.155 C 
BRANCH  16  17
ATOM     17  N   UNL     1      33.213  14.025   2.092  0.00  0.00    -0.202 NA
ATOM     18  C   UNL     1      33.157  13.754   3.421  0.00  0.00    +0.242 C 
ATOM     19  C   UNL     1      34.301  14.202   4.292  0.00  0.00    +0.096 C 
ATOM     20  O   UNL     1      32.185  13.155   3.878  0.00  0.00    -0.273 OA
ENDBRANCH  16  17
BRANCH  12  21
ATOM     21  C   UNL     1      33.232  13.471  -2.763  0.00  0.00    +0.391 C 
ATOM     22  O   UNL     1      33.380  14.790  -2.533  0.00  0.00    -0.243 OA
ATOM     23  O   UNL     1      33.824  12.335  -3.151  0.00  0.00    -0.243 OA
ENDBRANCH  12  21
ENDBRANCH   8  10
ENDBRANCH   6   8
ENDBRANCH   5   6
ENDBRANCH   2   5
BRANCH   1  24
ATOM     24  O   UNL     1      26.782  14.519  -2.520  0.00  0.00    -0.450 OA
BRANCH  24  25
ATOM     25  C   UNL     1      26.512  15.626  -3.348  0.00  0.00    +0.240 C 
BRANCH  25  26
ATOM     26  C   UNL     1      25.558  15.407  -4.538  0.00  0.00    +0.100 C 
BRANCH  26  28
ATOM     27  N   UNL     1      23.868  13.607  -4.297  0.00  0.00    -0.134 NA
ATOM     28  C   UNL     1      24.258  14.900  -4.068  0.00  0.00    +0.086 A 
ATOM     29  C   UNL     1      23.269  15.551  -3.369  0.00  0.00    +0.134 A 
ATOM     30  N   UNL     1      22.289  14.615  -3.223  0.00  0.00    -0.248 N 
ATOM     31  N   UNL     1      22.667  13.436  -3.758  0.00  0.00    -0.065 NA
BRANCH  30  32
ATOM     32  C   UNL     1      21.010  14.713  -2.537  0.00  0.00    +0.113 C 
ATOM     33  C   UNL     1      19.930  15.479  -3.315  0.00  0.00    +0.033 C 
BRANCH  32  34
ATOM     34  C   UNL     1      20.495  13.350  -2.039  0.00  0.00    +0.106 C 
BRANCH  34  35
ATOM     35  C   UNL     1      20.512  13.198  -0.529  0.00  0.00    +0.165 C 
ATOM     36  O   UNL     1      20.024  14.040   0.222  0.00  0.00    -0.292 OA
BRANCH  35  37
ATOM     37  C   UNL     1      21.180  12.003   0.066  0.00  0.00    +0.017 A 
ATOM     38  C   UNL     1      21.653  10.939  -0.712  0.00  0.00    +0.011 A 
ATOM     39  C   UNL     1      22.308   9.865  -0.106  0.00  0.00    +0.001 A 
ATOM     40  C   UNL     1      22.489   9.843   1.277  0.00  0.00    +0.000 A 
ATOM     41  C   UNL     1      22.011  10.891   2.059  0.00  0.00    +0.001 A 
ATOM     42  C   UNL     1      21.359  11.967   1.458  0.00  0.00    +0.011 A 
ENDBRANCH  35  37
ENDBRANCH  34  35
ENDBRANCH  32  34
ENDBRANCH  30  32
ENDBRANCH  26  28
ENDBRANCH  25  26
ENDBRANCH  24  25
ENDBRANCH   1  24
TORSDOF 14
