REMARK VINA RESULT:    -6.040      4.121     10.480
REMARK INTER + INTRA:         -12.914
REMARK INTER:                 -11.323
REMARK INTRA:                  -1.592
REMARK UNBOUND:                -1.931
REMARK  Name = lig_assembled_55.pdb
REMARK  15 active torsions:
REMARK  status: ('A' for Active; 'I' for Inactive)
REMARK    1  A    between atoms: _2  and  _9
REMARK    2  A    between atoms: _3  and  _10
REMARK    3  A    between atoms: _3  and  _41
REMARK    4  A    between atoms: _5  and  _41
REMARK    5  A    between atoms: _6  and  _7
REMARK    6  A    between atoms: _6  and  _13
REMARK    7  A    between atoms: _9  and  _10
REMARK    8  A    between atoms: _13  and  _15
REMARK    9  A    between atoms: _14  and  _19
REMARK   10  A    between atoms: _15  and  _18
REMARK   11  A    between atoms: _23  and  _33
REMARK   12  A    between atoms: _25  and  _26
REMARK   13  A    between atoms: _27  and  _29
REMARK   14  A    between atoms: _29  and  _31
REMARK   15  A    between atoms: _31  and  _33
REMARK                            x       y       z     vdW  Elec       q    Type
REMARK                         _______ _______ _______ _____ _____    ______ ____
ROOT
ATOM      1  C   UNL     1      28.812  16.590  -0.467  0.00  0.00    +0.400 C 
ATOM      2  N   UNL     1      28.041  15.452  -0.474  0.00  0.00    -0.278 N 
ATOM      3  H   UNL     1      27.049  15.825  -0.336  0.00  0.00    +0.152 HD
ATOM      4  O   UNL     1      28.241  17.677  -0.496  0.00  0.00    -0.226 OA
ENDROOT
BRANCH   2   5
ATOM      5  C   UNL     1      27.969  13.998  -0.597  0.00  0.00    +0.152 C 
BRANCH   5   6
ATOM      6  C   UNL     1      28.324  13.415  -1.979  0.00  0.00    +0.193 C 
ATOM      7  O   UNL     1      29.167  12.266  -1.741  0.00  0.00    -0.219 OA
BRANCH   6   8
ATOM      8  C   UNL     1      27.167  12.870  -2.845  0.00  0.00    +0.212 C 
ATOM      9  O   UNL     1      27.320  11.457  -3.057  0.00  0.00    -0.218 OA
BRANCH   8  10
ATOM     10  C   UNL     1      25.743  13.136  -2.223  0.00  0.00    +0.171 C 
ATOM     11  O   UNL     1      24.931  11.967  -2.196  0.00  0.00    -0.343 OA
ATOM     12  C   UNL     1      23.560  11.966  -1.927  0.00  0.00    +0.220 C 
ATOM     13  C   UNL     1      22.808  12.990  -2.794  0.00  0.00    +0.076 C 
ATOM     14  C   UNL     1      23.503  14.350  -2.611  0.00  0.00    +0.177 C 
ATOM     15  O   UNL     1      22.821  15.344  -3.362  0.00  0.00    -0.221 OA
ATOM     16  C   UNL     1      25.002  14.249  -3.033  0.00  0.00    +0.155 C 
BRANCH  16  17
ATOM     17  N   UNL     1      25.663  15.540  -2.866  0.00  0.00    -0.202 NA
ATOM     18  C   UNL     1      26.239  16.347  -3.795  0.00  0.00    +0.242 C 
ATOM     19  C   UNL     1      26.587  17.758  -3.399  0.00  0.00    +0.096 C 
ATOM     20  O   UNL     1      26.458  15.913  -4.924  0.00  0.00    -0.273 OA
ENDBRANCH  16  17
BRANCH  12  21
ATOM     21  C   UNL     1      23.209  12.146  -0.351  0.00  0.00    +0.391 C 
ATOM     22  O   UNL     1      24.400  12.106   0.277  0.00  0.00    -0.243 OA
ATOM     23  O   UNL     1      21.937  12.560  -0.301  0.00  0.00    -0.243 OA
ENDBRANCH  12  21
ENDBRANCH   8  10
ENDBRANCH   6   8
ENDBRANCH   5   6
ENDBRANCH   2   5
BRANCH   1  24
ATOM     24  O   UNL     1      30.089  16.400  -0.397  0.00  0.00    -0.450 OA
BRANCH  24  25
ATOM     25  C   UNL     1      31.052  15.942   0.523  0.00  0.00    +0.240 C 
BRANCH  25  26
ATOM     26  C   UNL     1      31.427  14.449   0.476  0.00  0.00    +0.100 C 
BRANCH  26  28
ATOM     27  N   UNL     1      32.702  14.155   2.574  0.00  0.00    -0.134 NA
ATOM     28  C   UNL     1      31.571  13.910   1.841  0.00  0.00    +0.086 A 
ATOM     29  C   UNL     1      30.709  13.139   2.588  0.00  0.00    +0.133 A 
ATOM     30  N   UNL     1      31.380  12.931   3.755  0.00  0.00    -0.250 N 
ATOM     31  N   UNL     1      32.577  13.545   3.743  0.00  0.00    -0.065 NA
BRANCH  30  32
ATOM     32  C   UNL     1      30.943  12.193   4.920  0.00  0.00    +0.162 C 
BRANCH  32  33
ATOM     33  C   UNL     1      31.807  12.429   6.163  0.00  0.00    +0.129 C 
BRANCH  33  34
ATOM     34  N   UNL     1      31.019  12.604   7.418  0.00  0.00    -0.193 NA
ATOM     35  H   UNL     1      30.041  12.328   7.269  0.00  0.00    +0.148 HD
BRANCH  34  36
ATOM     36  S   UNL     1      31.686  11.934   8.814  0.00  0.00    +0.027 S 
ATOM     37  O   UNL     1      31.330  10.533   8.815  0.00  0.00    -0.158 OA
ATOM     38  O   UNL     1      33.065  12.360   8.888  0.00  0.00    -0.158 OA
ATOM     39  C   UNL     1      30.746  12.750  10.083  0.00  0.00    +0.214 C 
ENDBRANCH  34  36
ENDBRANCH  33  34
ENDBRANCH  32  33
ENDBRANCH  30  32
ENDBRANCH  26  28
ENDBRANCH  25  26
ENDBRANCH  24  25
ENDBRANCH   1  24
TORSDOF 14
