REMARK VINA RESULT:    -6.144      2.867      5.322
REMARK INTER + INTRA:         -15.714
REMARK INTER:                 -11.890
REMARK INTRA:                  -3.824
REMARK UNBOUND:                -3.824
REMARK  Name = lig_assembled_81.pdb
REMARK  17 active torsions:
REMARK  status: ('A' for Active; 'I' for Inactive)
REMARK    1  A    between atoms: _2  and  _11
REMARK    2  A    between atoms: _7  and  _23
REMARK    3  A    between atoms: _8  and  _9
REMARK    4  A    between atoms: _8  and  _25
REMARK    5  A    between atoms: _13  and  _14
REMARK    6  A    between atoms: _20  and  _21
REMARK    7  A    between atoms: _21  and  _22
REMARK    8  A    between atoms: _22  and  _24
REMARK    9  A    between atoms: _23  and  _24
REMARK   10  A    between atoms: _25  and  _27
REMARK   11  A    between atoms: _26  and  _31
REMARK   12  A    between atoms: _27  and  _30
REMARK   13  A    between atoms: _35  and  _45
REMARK   14  A    between atoms: _37  and  _38
REMARK   15  A    between atoms: _39  and  _41
REMARK   16  A    between atoms: _41  and  _43
REMARK   17  A    between atoms: _43  and  _45
REMARK                            x       y       z     vdW  Elec       q    Type
REMARK                         _______ _______ _______ _____ _____    ______ ____
ROOT
ATOM      1  C   UNL     1      29.166  17.652  -0.476  0.00  0.00    +0.096 C 
ENDROOT
BRANCH   1   3
ATOM      2  N   UNL     1      27.443  17.339  -2.192  0.00  0.00    -0.133 NA
ATOM      3  C   UNL     1      28.237  16.788  -1.232  0.00  0.00    +0.066 C 
ATOM      4  C   UNL     1      27.957  15.437  -1.148  0.00  0.00    +0.120 C 
ATOM      5  N   UNL     1      27.072  15.197  -2.191  0.00  0.00    -0.187 N 
ATOM      6  N   UNL     1      26.653  16.389  -2.661  0.00  0.00    -0.010 NA
BRANCH   5   7
ATOM      7  C   UNL     1      26.500  13.944  -2.594  0.00  0.00    +0.150 A 
ATOM      8  C   UNL     1      25.169  13.525  -2.342  0.00  0.00    +0.022 A 
ATOM      9  C   UNL     1      24.906  12.202  -2.785  0.00  0.00    +0.081 A 
ATOM     10  N   UNL     1      25.882  11.419  -3.323  0.00  0.00    -0.214 NA
ATOM     11  C   UNL     1      27.097  11.915  -3.482  0.00  0.00    +0.215 A 
ATOM     12  N   UNL     1      28.088  11.081  -3.942  0.00  0.00    -0.327 N 
ATOM     13  H   UNL     1      27.702  10.295  -4.442  0.00  0.00    +0.145 HD
ATOM     14  H   UNL     1      28.850  11.596  -4.355  0.00  0.00    +0.145 HD
ATOM     15  N   UNL     1      27.421  13.168  -3.229  0.00  0.00    -0.198 NA
BRANCH   9  16
ATOM     16  C   UNL     1      23.598  11.444  -2.729  0.00  0.00    +0.001 A 
ATOM     17  C   UNL     1      23.031  10.896  -1.564  0.00  0.00    +0.010 A 
ATOM     18  C   UNL     1      21.804  10.211  -1.574  0.00  0.00    +0.001 A 
ATOM     19  C   UNL     1      21.067  10.102  -2.738  0.00  0.00    +0.000 A 
ATOM     20  C   UNL     1      21.560  10.677  -3.907  0.00  0.00    +0.001 A 
ATOM     21  C   UNL     1      22.806  11.321  -3.896  0.00  0.00    +0.010 A 
ENDBRANCH   9  16
BRANCH   8  22
ATOM     22  C   UNL     1      24.003  14.338  -1.776  0.00  0.00    +0.069 C 
BRANCH  22  23
ATOM     23  C   UNL     1      23.138  15.202  -2.673  0.00  0.00    +0.164 C 
BRANCH  23  24
ATOM     24  O   UNL     1      22.025  14.555  -3.300  0.00  0.00    -0.380 OA
BRANCH  24  25
ATOM     25  C   UNL     1      20.867  14.890  -2.511  0.00  0.00    +0.156 C 
ATOM     26  C   UNL     1      20.389  13.715  -1.692  0.00  0.00    +0.034 C 
ENDBRANCH  24  25
ENDBRANCH  23  24
ENDBRANCH  22  23
ENDBRANCH   8  22
ENDBRANCH   5   7
ENDBRANCH   1   3
BRANCH   1  27
ATOM     27  C   UNL     1      30.209  16.794   0.267  0.00  0.00    +0.240 C 
BRANCH  27  28
ATOM     28  O   UNL     1      31.256  16.240  -0.494  0.00  0.00    -0.450 OA
BRANCH  28  29
ATOM     29  C   UNL     1      31.950  15.152  -0.561  0.00  0.00    +0.400 C 
ATOM     30  N   UNL     1      31.883  14.334   0.542  0.00  0.00    -0.278 N 
ATOM     31  H   UNL     1      32.348  13.431   0.209  0.00  0.00    +0.152 HD
ATOM     32  O   UNL     1      32.625  14.780  -1.518  0.00  0.00    -0.226 OA
BRANCH  30  33
ATOM     33  C   UNL     1      31.485  14.155   1.936  0.00  0.00    +0.152 C 
BRANCH  33  34
ATOM     34  C   UNL     1      32.187  13.016   2.703  0.00  0.00    +0.193 C 
ATOM     35  O   UNL     1      32.065  13.325   4.109  0.00  0.00    -0.219 OA
BRANCH  34  36
ATOM     36  C   UNL     1      31.598  11.594   2.568  0.00  0.00    +0.212 C 
ATOM     37  O   UNL     1      31.858  10.828   3.755  0.00  0.00    -0.218 OA
BRANCH  36  38
ATOM     38  C   UNL     1      30.046  11.585   2.293  0.00  0.00    +0.171 C 
ATOM     39  O   UNL     1      29.277  11.527   3.490  0.00  0.00    -0.343 OA
ATOM     40  C   UNL     1      27.906  11.265   3.535  0.00  0.00    +0.220 C 
ATOM     41  C   UNL     1      27.540  10.006   2.729  0.00  0.00    +0.076 C 
ATOM     42  C   UNL     1      28.121  10.176   1.315  0.00  0.00    +0.177 C 
ATOM     43  O   UNL     1      27.776   9.055   0.515  0.00  0.00    -0.221 OA
ATOM     44  C   UNL     1      29.668  10.366   1.389  0.00  0.00    +0.155 C 
BRANCH  44  45
ATOM     45  N   UNL     1      30.224  10.521   0.048  0.00  0.00    -0.202 NA
ATOM     46  C   UNL     1      30.217  11.600  -0.775  0.00  0.00    +0.242 C 
ATOM     47  C   UNL     1      31.118  11.585  -1.983  0.00  0.00    +0.096 C 
ATOM     48  O   UNL     1      29.486  12.555  -0.519  0.00  0.00    -0.273 OA
ENDBRANCH  44  45
BRANCH  40  49
ATOM     49  C   UNL     1      26.990  12.536   3.106  0.00  0.00    +0.391 C 
ATOM     50  O   UNL     1      25.821  12.001   2.703  0.00  0.00    -0.243 OA
ATOM     51  O   UNL     1      27.611  13.619   3.589  0.00  0.00    -0.243 OA
ENDBRANCH  40  49
ENDBRANCH  36  38
ENDBRANCH  34  36
ENDBRANCH  33  34
ENDBRANCH  30  33
ENDBRANCH  28  29
ENDBRANCH  27  28
ENDBRANCH   1  27
TORSDOF 16
