REMARK VINA RESULT:    -6.366      2.875      9.315
REMARK INTER + INTRA:         -16.145
REMARK INTER:                 -12.860
REMARK INTRA:                  -3.284
REMARK UNBOUND:                -3.824
REMARK  Name = lig_assembled_81.pdb
REMARK  17 active torsions:
REMARK  status: ('A' for Active; 'I' for Inactive)
REMARK    1  A    between atoms: _2  and  _11
REMARK    2  A    between atoms: _7  and  _23
REMARK    3  A    between atoms: _8  and  _9
REMARK    4  A    between atoms: _8  and  _25
REMARK    5  A    between atoms: _13  and  _14
REMARK    6  A    between atoms: _20  and  _21
REMARK    7  A    between atoms: _21  and  _22
REMARK    8  A    between atoms: _22  and  _24
REMARK    9  A    between atoms: _23  and  _24
REMARK   10  A    between atoms: _25  and  _27
REMARK   11  A    between atoms: _26  and  _31
REMARK   12  A    between atoms: _27  and  _30
REMARK   13  A    between atoms: _35  and  _45
REMARK   14  A    between atoms: _37  and  _38
REMARK   15  A    between atoms: _39  and  _41
REMARK   16  A    between atoms: _41  and  _43
REMARK   17  A    between atoms: _43  and  _45
REMARK                            x       y       z     vdW  Elec       q    Type
REMARK                         _______ _______ _______ _____ _____    ______ ____
ROOT
ATOM      1  C   UNL     1      29.965  17.135  -0.246  0.00  0.00    +0.096 C 
ENDROOT
BRANCH   1   3
ATOM      2  N   UNL     1      30.245  14.702  -0.379  0.00  0.00    -0.133 NA
ATOM      3  C   UNL     1      30.399  15.850   0.339  0.00  0.00    +0.066 C 
ATOM      4  C   UNL     1      30.945  15.533   1.568  0.00  0.00    +0.120 C 
ATOM      5  N   UNL     1      31.234  14.177   1.485  0.00  0.00    -0.187 N 
ATOM      6  N   UNL     1      30.627  13.692   0.383  0.00  0.00    -0.010 NA
BRANCH   5   7
ATOM      7  C   UNL     1      31.864  13.346   2.470  0.00  0.00    +0.150 A 
ATOM      8  C   UNL     1      33.104  12.676   2.315  0.00  0.00    +0.022 A 
ATOM      9  C   UNL     1      33.440  11.857   3.425  0.00  0.00    +0.081 A 
ATOM     10  N   UNL     1      32.594  11.697   4.479  0.00  0.00    -0.214 NA
ATOM     11  C   UNL     1      31.448  12.356   4.497  0.00  0.00    +0.215 A 
ATOM     12  N   UNL     1      30.569  12.111   5.525  0.00  0.00    -0.327 N 
ATOM     13  H   UNL     1      31.045  11.733   6.331  0.00  0.00    +0.145 HD
ATOM     14  H   UNL     1      29.921  12.873   5.654  0.00  0.00    +0.145 HD
ATOM     15  N   UNL     1      31.093  13.241   3.587  0.00  0.00    -0.198 NA
BRANCH   9  16
ATOM     16  C   UNL     1      34.696  11.039   3.632  0.00  0.00    +0.001 A 
ATOM     17  C   UNL     1      34.870   9.706   3.216  0.00  0.00    +0.010 A 
ATOM     18  C   UNL     1      36.067   9.001   3.427  0.00  0.00    +0.001 A 
ATOM     19  C   UNL     1      37.157   9.622   4.007  0.00  0.00    +0.000 A 
ATOM     20  C   UNL     1      37.052  10.959   4.385  0.00  0.00    +0.001 A 
ATOM     21  C   UNL     1      35.840  11.641   4.209  0.00  0.00    +0.010 A 
ENDBRANCH   9  16
BRANCH   8  22
ATOM     22  C   UNL     1      34.131  12.816   1.188  0.00  0.00    +0.069 C 
BRANCH  22  23
ATOM     23  C   UNL     1      33.926  12.134  -0.151  0.00  0.00    +0.164 C 
BRANCH  23  24
ATOM     24  O   UNL     1      34.431  12.824  -1.300  0.00  0.00    -0.380 OA
BRANCH  24  25
ATOM     25  C   UNL     1      34.607  14.197  -0.900  0.00  0.00    +0.156 C 
ATOM     26  C   UNL     1      33.538  15.091  -1.483  0.00  0.00    +0.034 C 
ENDBRANCH  24  25
ENDBRANCH  23  24
ENDBRANCH  22  23
ENDBRANCH   8  22
ENDBRANCH   5   7
ENDBRANCH   1   3
BRANCH   1  27
ATOM     27  C   UNL     1      28.453  17.104  -0.542  0.00  0.00    +0.240 C 
BRANCH  27  28
ATOM     28  O   UNL     1      28.047  17.323  -1.873  0.00  0.00    -0.450 OA
BRANCH  28  29
ATOM     29  C   UNL     1      27.106  16.962  -2.683  0.00  0.00    +0.400 C 
ATOM     30  N   UNL     1      26.725  15.643  -2.603  0.00  0.00    -0.278 N 
ATOM     31  H   UNL     1      25.833  15.607  -3.190  0.00  0.00    +0.152 HD
ATOM     32  O   UNL     1      26.516  17.688  -3.479  0.00  0.00    -0.226 OA
BRANCH  30  33
ATOM     33  C   UNL     1      26.994  14.299  -2.100  0.00  0.00    +0.152 C 
BRANCH  33  34
ATOM     34  C   UNL     1      25.766  13.385  -1.911  0.00  0.00    +0.193 C 
ATOM     35  O   UNL     1      25.296  13.043  -3.233  0.00  0.00    -0.219 OA
BRANCH  34  36
ATOM     36  C   UNL     1      25.987  12.024  -1.216  0.00  0.00    +0.212 C 
ATOM     37  O   UNL     1      27.180  11.394  -1.713  0.00  0.00    -0.218 OA
BRANCH  36  38
ATOM     38  C   UNL     1      26.092  12.133   0.353  0.00  0.00    +0.171 C 
ATOM     39  O   UNL     1      27.354  11.699   0.849  0.00  0.00    -0.343 OA
ATOM     40  C   UNL     1      27.631  11.461   2.198  0.00  0.00    +0.220 C 
ATOM     41  C   UNL     1      26.578  10.544   2.844  0.00  0.00    +0.076 C 
ATOM     42  C   UNL     1      25.196  11.159   2.565  0.00  0.00    +0.177 C 
ATOM     43  O   UNL     1      24.186  10.369   3.177  0.00  0.00    -0.221 OA
ATOM     44  C   UNL     1      24.964  11.286   1.028  0.00  0.00    +0.155 C 
BRANCH  44  45
ATOM     45  N   UNL     1      23.650  11.863   0.759  0.00  0.00    -0.202 NA
ATOM     46  C   UNL     1      22.496  11.256   0.382  0.00  0.00    +0.242 C 
ATOM     47  C   UNL     1      21.214  12.044   0.460  0.00  0.00    +0.096 C 
ATOM     48  O   UNL     1      22.522  10.090  -0.007  0.00  0.00    -0.273 OA
ENDBRANCH  44  45
BRANCH  40  49
ATOM     49  C   UNL     1      27.852  12.819   3.062  0.00  0.00    +0.391 C 
ATOM     50  O   UNL     1      27.786  13.819   2.162  0.00  0.00    -0.243 OA
ATOM     51  O   UNL     1      27.713  12.466   4.346  0.00  0.00    -0.243 OA
ENDBRANCH  40  49
ENDBRANCH  36  38
ENDBRANCH  34  36
ENDBRANCH  33  34
ENDBRANCH  30  33
ENDBRANCH  28  29
ENDBRANCH  27  28
ENDBRANCH   1  27
TORSDOF 16
