REMARK VINA RESULT:    -7.166      2.505      4.465
REMARK INTER + INTRA:         -14.407
REMARK INTER:                 -12.786
REMARK INTRA:                  -1.622
REMARK UNBOUND:                -1.585
REMARK  Name = lig_assembled_16.pdb
REMARK  14 active torsions:
REMARK  status: ('A' for Active; 'I' for Inactive)
REMARK    1  A    between atoms: _2  and  _8
REMARK    2  A    between atoms: _5  and  _6
REMARK    3  A    between atoms: _5  and  _17
REMARK    4  A    between atoms: _8  and  _9
REMARK    5  A    between atoms: _12  and  _13
REMARK    6  A    between atoms: _13  and  _15
REMARK    7  A    between atoms: _17  and  _19
REMARK    8  A    between atoms: _18  and  _23
REMARK    9  A    between atoms: _19  and  _22
REMARK   10  A    between atoms: _27  and  _37
REMARK   11  A    between atoms: _29  and  _30
REMARK   12  A    between atoms: _31  and  _33
REMARK   13  A    between atoms: _33  and  _35
REMARK   14  A    between atoms: _35  and  _37
REMARK                            x       y       z     vdW  Elec       q    Type
REMARK                         _______ _______ _______ _____ _____    ______ ____
ROOT
ATOM      1  C   UNL     1      27.865  16.145  -1.458  0.00  0.00    +0.400 C 
ATOM      2  N   UNL     1      28.169  15.051  -0.683  0.00  0.00    -0.278 N 
ATOM      3  H   UNL     1      29.026  15.370  -0.129  0.00  0.00    +0.152 HD
ATOM      4  O   UNL     1      28.455  17.198  -1.231  0.00  0.00    -0.226 OA
ENDROOT
BRANCH   2   5
ATOM      5  C   UNL     1      27.846  13.686  -0.276  0.00  0.00    +0.152 C 
BRANCH   5   6
ATOM      6  C   UNL     1      28.361  12.562  -1.198  0.00  0.00    +0.193 C 
ATOM      7  O   UNL     1      28.319  13.079  -2.546  0.00  0.00    -0.219 OA
BRANCH   6   8
ATOM      8  C   UNL     1      29.821  12.095  -1.010  0.00  0.00    +0.212 C 
ATOM      9  O   UNL     1      29.912  10.667  -1.141  0.00  0.00    -0.218 OA
BRANCH   8  10
ATOM     10  C   UNL     1      30.825  12.758  -2.028  0.00  0.00    +0.171 C 
ATOM     11  O   UNL     1      31.458  11.804  -2.875  0.00  0.00    -0.343 OA
ATOM     12  C   UNL     1      32.557  12.081  -3.692  0.00  0.00    +0.220 C 
ATOM     13  C   UNL     1      33.685  12.778  -2.912  0.00  0.00    +0.076 C 
ATOM     14  C   UNL     1      33.075  14.003  -2.210  0.00  0.00    +0.177 C 
ATOM     15  O   UNL     1      34.087  14.708  -1.506  0.00  0.00    -0.221 OA
ATOM     16  C   UNL     1      31.925  13.557  -1.255  0.00  0.00    +0.155 C 
BRANCH  16  17
ATOM     17  N   UNL     1      31.347  14.717  -0.581  0.00  0.00    -0.202 NA
ATOM     18  C   UNL     1      31.328  15.033   0.739  0.00  0.00    +0.242 C 
ATOM     19  C   UNL     1      30.926  16.431   1.134  0.00  0.00    +0.096 C 
ATOM     20  O   UNL     1      31.636  14.183   1.572  0.00  0.00    -0.273 OA
ENDBRANCH  16  17
BRANCH  12  21
ATOM     21  C   UNL     1      32.170  12.899  -5.041  0.00  0.00    +0.391 C 
ATOM     22  O   UNL     1      30.973  12.406  -5.415  0.00  0.00    -0.243 OA
ATOM     23  O   UNL     1      33.015  13.936  -5.100  0.00  0.00    -0.243 OA
ENDBRANCH  12  21
ENDBRANCH   8  10
ENDBRANCH   6   8
ENDBRANCH   5   6
ENDBRANCH   2   5
BRANCH   1  24
ATOM     24  O   UNL     1      26.991  15.945  -2.389  0.00  0.00    -0.450 OA
BRANCH  24  25
ATOM     25  C   UNL     1      26.391  16.640  -3.457  0.00  0.00    +0.240 C 
BRANCH  25  26
ATOM     26  C   UNL     1      25.838  15.804  -4.627  0.00  0.00    +0.100 C 
BRANCH  26  28
ATOM     27  N   UNL     1      24.061  14.093  -4.862  0.00  0.00    -0.134 NA
ATOM     28  C   UNL     1      24.520  15.245  -4.276  0.00  0.00    +0.086 A 
ATOM     29  C   UNL     1      23.586  15.690  -3.368  0.00  0.00    +0.134 A 
ATOM     30  N   UNL     1      22.632  14.718  -3.380  0.00  0.00    -0.247 N 
ATOM     31  N   UNL     1      22.892  13.787  -4.316  0.00  0.00    -0.065 NA
BRANCH  30  32
ATOM     32  C   UNL     1      21.471  14.597  -2.521  0.00  0.00    +0.180 C 
BRANCH  32  33
ATOM     33  C   UNL     1      21.724  13.631  -1.387  0.00  0.00    -0.026 A 
ATOM     34  C   UNL     1      20.698  13.292  -0.493  0.00  0.00    +0.006 A 
ATOM     35  C   UNL     1      20.928  12.369   0.531  0.00  0.00    +0.015 A 
ATOM     36  C   UNL     1      22.186  11.782   0.684  0.00  0.00    +0.059 A 
ATOM     37  C   UNL     1      23.226  12.128  -0.192  0.00  0.00    +0.015 A 
ATOM     38  C   UNL     1      22.995  13.057  -1.211  0.00  0.00    +0.006 A 
BRANCH  36  39
ATOM     39  C   UNL     1      22.354  10.751   1.743  0.00  0.00    +0.337 C 
ATOM     40  O   UNL     1      21.840   9.647   1.671  0.00  0.00    -0.245 OA
BRANCH  39  41
ATOM     41  O   UNL     1      23.090  11.156   2.795  0.00  0.00    -0.477 OA
ATOM     42  H   UNL     1      23.270  10.471   3.465  0.00  0.00    +0.295 HD
ENDBRANCH  39  41
ENDBRANCH  36  39
ENDBRANCH  32  33
ENDBRANCH  30  32
ENDBRANCH  26  28
ENDBRANCH  25  26
ENDBRANCH  24  25
ENDBRANCH   1  24
TORSDOF 14
