REMARK VINA RESULT:    -8.069      1.408      1.846
REMARK INTER + INTRA:         -16.501
REMARK INTER:                 -14.615
REMARK INTRA:                  -1.885
REMARK UNBOUND:                -1.120
REMARK  Name = lig_assembled_76.pdb
REMARK  16 active torsions:
REMARK  status: ('A' for Active; 'I' for Inactive)
REMARK    1  A    between atoms: _2  and  _8
REMARK    2  A    between atoms: _5  and  _6
REMARK    3  A    between atoms: _5  and  _18
REMARK    4  A    between atoms: _8  and  _9
REMARK    5  A    between atoms: _9  and  _10
REMARK    6  A    between atoms: _9  and  _17
REMARK    7  A    between atoms: _10  and  _11
REMARK    8  A    between atoms: _11  and  _12
REMARK    9  A    between atoms: _18  and  _20
REMARK   10  A    between atoms: _19  and  _24
REMARK   11  A    between atoms: _20  and  _23
REMARK   12  A    between atoms: _28  and  _38
REMARK   13  A    between atoms: _30  and  _31
REMARK   14  A    between atoms: _32  and  _34
REMARK   15  A    between atoms: _34  and  _36
REMARK   16  A    between atoms: _36  and  _38
REMARK                            x       y       z     vdW  Elec       q    Type
REMARK                         _______ _______ _______ _____ _____    ______ ____
ROOT
ATOM      1  C   UNL     1      27.827  17.394  -1.224  0.00  0.00    +0.400 C 
ATOM      2  N   UNL     1      28.241  16.268  -0.552  0.00  0.00    -0.278 N 
ATOM      3  H   UNL     1      28.446  16.630   0.433  0.00  0.00    +0.152 HD
ATOM      4  O   UNL     1      27.620  18.414  -0.573  0.00  0.00    -0.226 OA
ENDROOT
BRANCH   1   5
ATOM      5  O   UNL     1      27.723  17.273  -2.507  0.00  0.00    -0.450 OA
BRANCH   5   6
ATOM      6  C   UNL     1      26.734  17.327  -3.509  0.00  0.00    +0.240 C 
BRANCH   6   7
ATOM      7  C   UNL     1      26.419  16.023  -4.267  0.00  0.00    +0.100 C 
BRANCH   7   9
ATOM      8  N   UNL     1      24.550  15.829  -2.650  0.00  0.00    -0.134 NA
ATOM      9  C   UNL     1      25.106  15.496  -3.858  0.00  0.00    +0.086 A 
ATOM     10  C   UNL     1      24.261  14.637  -4.523  0.00  0.00    +0.133 A 
ATOM     11  N   UNL     1      23.208  14.493  -3.672  0.00  0.00    -0.249 N 
ATOM     12  N   UNL     1      23.386  15.199  -2.543  0.00  0.00    -0.065 NA
BRANCH  11  13
ATOM     13  C   UNL     1      22.077  13.603  -3.808  0.00  0.00    +0.176 C 
BRANCH  13  14
ATOM     14  C   UNL     1      20.769  14.222  -3.306  0.00  0.00    +0.136 C 
BRANCH  14  15
ATOM     15  O   UNL     1      19.860  14.412  -4.401  0.00  0.00    -0.390 OA
ATOM     16  H   UNL     1      20.358  14.392  -5.235  0.00  0.00    +0.210 HD
ENDBRANCH  14  15
BRANCH  14  17
ATOM     17  C   UNL     1      20.060  13.336  -2.270  0.00  0.00    +0.038 C 
BRANCH  17  18
ATOM     18  C   UNL     1      20.513  13.597  -0.833  0.00  0.00    +0.038 C 
BRANCH  18  19
ATOM     19  C   UNL     1      21.087  12.364  -0.185  0.00  0.00    -0.047 A 
ATOM     20  C   UNL     1      21.459  11.262  -0.968  0.00  0.00    +0.003 A 
ATOM     21  C   UNL     1      22.007  10.125  -0.373  0.00  0.00    +0.000 A 
ATOM     22  C   UNL     1      22.183  10.078   1.008  0.00  0.00    +0.000 A 
ATOM     23  C   UNL     1      21.806  11.165   1.796  0.00  0.00    +0.000 A 
ATOM     24  C   UNL     1      21.257  12.302   1.204  0.00  0.00    +0.003 A 
ENDBRANCH  18  19
ENDBRANCH  17  18
ENDBRANCH  14  17
ENDBRANCH  13  14
ENDBRANCH  11  13
ENDBRANCH   7   9
ENDBRANCH   6   7
ENDBRANCH   5   6
ENDBRANCH   1   5
BRANCH   2  25
ATOM     25  C   UNL     1      28.505  14.832  -0.575  0.00  0.00    +0.152 C 
BRANCH  25  26
ATOM     26  C   UNL     1      29.519  14.311   0.465  0.00  0.00    +0.193 C 
ATOM     27  O   UNL     1      29.697  12.902   0.201  0.00  0.00    -0.219 OA
BRANCH  26  28
ATOM     28  C   UNL     1      30.948  14.894   0.425  0.00  0.00    +0.212 C 
ATOM     29  O   UNL     1      30.948  16.254   0.891  0.00  0.00    -0.218 OA
BRANCH  28  30
ATOM     30  C   UNL     1      31.984  14.069   1.281  0.00  0.00    +0.171 C 
ATOM     31  O   UNL     1      32.299  14.699   2.518  0.00  0.00    -0.343 OA
ATOM     32  C   UNL     1      33.354  14.319   3.350  0.00  0.00    +0.220 C 
ATOM     33  C   UNL     1      34.679  14.207   2.576  0.00  0.00    +0.076 C 
ATOM     34  C   UNL     1      34.436  13.280   1.374  0.00  0.00    +0.177 C 
ATOM     35  O   UNL     1      35.643  13.110   0.645  0.00  0.00    -0.221 OA
ATOM     36  C   UNL     1      33.304  13.858   0.469  0.00  0.00    +0.155 C 
BRANCH  36  37
ATOM     37  N   UNL     1      33.074  12.983  -0.678  0.00  0.00    -0.202 NA
ATOM     38  C   UNL     1      33.110  13.265  -2.005  0.00  0.00    +0.242 C 
ATOM     39  C   UNL     1      33.127  12.117  -2.980  0.00  0.00    +0.096 C 
ATOM     40  O   UNL     1      33.128  14.437  -2.377  0.00  0.00    -0.273 OA
ENDBRANCH  36  37
BRANCH  32  41
ATOM     41  C   UNL     1      33.049  12.974   4.208  0.00  0.00    +0.391 C 
ATOM     42  O   UNL     1      34.192  12.721   4.875  0.00  0.00    -0.243 OA
ATOM     43  O   UNL     1      31.722  12.803   4.168  0.00  0.00    -0.243 OA
ENDBRANCH  32  41
ENDBRANCH  28  30
ENDBRANCH  26  28
ENDBRANCH  25  26
ENDBRANCH   2  25
TORSDOF 16
