REMARK VINA RESULT:    -6.517      3.400      8.593
REMARK INTER + INTRA:         -14.383
REMARK INTER:                 -12.030
REMARK INTRA:                  -2.352
REMARK UNBOUND:                -2.913
REMARK  Name = lig_assembled_92.pdb
REMARK  13 active torsions:
REMARK  status: ('A' for Active; 'I' for Inactive)
REMARK    1  A    between atoms: _2  and  _10
REMARK    2  A    between atoms: _3  and  _49
REMARK    3  A    between atoms: _7  and  _8
REMARK    4  A    between atoms: _7  and  _20
REMARK    5  A    between atoms: _13  and  _49
REMARK    6  A    between atoms: _20  and  _22
REMARK    7  A    between atoms: _21  and  _26
REMARK    8  A    between atoms: _22  and  _25
REMARK    9  A    between atoms: _30  and  _40
REMARK   10  A    between atoms: _32  and  _33
REMARK   11  A    between atoms: _34  and  _36
REMARK   12  A    between atoms: _36  and  _38
REMARK   13  A    between atoms: _38  and  _40
REMARK                            x       y       z     vdW  Elec       q    Type
REMARK                         _______ _______ _______ _____ _____    ______ ____
ROOT
ATOM      1  O   UNL     1      25.232  15.391  -4.909  0.00  0.00    -0.450 OA
ENDROOT
BRANCH   1   2
ATOM      2  C   UNL     1      24.325  14.674  -4.332  0.00  0.00    +0.400 C 
ATOM      3  N   UNL     1      24.784  13.591  -3.621  0.00  0.00    -0.278 N 
ATOM      4  H   UNL     1      23.922  13.267  -3.079  0.00  0.00    +0.152 HD
ATOM      5  O   UNL     1      23.116  14.891  -4.340  0.00  0.00    -0.226 OA
BRANCH   3   6
ATOM      6  C   UNL     1      25.892  12.697  -3.293  0.00  0.00    +0.152 C 
BRANCH   6   7
ATOM      7  C   UNL     1      25.922  12.154  -1.850  0.00  0.00    +0.193 C 
ATOM      8  O   UNL     1      25.498  13.235  -0.990  0.00  0.00    -0.219 OA
BRANCH   7   9
ATOM      9  C   UNL     1      24.969  10.989  -1.504  0.00  0.00    +0.212 C 
ATOM     10  O   UNL     1      25.397   9.780  -2.151  0.00  0.00    -0.218 OA
BRANCH   9  11
ATOM     11  C   UNL     1      24.852  10.717   0.045  0.00  0.00    +0.171 C 
ATOM     12  O   UNL     1      25.621   9.594   0.463  0.00  0.00    -0.343 OA
ATOM     13  C   UNL     1      25.513   8.987   1.716  0.00  0.00    +0.220 C 
ATOM     14  C   UNL     1      24.051   8.659   2.067  0.00  0.00    +0.076 C 
ATOM     15  C   UNL     1      23.234   9.952   1.900  0.00  0.00    +0.177 C 
ATOM     16  O   UNL     1      21.879   9.713   2.251  0.00  0.00    -0.221 OA
ATOM     17  C   UNL     1      23.357  10.480   0.437  0.00  0.00    +0.155 C 
BRANCH  17  18
ATOM     18  N   UNL     1      22.577  11.704   0.273  0.00  0.00    -0.202 NA
ATOM     19  C   UNL     1      21.530  11.962  -0.551  0.00  0.00    +0.242 C 
ATOM     20  C   UNL     1      20.720  13.210  -0.310  0.00  0.00    +0.096 C 
ATOM     21  O   UNL     1      21.268  11.181  -1.463  0.00  0.00    -0.273 OA
ENDBRANCH  17  18
BRANCH  13  22
ATOM     22  C   UNL     1      26.238   9.823   2.905  0.00  0.00    +0.391 C 
ATOM     23  O   UNL     1      25.871   9.200   4.042  0.00  0.00    -0.243 OA
ATOM     24  O   UNL     1      27.146  10.604   2.307  0.00  0.00    -0.243 OA
ENDBRANCH  13  22
ENDBRANCH   9  11
ENDBRANCH   7   9
ENDBRANCH   6   7
ENDBRANCH   3   6
ENDBRANCH   1   2
BRANCH   1  25
ATOM     25  C   UNL     1      26.349  16.178  -4.568  0.00  0.00    +0.240 C 
BRANCH  25  26
ATOM     26  C   UNL     1      26.151  17.264  -3.493  0.00  0.00    +0.100 C 
BRANCH  26  28
ATOM     27  N   UNL     1      27.470  18.073  -1.555  0.00  0.00    -0.134 NA
ATOM     28  C   UNL     1      27.080  17.048  -2.368  0.00  0.00    +0.086 A 
ATOM     29  C   UNL     1      27.677  15.885  -1.941  0.00  0.00    +0.139 A 
ATOM     30  N   UNL     1      28.408  16.246  -0.833  0.00  0.00    -0.220 N 
ATOM     31  N   UNL     1      28.281  17.580  -0.629  0.00  0.00    -0.061 NA
BRANCH  30  32
ATOM     32  C   UNL     1      29.166  15.415   0.031  0.00  0.00    +0.067 A 
ATOM     33  C   UNL     1      28.600  14.251   0.572  0.00  0.00    +0.030 A 
ATOM     34  C   UNL     1      29.327  13.469   1.468  0.00  0.00    +0.031 A 
ATOM     35  C   UNL     1      30.627  13.838   1.817  0.00  0.00    +0.109 A 
ATOM     36  C   UNL     1      31.208  14.989   1.279  0.00  0.00    +0.031 A 
ATOM     37  C   UNL     1      30.481  15.773   0.376  0.00  0.00    +0.030 A 
BRANCH  35  38
ATOM     38  S   UNL     1      31.463  12.905   3.071  0.00  0.00    +0.074 S 
ATOM     39  O   UNL     1      30.585  12.837   4.223  0.00  0.00    -0.150 OA
ATOM     40  O   UNL     1      31.977  11.691   2.480  0.00  0.00    -0.150 OA
BRANCH  38  41
ATOM     41  N   UNL     1      32.726  13.920   3.544  0.00  0.00    -0.194 N 
ATOM     42  H   UNL     1      32.593  14.097   4.537  0.00  0.00    +0.176 HD
ATOM     43  C   UNL     1      33.989  13.377   3.235  0.00  0.00    +0.177 A 
ATOM     44  S   UNL     1      34.939  12.537   4.382  0.00  0.00    -0.059 S 
ATOM     45  C   UNL     1      36.196  12.417   3.219  0.00  0.00    +0.068 A 
ATOM     46  C   UNL     1      35.828  13.093   2.074  0.00  0.00    +0.120 A 
ATOM     47  N   UNL     1      34.548  13.616   2.074  0.00  0.00    -0.232 NA
ENDBRANCH  38  41
ENDBRANCH  35  38
ENDBRANCH  30  32
ENDBRANCH  26  28
ENDBRANCH  25  26
ENDBRANCH   1  25
TORSDOF 13
