REMARK VINA RESULT:    -6.272      1.394      2.049
REMARK INTER + INTRA:         -14.226
REMARK INTER:                 -11.880
REMARK INTRA:                  -2.346
REMARK UNBOUND:                -1.720
REMARK  Name = lig_assembled_54.pdb
REMARK  19 active torsions:
REMARK  status: ('A' for Active; 'I' for Inactive)
REMARK    1  A    between atoms: _2  and  _8
REMARK    2  A    between atoms: _4  and  _13
REMARK    3  A    between atoms: _5  and  _6
REMARK    4  A    between atoms: _5  and  _16
REMARK    5  A    between atoms: _8  and  _9
REMARK    6  A    between atoms: _9  and  _10
REMARK    7  A    between atoms: _10  and  _14
REMARK    8  A    between atoms: _10  and  _15
REMARK    9  A    between atoms: _11  and  _12
REMARK   10  A    between atoms: _11  and  _15
REMARK   11  A    between atoms: _13  and  _14
REMARK   12  A    between atoms: _16  and  _18
REMARK   13  A    between atoms: _17  and  _22
REMARK   14  A    between atoms: _18  and  _21
REMARK   15  A    between atoms: _26  and  _36
REMARK   16  A    between atoms: _28  and  _29
REMARK   17  A    between atoms: _30  and  _32
REMARK   18  A    between atoms: _32  and  _34
REMARK   19  A    between atoms: _34  and  _36
REMARK                            x       y       z     vdW  Elec       q    Type
REMARK                         _______ _______ _______ _____ _____    ______ ____
ROOT
ATOM      1  C   UNL     1      27.925  17.279  -1.029  0.00  0.00    +0.400 C 
ATOM      2  N   UNL     1      28.303  16.232  -0.222  0.00  0.00    -0.278 N 
ATOM      3  H   UNL     1      28.549  16.708   0.702  0.00  0.00    +0.152 HD
ATOM      4  O   UNL     1      27.780  18.385  -0.513  0.00  0.00    -0.226 OA
ENDROOT
BRANCH   1   5
ATOM      5  O   UNL     1      27.785  16.998  -2.283  0.00  0.00    -0.450 OA
BRANCH   5   6
ATOM      6  C   UNL     1      26.985  17.375  -3.379  0.00  0.00    +0.240 C 
BRANCH   6   7
ATOM      7  C   UNL     1      26.365  16.248  -4.228  0.00  0.00    +0.100 C 
BRANCH   7   9
ATOM      8  N   UNL     1      27.162  13.972  -3.667  0.00  0.00    -0.134 NA
ATOM      9  C   UNL     1      26.291  15.004  -3.438  0.00  0.00    +0.086 A 
ATOM     10  C   UNL     1      25.444  14.660  -2.407  0.00  0.00    +0.133 A 
ATOM     11  N   UNL     1      25.876  13.425  -2.026  0.00  0.00    -0.251 N 
ATOM     12  N   UNL     1      26.904  13.011  -2.789  0.00  0.00    -0.065 NA
BRANCH  11  13
ATOM     13  C   UNL     1      25.409  12.610  -0.923  0.00  0.00    +0.150 C 
BRANCH  13  14
ATOM     14  C   UNL     1      23.904  12.726  -0.733  0.00  0.00    +0.084 C 
BRANCH  14  15
ATOM     15  C   UNL     1      23.104  11.720  -1.567  0.00  0.00    +0.252 C 
BRANCH  15  16
ATOM     16  O   UNL     1      21.872  12.306  -1.998  0.00  0.00    -0.352 OA
BRANCH  16  17
ATOM     17  C   UNL     1      21.708  13.669  -1.611  0.00  0.00    +0.159 C 
ATOM     18  C   UNL     1      20.276  13.881  -1.161  0.00  0.00    +0.034 C 
ENDBRANCH  16  17
ENDBRANCH  15  16
BRANCH  15  19
ATOM     19  O   UNL     1      22.837  10.583  -0.737  0.00  0.00    -0.352 OA
BRANCH  19  20
ATOM     20  C   UNL     1      23.356   9.371  -1.287  0.00  0.00    +0.159 C 
ATOM     21  C   UNL     1      24.564   8.938  -0.482  0.00  0.00    +0.034 C 
ENDBRANCH  19  20
ENDBRANCH  15  19
ENDBRANCH  14  15
ENDBRANCH  13  14
ENDBRANCH  11  13
ENDBRANCH   7   9
ENDBRANCH   6   7
ENDBRANCH   5   6
ENDBRANCH   1   5
BRANCH   2  22
ATOM     22  C   UNL     1      28.502  14.794  -0.062  0.00  0.00    +0.152 C 
BRANCH  22  23
ATOM     23  C   UNL     1      29.555  14.365   0.980  0.00  0.00    +0.193 C 
ATOM     24  O   UNL     1      29.704  12.934   0.856  0.00  0.00    -0.219 OA
BRANCH  23  25
ATOM     25  C   UNL     1      30.989  14.917   0.816  0.00  0.00    +0.212 C 
ATOM     26  O   UNL     1      31.076  16.252   1.339  0.00  0.00    -0.218 OA
BRANCH  25  27
ATOM     27  C   UNL     1      32.084  14.028   1.520  0.00  0.00    +0.171 C 
ATOM     28  O   UNL     1      32.482  14.548   2.785  0.00  0.00    -0.343 OA
ATOM     29  C   UNL     1      33.593  14.105   3.505  0.00  0.00    +0.220 C 
ATOM     30  C   UNL     1      34.862  14.077   2.635  0.00  0.00    +0.076 C 
ATOM     31  C   UNL     1      34.540  13.259   1.373  0.00  0.00    +0.177 C 
ATOM     32  O   UNL     1      35.695  13.168   0.551  0.00  0.00    -0.221 OA
ATOM     33  C   UNL     1      33.346  13.905   0.604  0.00  0.00    +0.155 C 
BRANCH  33  34
ATOM     34  N   UNL     1      33.041  13.135  -0.599  0.00  0.00    -0.202 NA
ATOM     35  C   UNL     1      33.110  13.501  -1.904  0.00  0.00    +0.242 C 
ATOM     36  C   UNL     1      33.025  12.425  -2.955  0.00  0.00    +0.096 C 
ATOM     37  O   UNL     1      33.240  14.688  -2.196  0.00  0.00    -0.273 OA
ENDBRANCH  33  34
BRANCH  29  38
ATOM     38  C   UNL     1      33.354  12.685   4.257  0.00  0.00    +0.391 C 
ATOM     39  O   UNL     1      34.565  12.333   4.729  0.00  0.00    -0.243 OA
ATOM     40  O   UNL     1      32.028  12.553   4.384  0.00  0.00    -0.243 OA
ENDBRANCH  29  38
ENDBRANCH  25  27
ENDBRANCH  23  25
ENDBRANCH  22  23
ENDBRANCH   2  22
TORSDOF 17
