REMARK VINA RESULT:    -6.083      3.278      9.385
REMARK INTER + INTRA:         -13.226
REMARK INTER:                 -11.291
REMARK INTRA:                  -1.935
REMARK UNBOUND:                -1.808
REMARK  Name = lig_assembled_43.pdb
REMARK  15 active torsions:
REMARK  status: ('A' for Active; 'I' for Inactive)
REMARK    1  A    between atoms: _2  and  _8
REMARK    2  A    between atoms: _5  and  _6
REMARK    3  A    between atoms: _5  and  _13
REMARK    4  A    between atoms: _8  and  _9
REMARK    5  A    between atoms: _9  and  _10
REMARK    6  A    between atoms: _10  and  _11
REMARK    7  A    between atoms: _11  and  _12
REMARK    8  A    between atoms: _13  and  _15
REMARK    9  A    between atoms: _14  and  _19
REMARK   10  A    between atoms: _15  and  _18
REMARK   11  A    between atoms: _23  and  _33
REMARK   12  A    between atoms: _25  and  _26
REMARK   13  A    between atoms: _27  and  _29
REMARK   14  A    between atoms: _29  and  _31
REMARK   15  A    between atoms: _31  and  _33
REMARK                            x       y       z     vdW  Elec       q    Type
REMARK                         _______ _______ _______ _____ _____    ______ ____
ROOT
ATOM      1  C   UNL     1      27.085  17.266  -3.500  0.00  0.00    +0.152 C 
ENDROOT
BRANCH   1   3
ATOM      2  C   UNL     1      27.939  17.923  -0.993  0.00  0.00    +0.400 C 
ATOM      3  N   UNL     1      27.163  17.686  -2.103  0.00  0.00    -0.278 N 
ATOM      4  H   UNL     1      26.178  17.941  -1.776  0.00  0.00    +0.152 HD
ATOM      5  O   UNL     1      27.422  18.495  -0.037  0.00  0.00    -0.226 OA
BRANCH   2   6
ATOM      6  O   UNL     1      29.153  17.483  -1.054  0.00  0.00    -0.450 OA
BRANCH   6   7
ATOM      7  C   UNL     1      30.118  16.892  -0.216  0.00  0.00    +0.240 C 
BRANCH   7   8
ATOM      8  C   UNL     1      29.930  15.408   0.150  0.00  0.00    +0.100 C 
BRANCH   8  10
ATOM      9  N   UNL     1      31.399  14.514   1.932  0.00  0.00    -0.134 NA
ATOM     10  C   UNL     1      31.205  14.828   0.611  0.00  0.00    +0.086 A 
ATOM     11  C   UNL     1      32.345  14.519  -0.096  0.00  0.00    +0.133 A 
ATOM     12  N   UNL     1      33.194  14.029   0.849  0.00  0.00    -0.251 N 
ATOM     13  N   UNL     1      32.625  14.024   2.066  0.00  0.00    -0.065 NA
BRANCH  12  14
ATOM     14  C   UNL     1      34.558  13.579   0.676  0.00  0.00    +0.145 C 
BRANCH  14  15
ATOM     15  C   UNL     1      35.045  13.812  -0.751  0.00  0.00    +0.024 C 
BRANCH  15  16
ATOM     16  C   UNL     1      35.237  12.500  -1.515  0.00  0.00    +0.006 C 
BRANCH  16  17
ATOM     17  C   UNL     1      34.096  12.289  -2.513  0.00  0.00    +0.026 C 
BRANCH  17  18
ATOM     18  C   UNL     1      34.350  12.992  -3.813  0.00  0.00    -0.034 C 
ATOM     19  C   UNL     1      33.616  14.020  -4.261  0.00  0.00    +0.004 C 
ENDBRANCH  17  18
ENDBRANCH  16  17
ENDBRANCH  15  16
ENDBRANCH  14  15
ENDBRANCH  12  14
ENDBRANCH   8  10
ENDBRANCH   7   8
ENDBRANCH   6   7
ENDBRANCH   2   6
ENDBRANCH   1   3
BRANCH   1  20
ATOM     20  C   UNL     1      26.074  16.145  -3.817  0.00  0.00    +0.193 C 
ATOM     21  O   UNL     1      26.083  15.971  -5.251  0.00  0.00    -0.219 OA
BRANCH  20  22
ATOM     22  C   UNL     1      26.370  14.736  -3.256  0.00  0.00    +0.212 C 
ATOM     23  O   UNL     1      27.157  14.829  -2.058  0.00  0.00    -0.218 OA
BRANCH  22  24
ATOM     24  C   UNL     1      25.069  13.904  -2.942  0.00  0.00    +0.171 C 
ATOM     25  O   UNL     1      24.141  14.621  -2.134  0.00  0.00    -0.343 OA
ATOM     26  C   UNL     1      23.031  14.047  -1.510  0.00  0.00    +0.220 C 
ATOM     27  C   UNL     1      23.413  12.790  -0.710  0.00  0.00    +0.076 C 
ATOM     28  C   UNL     1      24.178  11.853  -1.659  0.00  0.00    +0.177 C 
ATOM     29  O   UNL     1      24.521  10.654  -0.979  0.00  0.00    -0.221 OA
ATOM     30  C   UNL     1      25.447  12.571  -2.216  0.00  0.00    +0.155 C 
BRANCH  30  31
ATOM     31  N   UNL     1      26.181  11.681  -3.113  0.00  0.00    -0.202 NA
ATOM     32  C   UNL     1      27.424  11.152  -2.984  0.00  0.00    +0.242 C 
ATOM     33  C   UNL     1      27.824  10.032  -3.908  0.00  0.00    +0.096 C 
ATOM     34  O   UNL     1      28.186  11.593  -2.125  0.00  0.00    -0.273 OA
ENDBRANCH  30  31
BRANCH  26  35
ATOM     35  C   UNL     1      21.796  13.757  -2.526  0.00  0.00    +0.391 C 
ATOM     36  O   UNL     1      20.981  12.923  -1.851  0.00  0.00    -0.243 OA
ATOM     37  O   UNL     1      21.897  14.669  -3.501  0.00  0.00    -0.243 OA
ENDBRANCH  26  35
ENDBRANCH  22  24
ENDBRANCH  20  22
ENDBRANCH   1  20
TORSDOF 15
