REMARK VINA RESULT:    -7.180      1.647      2.441
REMARK INTER + INTRA:         -14.814
REMARK INTER:                 -12.447
REMARK INTRA:                  -2.367
REMARK UNBOUND:                -2.596
REMARK  Name = lig_assembled_4.pdb
REMARK  14 active torsions:
REMARK  status: ('A' for Active; 'I' for Inactive)
REMARK    1  A    between atoms: _2  and  _8
REMARK    2  A    between atoms: _5  and  _6
REMARK    3  A    between atoms: _5  and  _16
REMARK    4  A    between atoms: _9  and  _10
REMARK    5  A    between atoms: _10  and  _11
REMARK    6  A    between atoms: _10  and  _12
REMARK    7  A    between atoms: _16  and  _18
REMARK    8  A    between atoms: _17  and  _22
REMARK    9  A    between atoms: _18  and  _21
REMARK   10  A    between atoms: _26  and  _36
REMARK   11  A    between atoms: _28  and  _29
REMARK   12  A    between atoms: _30  and  _32
REMARK   13  A    between atoms: _32  and  _34
REMARK   14  A    between atoms: _34  and  _36
REMARK                            x       y       z     vdW  Elec       q    Type
REMARK                         _______ _______ _______ _____ _____    ______ ____
ROOT
ATOM      1  C   UNL     1      28.200  16.917  -0.790  0.00  0.00    +0.400 C 
ATOM      2  N   UNL     1      28.339  15.634  -0.317  0.00  0.00    -0.278 N 
ATOM      3  H   UNL     1      28.758  15.773   0.656  0.00  0.00    +0.152 HD
ATOM      4  O   UNL     1      28.384  17.846  -0.008  0.00  0.00    -0.226 OA
ENDROOT
BRANCH   2   5
ATOM      5  C   UNL     1      28.162  14.200  -0.536  0.00  0.00    +0.152 C 
BRANCH   5   6
ATOM      6  C   UNL     1      27.920  13.345   0.725  0.00  0.00    +0.193 C 
ATOM      7  O   UNL     1      28.489  12.044   0.459  0.00  0.00    -0.219 OA
BRANCH   6   8
ATOM      8  C   UNL     1      28.595  13.800   2.038  0.00  0.00    +0.212 C 
ATOM      9  O   UNL     1      27.620  13.926   3.086  0.00  0.00    -0.218 OA
BRANCH   8  10
ATOM     10  C   UNL     1      29.735  12.825   2.524  0.00  0.00    +0.171 C 
ATOM     11  O   UNL     1      29.507  12.329   3.839  0.00  0.00    -0.343 OA
ATOM     12  C   UNL     1      30.461  11.652   4.602  0.00  0.00    +0.220 C 
ATOM     13  C   UNL     1      31.795  12.416   4.657  0.00  0.00    +0.076 C 
ATOM     14  C   UNL     1      32.217  12.715   3.209  0.00  0.00    +0.177 C 
ATOM     15  O   UNL     1      33.469  13.388   3.201  0.00  0.00    -0.221 OA
ATOM     16  C   UNL     1      31.117  13.556   2.491  0.00  0.00    +0.155 C 
BRANCH  16  17
ATOM     17  N   UNL     1      31.517  13.848   1.117  0.00  0.00    -0.202 NA
ATOM     18  C   UNL     1      31.615  15.040   0.476  0.00  0.00    +0.242 C 
ATOM     19  C   UNL     1      32.334  15.084  -0.847  0.00  0.00    +0.096 C 
ATOM     20  O   UNL     1      31.123  16.046   0.984  0.00  0.00    -0.273 OA
ENDBRANCH  16  17
BRANCH  12  21
ATOM     21  C   UNL     1      30.676  10.108   4.146  0.00  0.00    +0.391 C 
ATOM     22  O   UNL     1      29.482   9.720   3.658  0.00  0.00    -0.243 OA
ATOM     23  O   UNL     1      31.999   9.903   4.144  0.00  0.00    -0.243 OA
ENDBRANCH  12  21
ENDBRANCH   8  10
ENDBRANCH   6   8
ENDBRANCH   5   6
ENDBRANCH   2   5
BRANCH   1  24
ATOM     24  O   UNL     1      27.913  17.022  -2.046  0.00  0.00    -0.450 OA
BRANCH  24  25
ATOM     25  C   UNL     1      26.829  17.392  -2.867  0.00  0.00    +0.240 C 
BRANCH  25  26
ATOM     26  C   UNL     1      26.506  16.484  -4.069  0.00  0.00    +0.100 C 
BRANCH  26  28
ATOM     27  N   UNL     1      24.992  14.617  -4.627  0.00  0.00    -0.134 NA
ATOM     28  C   UNL     1      25.514  15.458  -3.695  0.00  0.00    +0.086 A 
ATOM     29  C   UNL     1      24.939  15.192  -2.473  0.00  0.00    +0.139 A 
ATOM     30  N   UNL     1      23.961  14.253  -2.739  0.00  0.00    -0.220 N 
ATOM     31  N   UNL     1      24.069  13.872  -4.030  0.00  0.00    -0.061 NA
BRANCH  30  32
ATOM     32  C   UNL     1      22.966  13.757  -1.843  0.00  0.00    +0.070 A 
ATOM     33  C   UNL     1      23.209  12.720  -0.902  0.00  0.00    -0.019 A 
ATOM     34  C   UNL     1      22.125  12.304  -0.096  0.00  0.00    +0.006 A 
ATOM     35  C   UNL     1      20.853  12.868  -0.215  0.00  0.00    +0.000 A 
ATOM     36  C   UNL     1      20.631  13.884  -1.130  0.00  0.00    +0.002 A 
ATOM     37  C   UNL     1      21.676  14.325  -1.940  0.00  0.00    +0.028 A 
BRANCH  33  38
ATOM     38  C   UNL     1      24.559  12.024  -0.716  0.00  0.00    +0.015 C 
ATOM     39  C   UNL     1      24.853  10.896  -1.718  0.00  0.00    +0.012 C 
ATOM     40  C   UNL     1      24.679  11.491   0.714  0.00  0.00    +0.012 C 
ENDBRANCH  33  38
ENDBRANCH  30  32
ENDBRANCH  26  28
ENDBRANCH  25  26
ENDBRANCH  24  25
ENDBRANCH   1  24
TORSDOF 12
