REMARK VINA RESULT:    -7.125      3.122      5.073
REMARK INTER + INTRA:         -14.236
REMARK INTER:                 -11.373
REMARK INTRA:                  -2.863
REMARK UNBOUND:                -1.904
REMARK  Name = lig_assembled_73.pdb
REMARK  13 active torsions:
REMARK  status: ('A' for Active; 'I' for Inactive)
REMARK    1  A    between atoms: _2  and  _9
REMARK    2  A    between atoms: _3  and  _13
REMARK    3  A    between atoms: _6  and  _7
REMARK    4  A    between atoms: _6  and  _17
REMARK    5  A    between atoms: _12  and  _15
REMARK    6  A    between atoms: _17  and  _19
REMARK    7  A    between atoms: _18  and  _23
REMARK    8  A    between atoms: _19  and  _22
REMARK    9  A    between atoms: _27  and  _37
REMARK   10  A    between atoms: _29  and  _30
REMARK   11  A    between atoms: _31  and  _33
REMARK   12  A    between atoms: _33  and  _35
REMARK   13  A    between atoms: _35  and  _37
REMARK                            x       y       z     vdW  Elec       q    Type
REMARK                         _______ _______ _______ _____ _____    ______ ____
ROOT
ATOM      1  C   UNL     1      30.337  10.658  -1.459  0.00  0.00    +0.400 C 
ATOM      2  N   UNL     1      30.544  11.667  -0.548  0.00  0.00    -0.278 N 
ATOM      3  H   UNL     1      31.490  12.071  -0.836  0.00  0.00    +0.152 HD
ATOM      4  O   UNL     1      31.104  10.576  -2.416  0.00  0.00    -0.226 OA
ENDROOT
BRANCH   2   5
ATOM      5  C   UNL     1      30.055  12.425   0.601  0.00  0.00    +0.152 C 
BRANCH   5   6
ATOM      6  C   UNL     1      30.064  13.961   0.455  0.00  0.00    +0.193 C 
ATOM      7  O   UNL     1      29.115  14.475   1.415  0.00  0.00    -0.219 OA
BRANCH   6   8
ATOM      8  C   UNL     1      31.380  14.702   0.780  0.00  0.00    +0.212 C 
ATOM      9  O   UNL     1      31.123  15.833   1.628  0.00  0.00    -0.218 OA
BRANCH   8  10
ATOM     10  C   UNL     1      32.458  13.785   1.475  0.00  0.00    +0.171 C 
ATOM     11  O   UNL     1      32.764  14.209   2.800  0.00  0.00    -0.343 OA
ATOM     12  C   UNL     1      33.844  13.735   3.548  0.00  0.00    +0.220 C 
ATOM     13  C   UNL     1      35.163  13.810   2.758  0.00  0.00    +0.076 C 
ATOM     14  C   UNL     1      34.940  13.091   1.418  0.00  0.00    +0.177 C 
ATOM     15  O   UNL     1      36.143  13.096   0.662  0.00  0.00    -0.221 OA
ATOM     16  C   UNL     1      33.774  13.769   0.632  0.00  0.00    +0.155 C 
BRANCH  16  17
ATOM     17  N   UNL     1      33.564  13.093  -0.646  0.00  0.00    -0.202 NA
ATOM     18  C   UNL     1      33.485  13.610  -1.899  0.00  0.00    +0.242 C 
ATOM     19  C   UNL     1      33.559  12.664  -3.069  0.00  0.00    +0.096 C 
ATOM     20  O   UNL     1      33.358  14.823  -2.048  0.00  0.00    -0.273 OA
ENDBRANCH  16  17
BRANCH  12  21
ATOM     21  C   UNL     1      33.602  12.253   4.167  0.00  0.00    +0.391 C 
ATOM     22  O   UNL     1      34.830  11.814   4.509  0.00  0.00    -0.243 OA
ATOM     23  O   UNL     1      32.285  12.152   4.381  0.00  0.00    -0.243 OA
ENDBRANCH  12  21
ENDBRANCH   8  10
ENDBRANCH   6   8
ENDBRANCH   5   6
ENDBRANCH   2   5
BRANCH   1  24
ATOM     24  O   UNL     1      29.355   9.860  -1.198  0.00  0.00    -0.450 OA
BRANCH  24  25
ATOM     25  C   UNL     1      27.947   9.850  -1.240  0.00  0.00    +0.240 C 
BRANCH  25  26
ATOM     26  C   UNL     1      27.276   9.970  -2.621  0.00  0.00    +0.100 C 
BRANCH  26  28
ATOM     27  N   UNL     1      25.712  11.633  -3.577  0.00  0.00    -0.134 NA
ATOM     28  C   UNL     1      26.840  11.359  -2.860  0.00  0.00    +0.086 A 
ATOM     29  C   UNL     1      27.414  12.543  -2.455  0.00  0.00    +0.139 A 
ATOM     30  N   UNL     1      26.586  13.525  -2.948  0.00  0.00    -0.220 N 
ATOM     31  N   UNL     1      25.565  12.950  -3.625  0.00  0.00    -0.061 NA
BRANCH  30  32
ATOM     32  C   UNL     1      26.706  14.934  -2.822  0.00  0.00    +0.074 A 
ATOM     33  C   UNL     1      26.017  15.773  -3.716  0.00  0.00    +0.032 A 
ATOM     34  C   UNL     1      26.127  17.167  -3.618  0.00  0.00    +0.054 A 
ATOM     35  C   UNL     1      26.929  17.734  -2.629  0.00  0.00    +0.195 A 
ATOM     36  C   UNL     1      27.609  16.897  -1.747  0.00  0.00    +0.316 A 
ATOM     37  C   UNL     1      27.506  15.500  -1.822  0.00  0.00    +0.116 A 
BRANCH  36  38
ATOM     38  N   UNL     1      28.459  17.456  -0.714  0.00  0.00    +0.083 N 
ATOM     39  O   UNL     1      29.677  17.252  -0.802  0.00  0.00    +0.042 OA
ATOM     40  O   UNL     1      27.888  18.021   0.230  0.00  0.00    -0.576 OA
ENDBRANCH  36  38
BRANCH  35  41
ATOM     41  O   UNL     1      27.019  19.090  -2.521  0.00  0.00    -0.501 OA
ATOM     42  H   UNL     1      26.435  19.408  -1.811  0.00  0.00    +0.292 HD
ENDBRANCH  35  41
ENDBRANCH  30  32
ENDBRANCH  26  28
ENDBRANCH  25  26
ENDBRANCH  24  25
ENDBRANCH   1  24
TORSDOF 13
