REMARK VINA RESULT:    -5.755      2.761      8.969
REMARK INTER + INTRA:         -12.699
REMARK INTER:                 -11.455
REMARK INTRA:                  -1.244
REMARK UNBOUND:                -2.235
REMARK  Name = lig_assembled_50.pdb
REMARK  15 active torsions:
REMARK  status: ('A' for Active; 'I' for Inactive)
REMARK    1  A    between atoms: _2  and  _8
REMARK    2  A    between atoms: _4  and  _9
REMARK    3  A    between atoms: _4  and  _10
REMARK    4  A    between atoms: _5  and  _6
REMARK    5  A    between atoms: _5  and  _12
REMARK    6  A    between atoms: _8  and  _9
REMARK    7  A    between atoms: _9  and  _11
REMARK    8  A    between atoms: _12  and  _14
REMARK    9  A    between atoms: _13  and  _18
REMARK   10  A    between atoms: _14  and  _17
REMARK   11  A    between atoms: _22  and  _32
REMARK   12  A    between atoms: _24  and  _25
REMARK   13  A    between atoms: _26  and  _28
REMARK   14  A    between atoms: _28  and  _30
REMARK   15  A    between atoms: _30  and  _32
REMARK                            x       y       z     vdW  Elec       q    Type
REMARK                         _______ _______ _______ _____ _____    ______ ____
ROOT
ATOM      1  C   UNL     1      27.513  17.694  -1.715  0.00  0.00    +0.400 C 
ATOM      2  N   UNL     1      26.449  17.203  -2.435  0.00  0.00    -0.278 N 
ATOM      3  H   UNL     1      25.696  17.951  -2.306  0.00  0.00    +0.152 HD
ATOM      4  O   UNL     1      27.442  18.844  -1.290  0.00  0.00    -0.226 OA
ENDROOT
BRANCH   2   5
ATOM      5  C   UNL     1      25.904  16.150  -3.289  0.00  0.00    +0.152 C 
BRANCH   5   6
ATOM      6  C   UNL     1      25.112  15.037  -2.573  0.00  0.00    +0.193 C 
ATOM      7  O   UNL     1      23.989  14.715  -3.422  0.00  0.00    -0.219 OA
BRANCH   6   8
ATOM      8  C   UNL     1      25.824  13.685  -2.347  0.00  0.00    +0.212 C 
ATOM      9  O   UNL     1      27.195  13.762  -2.771  0.00  0.00    -0.218 OA
BRANCH   8  10
ATOM     10  C   UNL     1      25.787  13.202  -0.847  0.00  0.00    +0.171 C 
ATOM     11  O   UNL     1      26.999  12.573  -0.444  0.00  0.00    -0.343 OA
ATOM     12  C   UNL     1      27.154  11.844   0.738  0.00  0.00    +0.220 C 
ATOM     13  C   UNL     1      26.046  10.789   0.906  0.00  0.00    +0.076 C 
ATOM     14  C   UNL     1      24.695  11.509   0.762  0.00  0.00    +0.177 C 
ATOM     15  O   UNL     1      23.634  10.584   0.949  0.00  0.00    -0.221 OA
ATOM     16  C   UNL     1      24.603  12.204  -0.632  0.00  0.00    +0.155 C 
BRANCH  16  17
ATOM     17  N   UNL     1      23.318  12.884  -0.776  0.00  0.00    -0.202 NA
ATOM     18  C   UNL     1      22.169  12.454  -1.355  0.00  0.00    +0.242 C 
ATOM     19  C   UNL     1      20.905  13.236  -1.106  0.00  0.00    +0.096 C 
ATOM     20  O   UNL     1      22.183  11.447  -2.060  0.00  0.00    -0.273 OA
ENDBRANCH  16  17
BRANCH  12  21
ATOM     21  C   UNL     1      27.296  12.777   2.060  0.00  0.00    +0.391 C 
ATOM     22  O   UNL     1      27.979  13.862   1.648  0.00  0.00    -0.243 OA
ATOM     23  O   UNL     1      26.442  12.274   2.960  0.00  0.00    -0.243 OA
ENDBRANCH  12  21
ENDBRANCH   8  10
ENDBRANCH   6   8
ENDBRANCH   5   6
ENDBRANCH   2   5
BRANCH   1  24
ATOM     24  O   UNL     1      28.489  16.869  -1.526  0.00  0.00    -0.450 OA
BRANCH  24  25
ATOM     25  C   UNL     1      29.023  16.062  -0.503  0.00  0.00    +0.240 C 
BRANCH  25  26
ATOM     26  C   UNL     1      30.294  16.563   0.209  0.00  0.00    +0.100 C 
BRANCH  26  28
ATOM     27  N   UNL     1      31.801  14.725  -0.489  0.00  0.00    -0.134 NA
ATOM     28  C   UNL     1      31.192  15.433   0.516  0.00  0.00    +0.086 A 
ATOM     29  C   UNL     1      31.579  14.911   1.733  0.00  0.00    +0.133 A 
ATOM     30  N   UNL     1      32.411  13.890   1.400  0.00  0.00    -0.249 N 
ATOM     31  N   UNL     1      32.557  13.790   0.066  0.00  0.00    -0.065 NA
BRANCH  30  32
ATOM     32  C   UNL     1      33.093  12.966   2.277  0.00  0.00    +0.178 C 
BRANCH  32  33
ATOM     33  C   UNL     1      33.382  13.529   3.673  0.00  0.00    +0.161 C 
BRANCH  33  34
ATOM     34  O   UNL     1      32.976  12.644   4.721  0.00  0.00    -0.388 OA
ATOM     35  H   UNL     1      32.032  12.810   4.920  0.00  0.00    +0.210 HD
ENDBRANCH  33  34
BRANCH  33  36
ATOM     36  C   UNL     1      34.847  13.938   3.880  0.00  0.00    +0.189 C 
BRANCH  36  37
ATOM     37  O   UNL     1      35.301  14.788   2.827  0.00  0.00    -0.392 OA
ATOM     38  H   UNL     1      34.620  15.470   2.670  0.00  0.00    +0.210 HD
ENDBRANCH  36  37
ENDBRANCH  33  36
ENDBRANCH  32  33
ENDBRANCH  30  32
ENDBRANCH  26  28
ENDBRANCH  25  26
ENDBRANCH  24  25
ENDBRANCH   1  24
TORSDOF 15
