REMARK VINA RESULT:    -6.589      3.813      9.268
REMARK INTER + INTRA:         -15.806
REMARK INTER:                 -12.921
REMARK INTRA:                  -2.885
REMARK UNBOUND:                -3.439
REMARK  Name = lig_assembled_84.pdb
REMARK  16 active torsions:
REMARK  status: ('A' for Active; 'I' for Inactive)
REMARK    1  A    between atoms: _2  and  _10
REMARK    2  A    between atoms: _3  and  _13
REMARK    3  A    between atoms: _4  and  _16
REMARK    4  A    between atoms: _7  and  _8
REMARK    5  A    between atoms: _7  and  _23
REMARK    6  A    between atoms: _10  and  _11
REMARK    7  A    between atoms: _11  and  _12
REMARK    8  A    between atoms: _11  and  _13
REMARK    9  A    between atoms: _23  and  _25
REMARK   10  A    between atoms: _24  and  _29
REMARK   11  A    between atoms: _25  and  _28
REMARK   12  A    between atoms: _33  and  _43
REMARK   13  A    between atoms: _35  and  _36
REMARK   14  A    between atoms: _37  and  _39
REMARK   15  A    between atoms: _39  and  _41
REMARK   16  A    between atoms: _41  and  _43
REMARK                            x       y       z     vdW  Elec       q    Type
REMARK                         _______ _______ _______ _____ _____    ______ ____
ROOT
ATOM      1  C   UNL     1      30.091  16.970  -0.074  0.00  0.00    +0.240 C 
ENDROOT
BRANCH   1   2
ATOM      2  C   UNL     1      30.851  15.649  -0.301  0.00  0.00    +0.100 C 
BRANCH   2   4
ATOM      3  N   UNL     1      30.160  13.319  -0.790  0.00  0.00    -0.134 NA
ATOM      4  C   UNL     1      29.954  14.493  -0.113  0.00  0.00    +0.086 A 
ATOM      5  C   UNL     1      28.823  14.371   0.663  0.00  0.00    +0.133 A 
ATOM      6  N   UNL     1      28.352  13.127   0.364  0.00  0.00    -0.251 N 
ATOM      7  N   UNL     1      29.169  12.489  -0.491  0.00  0.00    -0.065 NA
BRANCH   6   8
ATOM      8  C   UNL     1      27.079  12.547   0.743  0.00  0.00    +0.149 C 
BRANCH   8   9
ATOM      9  C   UNL     1      27.007  12.077   2.206  0.00  0.00    +0.021 C 
ATOM     10  C   UNL     1      25.558  11.793   2.629  0.00  0.00    +0.010 C 
BRANCH   9  11
ATOM     11  C   UNL     1      27.850  10.798   2.428  0.00  0.00    +0.089 C 
BRANCH  11  12
ATOM     12  N   UNL     1      29.159  11.002   3.064  0.00  0.00    -0.299 NA
ATOM     13  C   UNL     1      29.369   9.988   4.132  0.00  0.00    +0.103 C 
ATOM     14  C   UNL     1      30.767  10.112   4.771  0.00  0.00    +0.120 C 
ATOM     15  N   UNL     1      30.938  11.458   5.327  0.00  0.00    -0.327 N 
ATOM     16  C   UNL     1      30.697  12.546   4.367  0.00  0.00    +0.120 C 
ATOM     17  C   UNL     1      29.319  12.349   3.671  0.00  0.00    +0.103 C 
BRANCH  15  18
ATOM     18  C   UNL     1      31.345  11.681   6.623  0.00  0.00    +0.030 A 
ATOM     19  C   UNL     1      32.631  12.175   6.911  0.00  0.00    +0.024 A 
ATOM     20  C   UNL     1      33.072  12.384   8.221  0.00  0.00    +0.022 A 
ATOM     21  C   UNL     1      32.224  12.109   9.281  0.00  0.00    +0.041 A 
ATOM     22 CL   UNL     1      32.760  12.358  10.897  0.00  0.00    -0.084 Cl
ATOM     23  C   UNL     1      30.945  11.622   9.040  0.00  0.00    +0.022 A 
ATOM     24  C   UNL     1      30.517  11.410   7.722  0.00  0.00    +0.024 A 
ENDBRANCH  15  18
ENDBRANCH  11  12
ENDBRANCH   9  11
ENDBRANCH   8   9
ENDBRANCH   6   8
ENDBRANCH   2   4
ENDBRANCH   1   2
BRANCH   1  25
ATOM     25  O   UNL     1      29.108  17.325  -1.018  0.00  0.00    -0.450 OA
BRANCH  25  26
ATOM     26  C   UNL     1      27.919  17.832  -1.052  0.00  0.00    +0.400 C 
ATOM     27  N   UNL     1      27.190  17.565  -2.187  0.00  0.00    -0.278 N 
ATOM     28  H   UNL     1      26.206  17.894  -1.931  0.00  0.00    +0.152 HD
ATOM     29  O   UNL     1      27.387  18.493  -0.164  0.00  0.00    -0.226 OA
BRANCH  27  30
ATOM     30  C   UNL     1      27.161  17.060  -3.557  0.00  0.00    +0.152 C 
BRANCH  30  31
ATOM     31  C   UNL     1      25.972  16.148  -3.920  0.00  0.00    +0.193 C 
ATOM     32  O   UNL     1      26.052  15.906  -5.342  0.00  0.00    -0.219 OA
BRANCH  31  33
ATOM     33  C   UNL     1      25.935  14.737  -3.291  0.00  0.00    +0.212 C 
ATOM     34  O   UNL     1      26.580  14.743  -2.007  0.00  0.00    -0.218 OA
BRANCH  33  35
ATOM     35  C   UNL     1      24.475  14.169  -3.118  0.00  0.00    +0.171 C 
ATOM     36  O   UNL     1      23.713  14.899  -2.162  0.00  0.00    -0.343 OA
ATOM     37  C   UNL     1      22.489  14.473  -1.638  0.00  0.00    +0.220 C 
ATOM     38  C   UNL     1      22.564  13.028  -1.114  0.00  0.00    +0.076 C 
ATOM     39  C   UNL     1      23.123  12.153  -2.249  0.00  0.00    +0.177 C 
ATOM     40  O   UNL     1      23.175  10.797  -1.830  0.00  0.00    -0.221 OA
ATOM     41  C   UNL     1      24.531  12.668  -2.682  0.00  0.00    +0.155 C 
BRANCH  41  42
ATOM     42  N   UNL     1      25.067  11.835  -3.755  0.00  0.00    -0.202 NA
ATOM     43  C   UNL     1      26.201  11.090  -3.790  0.00  0.00    +0.242 C 
ATOM     44  C   UNL     1      26.368  10.094  -4.908  0.00  0.00    +0.096 C 
ATOM     45  O   UNL     1      27.055  11.241  -2.919  0.00  0.00    -0.273 OA
ENDBRANCH  41  42
BRANCH  37  46
ATOM     46  C   UNL     1      21.243  14.673  -2.661  0.00  0.00    +0.391 C 
ATOM     47  O   UNL     1      20.271  13.870  -2.186  0.00  0.00    -0.243 OA
ATOM     48  O   UNL     1      21.534  15.757  -3.391  0.00  0.00    -0.243 OA
ENDBRANCH  37  46
ENDBRANCH  33  35
ENDBRANCH  31  33
ENDBRANCH  30  31
ENDBRANCH  27  30
ENDBRANCH  25  26
ENDBRANCH   1  25
TORSDOF 15
