REMARK VINA RESULT:    -6.273      2.256      3.170
REMARK INTER + INTRA:         -13.977
REMARK INTER:                 -11.899
REMARK INTRA:                  -2.078
REMARK UNBOUND:                -1.837
REMARK  Name = lig_assembled_45.pdb
REMARK  19 active torsions:
REMARK  status: ('A' for Active; 'I' for Inactive)
REMARK    1  A    between atoms: _2  and  _9
REMARK    2  A    between atoms: _3  and  _11
REMARK    3  A    between atoms: _3  and  _12
REMARK    4  A    between atoms: _3  and  _13
REMARK    5  A    between atoms: _3  and  _15
REMARK    6  A    between atoms: _5  and  _15
REMARK    7  A    between atoms: _6  and  _7
REMARK    8  A    between atoms: _6  and  _16
REMARK    9  A    between atoms: _9  and  _10
REMARK   10  A    between atoms: _10  and  _11
REMARK   11  A    between atoms: _13  and  _14
REMARK   12  A    between atoms: _16  and  _18
REMARK   13  A    between atoms: _17  and  _22
REMARK   14  A    between atoms: _18  and  _21
REMARK   15  A    between atoms: _26  and  _36
REMARK   16  A    between atoms: _28  and  _29
REMARK   17  A    between atoms: _30  and  _32
REMARK   18  A    between atoms: _32  and  _34
REMARK   19  A    between atoms: _34  and  _36
REMARK                            x       y       z     vdW  Elec       q    Type
REMARK                         _______ _______ _______ _____ _____    ______ ____
ROOT
ATOM      1  C   UNL     1      27.941  17.291  -1.033  0.00  0.00    +0.400 C 
ATOM      2  N   UNL     1      28.270  16.314  -0.122  0.00  0.00    -0.278 N 
ATOM      3  H   UNL     1      28.588  16.871   0.733  0.00  0.00    +0.152 HD
ATOM      4  O   UNL     1      27.901  18.455  -0.644  0.00  0.00    -0.226 OA
ENDROOT
BRANCH   2   5
ATOM      5  C   UNL     1      28.366  14.892   0.197  0.00  0.00    +0.152 C 
BRANCH   5   6
ATOM      6  C   UNL     1      29.706  14.208  -0.142  0.00  0.00    +0.193 C 
ATOM      7  O   UNL     1      29.768  14.107  -1.582  0.00  0.00    -0.219 OA
BRANCH   6   8
ATOM      8  C   UNL     1      31.005  14.947   0.249  0.00  0.00    +0.212 C 
ATOM      9  O   UNL     1      30.702  16.122   1.018  0.00  0.00    -0.218 OA
BRANCH   8  10
ATOM     10  C   UNL     1      32.009  14.051   1.071  0.00  0.00    +0.171 C 
ATOM     11  O   UNL     1      32.305  14.596   2.353  0.00  0.00    -0.343 OA
ATOM     12  C   UNL     1      33.336  14.146   3.181  0.00  0.00    +0.220 C 
ATOM     13  C   UNL     1      34.677  14.064   2.430  0.00  0.00    +0.076 C 
ATOM     14  C   UNL     1      34.448  13.220   1.165  0.00  0.00    +0.177 C 
ATOM     15  O   UNL     1      35.668  13.079   0.452  0.00  0.00    -0.221 OA
ATOM     16  C   UNL     1      33.344  13.873   0.276  0.00  0.00    +0.155 C 
BRANCH  16  17
ATOM     17  N   UNL     1      33.128  13.078  -0.930  0.00  0.00    -0.202 NA
ATOM     18  C   UNL     1      33.244  13.432  -2.235  0.00  0.00    +0.242 C 
ATOM     19  C   UNL     1      33.252  12.342  -3.275  0.00  0.00    +0.096 C 
ATOM     20  O   UNL     1      33.340  14.620  -2.536  0.00  0.00    -0.273 OA
ENDBRANCH  16  17
BRANCH  12  21
ATOM     21  C   UNL     1      32.993  12.753   3.943  0.00  0.00    +0.391 C 
ATOM     22  O   UNL     1      34.176  12.317   4.419  0.00  0.00    -0.243 OA
ATOM     23  O   UNL     1      31.661  12.720   4.071  0.00  0.00    -0.243 OA
ENDBRANCH  12  21
ENDBRANCH   8  10
ENDBRANCH   6   8
ENDBRANCH   5   6
ENDBRANCH   2   5
BRANCH   1  24
ATOM     24  O   UNL     1      27.731  16.881  -2.241  0.00  0.00    -0.450 OA
BRANCH  24  25
ATOM     25  C   UNL     1      27.110  17.323  -3.426  0.00  0.00    +0.240 C 
BRANCH  25  26
ATOM     26  C   UNL     1      26.275  16.298  -4.216  0.00  0.00    +0.100 C 
BRANCH  26  28
ATOM     27  N   UNL     1      24.492  15.450  -2.716  0.00  0.00    -0.134 NA
ATOM     28  C   UNL     1      25.716  15.283  -3.304  0.00  0.00    +0.086 A 
ATOM     29  C   UNL     1      26.252  14.083  -2.895  0.00  0.00    +0.133 A 
ATOM     30  N   UNL     1      25.299  13.579  -2.064  0.00  0.00    -0.251 N 
ATOM     31  N   UNL     1      24.249  14.396  -1.948  0.00  0.00    -0.065 NA
BRANCH  30  32
ATOM     32  C   UNL     1      25.347  12.333  -1.329  0.00  0.00    +0.150 C 
BRANCH  32  33
ATOM     33  C   UNL     1      24.047  12.027  -0.594  0.00  0.00    +0.074 C 
BRANCH  33  34
ATOM     34  C   UNL     1      23.865  10.594  -0.075  0.00  0.00    +0.134 C 
BRANCH  34  35
ATOM     35  N   UNL     1      24.250  10.298   1.412  0.00  0.00    +0.241 N 
ATOM     36  C   UNL     1      23.821   8.862   1.757  0.00  0.00    +0.192 C 
BRANCH  35  37
ATOM     37  C   UNL     1      23.408  11.290   2.282  0.00  0.00    +0.129 C 
ATOM     38  C   UNL     1      21.901  11.120   2.132  0.00  0.00    +0.060 C 
ENDBRANCH  35  37
BRANCH  35  39
ATOM     39  C   UNL     1      25.746  10.463   1.738  0.00  0.00    +0.129 C 
ATOM     40  C   UNL     1      26.074  11.704   2.553  0.00  0.00    +0.060 C 
ENDBRANCH  35  39
ENDBRANCH  34  35
ENDBRANCH  33  34
ENDBRANCH  32  33
ENDBRANCH  30  32
ENDBRANCH  26  28
ENDBRANCH  25  26
ENDBRANCH  24  25
ENDBRANCH   1  24
TORSDOF 16
