REMARK VINA RESULT:    -7.994      1.809      2.803
REMARK INTER + INTRA:         -15.549
REMARK INTER:                 -13.179
REMARK INTRA:                  -2.371
REMARK UNBOUND:                -1.480
REMARK  Name = lig_assembled_58.pdb
REMARK  13 active torsions:
REMARK  status: ('A' for Active; 'I' for Inactive)
REMARK    1  A    between atoms: _2  and  _8
REMARK    2  A    between atoms: _5  and  _6
REMARK    3  A    between atoms: _5  and  _20
REMARK    4  A    between atoms: _8  and  _9
REMARK    5  A    between atoms: _8  and  _15
REMARK    6  A    between atoms: _20  and  _22
REMARK    7  A    between atoms: _21  and  _26
REMARK    8  A    between atoms: _22  and  _25
REMARK    9  A    between atoms: _30  and  _40
REMARK   10  A    between atoms: _32  and  _33
REMARK   11  A    between atoms: _34  and  _36
REMARK   12  A    between atoms: _36  and  _38
REMARK   13  A    between atoms: _38  and  _40
REMARK                            x       y       z     vdW  Elec       q    Type
REMARK                         _______ _______ _______ _____ _____    ______ ____
ROOT
ATOM      1  C   UNL     1      27.509  17.099  -1.840  0.00  0.00    +0.400 C 
ATOM      2  N   UNL     1      27.842  15.903  -1.248  0.00  0.00    -0.278 N 
ATOM      3  H   UNL     1      28.280  16.200  -0.319  0.00  0.00    +0.152 HD
ATOM      4  O   UNL     1      27.599  18.123  -1.167  0.00  0.00    -0.226 OA
ENDROOT
BRANCH   2   5
ATOM      5  C   UNL     1      27.851  14.444  -1.310  0.00  0.00    +0.152 C 
BRANCH   5   6
ATOM      6  C   UNL     1      29.051  13.743  -0.641  0.00  0.00    +0.193 C 
ATOM      7  O   UNL     1      30.242  14.272  -1.265  0.00  0.00    -0.219 OA
BRANCH   6   8
ATOM      8  C   UNL     1      29.268  13.983   0.869  0.00  0.00    +0.212 C 
ATOM      9  O   UNL     1      28.391  15.016   1.344  0.00  0.00    -0.218 OA
BRANCH   8  10
ATOM     10  C   UNL     1      29.046  12.691   1.745  0.00  0.00    +0.171 C 
ATOM     11  O   UNL     1      27.697  12.546   2.175  0.00  0.00    -0.343 OA
ATOM     12  C   UNL     1      27.274  11.640   3.151  0.00  0.00    +0.220 C 
ATOM     13  C   UNL     1      28.124  11.740   4.429  0.00  0.00    +0.076 C 
ATOM     14  C   UNL     1      29.599  11.605   4.016  0.00  0.00    +0.177 C 
ATOM     15  O   UNL     1      30.428  11.650   5.169  0.00  0.00    -0.221 OA
ATOM     16  C   UNL     1      29.978  12.727   3.001  0.00  0.00    +0.155 C 
BRANCH  16  17
ATOM     17  N   UNL     1      31.380  12.606   2.611  0.00  0.00    -0.202 NA
ATOM     18  C   UNL     1      32.369  13.535   2.628  0.00  0.00    +0.242 C 
ATOM     19  C   UNL     1      33.791  13.070   2.454  0.00  0.00    +0.096 C 
ATOM     20  O   UNL     1      32.085  14.721   2.785  0.00  0.00    -0.273 OA
ENDBRANCH  16  17
BRANCH  12  21
ATOM     21  C   UNL     1      27.179  10.110   2.614  0.00  0.00    +0.391 C 
ATOM     22  O   UNL     1      26.683   9.408   3.652  0.00  0.00    -0.243 OA
ATOM     23  O   UNL     1      27.337  10.173   1.287  0.00  0.00    -0.243 OA
ENDBRANCH  12  21
ENDBRANCH   8  10
ENDBRANCH   6   8
ENDBRANCH   5   6
ENDBRANCH   2   5
BRANCH   1  24
ATOM     24  O   UNL     1      27.156  17.030  -3.081  0.00  0.00    -0.450 OA
BRANCH  24  25
ATOM     25  C   UNL     1      25.984  16.913  -3.853  0.00  0.00    +0.240 C 
BRANCH  25  26
ATOM     26  C   UNL     1      25.614  15.512  -4.377  0.00  0.00    +0.100 C 
BRANCH  26  28
ATOM     27  N   UNL     1      24.217  15.465  -2.323  0.00  0.00    -0.134 NA
ATOM     28  C   UNL     1      24.733  14.824  -3.415  0.00  0.00    +0.086 A 
ATOM     29  C   UNL     1      24.264  13.531  -3.437  0.00  0.00    +0.134 A 
ATOM     30  N   UNL     1      23.345  13.488  -2.424  0.00  0.00    -0.240 N 
ATOM     31  N   UNL     1      23.383  14.634  -1.708  0.00  0.00    -0.065 NA
BRANCH  30  32
ATOM     32  C   UNL     1      22.373  12.432  -2.086  0.00  0.00    +0.169 C 
BRANCH  32  33
ATOM     33  C   UNL     1      20.946  12.768  -2.544  0.00  0.00    -0.019 A 
ATOM     34  C   UNL     1      20.186  11.850  -3.291  0.00  0.00    +0.006 A 
ATOM     35  C   UNL     1      18.889  12.162  -3.707  0.00  0.00    +0.000 A 
ATOM     36  C   UNL     1      18.320  13.385  -3.365  0.00  0.00    +0.000 A 
ATOM     37  C   UNL     1      19.032  14.285  -2.583  0.00  0.00    +0.000 A 
ATOM     38  C   UNL     1      20.323  13.972  -2.161  0.00  0.00    +0.006 A 
ENDBRANCH  32  33
BRANCH  32  39
ATOM     39  C   UNL     1      22.504  12.055  -0.604  0.00  0.00    -0.019 A 
ATOM     40  C   UNL     1      23.737  11.616  -0.093  0.00  0.00    +0.006 A 
ATOM     41  C   UNL     1      23.853  11.215   1.241  0.00  0.00    +0.000 A 
ATOM     42  C   UNL     1      22.748  11.261   2.088  0.00  0.00    +0.000 A 
ATOM     43  C   UNL     1      21.519  11.690   1.602  0.00  0.00    +0.000 A 
ATOM     44  C   UNL     1      21.396  12.072   0.266  0.00  0.00    +0.006 A 
ENDBRANCH  32  39
ENDBRANCH  30  32
ENDBRANCH  26  28
ENDBRANCH  25  26
ENDBRANCH  24  25
ENDBRANCH   1  24
TORSDOF 13
