REMARK VINA RESULT:    -7.688      2.821      5.678
REMARK INTER + INTRA:         -16.307
REMARK INTER:                 -14.486
REMARK INTRA:                  -1.820
REMARK UNBOUND:                -2.551
REMARK  Name = lig_assembled_64.pdb
REMARK  14 active torsions:
REMARK  status: ('A' for Active; 'I' for Inactive)
REMARK    1  A    between atoms: _2  and  _9
REMARK    2  A    between atoms: _6  and  _7
REMARK    3  A    between atoms: _6  and  _22
REMARK    4  A    between atoms: _11  and  _12
REMARK    5  A    between atoms: _12  and  _20
REMARK    6  A    between atoms: _13  and  _14
REMARK    7  A    between atoms: _22  and  _24
REMARK    8  A    between atoms: _23  and  _28
REMARK    9  A    between atoms: _24  and  _27
REMARK   10  A    between atoms: _32  and  _42
REMARK   11  A    between atoms: _34  and  _35
REMARK   12  A    between atoms: _36  and  _38
REMARK   13  A    between atoms: _38  and  _40
REMARK   14  A    between atoms: _40  and  _42
REMARK                            x       y       z     vdW  Elec       q    Type
REMARK                         _______ _______ _______ _____ _____    ______ ____
ROOT
ATOM      1  O   UNL     1      28.147  16.917  -1.677  0.00  0.00    -0.450 OA
ENDROOT
BRANCH   1   2
ATOM      2  C   UNL     1      28.677  17.037  -0.504  0.00  0.00    +0.400 C 
ATOM      3  N   UNL     1      28.705  15.893   0.257  0.00  0.00    -0.278 N 
ATOM      4  H   UNL     1      29.342  16.154   1.074  0.00  0.00    +0.152 HD
ATOM      5  O   UNL     1      29.175  18.057  -0.034  0.00  0.00    -0.226 OA
BRANCH   3   6
ATOM      6  C   UNL     1      28.253  14.517   0.453  0.00  0.00    +0.152 C 
BRANCH   6   7
ATOM      7  C   UNL     1      28.534  13.900   1.838  0.00  0.00    +0.193 C 
ATOM      8  O   UNL     1      27.355  13.152   2.206  0.00  0.00    -0.219 OA
BRANCH   7   9
ATOM      9  C   UNL     1      29.688  12.879   1.945  0.00  0.00    +0.212 C 
ATOM     10  O   UNL     1      29.362  11.677   1.229  0.00  0.00    -0.218 OA
BRANCH   9  11
ATOM     11  C   UNL     1      31.062  13.430   1.405  0.00  0.00    +0.171 C 
ATOM     12  O   UNL     1      31.173  13.332  -0.012  0.00  0.00    -0.343 OA
ATOM     13  C   UNL     1      32.361  13.516  -0.724  0.00  0.00    +0.220 C 
ATOM     14  C   UNL     1      33.510  12.674  -0.144  0.00  0.00    +0.076 C 
ATOM     15  C   UNL     1      33.602  12.987   1.358  0.00  0.00    +0.177 C 
ATOM     16  O   UNL     1      34.678  12.262   1.937  0.00  0.00    -0.221 OA
ATOM     17  C   UNL     1      32.249  12.651   2.060  0.00  0.00    +0.155 C 
BRANCH  17  18
ATOM     18  N   UNL     1      32.334  12.941   3.490  0.00  0.00    -0.202 NA
ATOM     19  C   UNL     1      32.512  12.096   4.537  0.00  0.00    +0.242 C 
ATOM     20  C   UNL     1      32.858  12.685   5.880  0.00  0.00    +0.096 C 
ATOM     21  O   UNL     1      32.389  10.884   4.368  0.00  0.00    -0.273 OA
ENDBRANCH  17  18
BRANCH  13  22
ATOM     22  C   UNL     1      32.785  15.077  -0.882  0.00  0.00    +0.391 C 
ATOM     23  O   UNL     1      33.951  15.053  -1.555  0.00  0.00    -0.243 OA
ATOM     24  O   UNL     1      31.697  15.790  -0.563  0.00  0.00    -0.243 OA
ENDBRANCH  13  22
ENDBRANCH   9  11
ENDBRANCH   7   9
ENDBRANCH   6   7
ENDBRANCH   3   6
ENDBRANCH   1   2
BRANCH   1  25
ATOM     25  C   UNL     1      27.115  17.490  -2.446  0.00  0.00    +0.240 C 
BRANCH  25  26
ATOM     26  C   UNL     1      26.893  16.932  -3.865  0.00  0.00    +0.100 C 
BRANCH  26  28
ATOM     27  N   UNL     1      25.361  15.358  -5.017  0.00  0.00    -0.134 NA
ATOM     28  C   UNL     1      25.706  16.056  -3.896  0.00  0.00    +0.086 A 
ATOM     29  C   UNL     1      24.795  15.789  -2.903  0.00  0.00    +0.139 A 
ATOM     30  N   UNL     1      23.894  14.918  -3.469  0.00  0.00    -0.220 N 
ATOM     31  N   UNL     1      24.259  14.666  -4.750  0.00  0.00    -0.061 NA
BRANCH  30  32
ATOM     32  C   UNL     1      22.750  14.328  -2.882  0.00  0.00    +0.071 A 
ATOM     33  C   UNL     1      21.478  14.785  -3.213  0.00  0.00    +0.063 A 
ATOM     34  CA  UNL     1      20.402  14.168  -2.605  0.00  0.00    +0.150 A 
ATOM     35  N   UNL     1      20.495  13.152  -1.700  0.00  0.00    -0.240 NA
ATOM     36  C   UNL     1      21.744  12.721  -1.372  0.00  0.00    +0.074 A 
ATOM     37  C   UNL     1      22.884  13.282  -1.956  0.00  0.00    +0.056 A 
BRANCH  36  38
ATOM     38  C   UNL     1      21.802  11.650  -0.348  0.00  0.00    +0.000 A 
ATOM     39  C   UNL     1      21.976  10.295  -0.691  0.00  0.00    +0.010 A 
ATOM     40  C   UNL     1      22.067   9.297   0.287  0.00  0.00    +0.001 A 
ATOM     41  C   UNL     1      21.987   9.630   1.635  0.00  0.00    +0.000 A 
ATOM     42  C   UNL     1      21.808  10.958   2.005  0.00  0.00    +0.001 A 
ATOM     43  C   UNL     1      21.716  11.953   1.025  0.00  0.00    +0.010 A 
ENDBRANCH  36  38
BRANCH  34  44
ATOM     44  C   UNL     1      19.019  14.625  -2.929  0.00  0.00    +0.355 C 
ATOM     45  OXT UNL     1      18.003  14.056  -2.571  0.00  0.00    -0.243 OA
BRANCH  44  46
ATOM     46  O   UNL     1      19.050  15.753  -3.675  0.00  0.00    -0.476 OA
ATOM     47  H   UNL     1      19.328  15.523  -4.591  0.00  0.00    +0.295 HD
ENDBRANCH  44  46
ENDBRANCH  34  44
ENDBRANCH  30  32
ENDBRANCH  26  28
ENDBRANCH  25  26
ENDBRANCH   1  25
TORSDOF 14
