REMARK VINA RESULT:    -6.207      2.839      3.624
REMARK INTER + INTRA:         -13.219
REMARK INTER:                 -11.124
REMARK INTRA:                  -2.095
REMARK UNBOUND:                -1.931
REMARK  Name = lig_assembled_55.pdb
REMARK  15 active torsions:
REMARK  status: ('A' for Active; 'I' for Inactive)
REMARK    1  A    between atoms: _2  and  _9
REMARK    2  A    between atoms: _3  and  _10
REMARK    3  A    between atoms: _3  and  _41
REMARK    4  A    between atoms: _5  and  _41
REMARK    5  A    between atoms: _6  and  _7
REMARK    6  A    between atoms: _6  and  _13
REMARK    7  A    between atoms: _9  and  _10
REMARK    8  A    between atoms: _13  and  _15
REMARK    9  A    between atoms: _14  and  _19
REMARK   10  A    between atoms: _15  and  _18
REMARK   11  A    between atoms: _23  and  _33
REMARK   12  A    between atoms: _25  and  _26
REMARK   13  A    between atoms: _27  and  _29
REMARK   14  A    between atoms: _29  and  _31
REMARK   15  A    between atoms: _31  and  _33
REMARK                            x       y       z     vdW  Elec       q    Type
REMARK                         _______ _______ _______ _____ _____    ______ ____
ROOT
ATOM      1  C   UNL     1      28.278  17.623  -0.588  0.00  0.00    +0.400 C 
ATOM      2  N   UNL     1      29.450  17.632   0.131  0.00  0.00    -0.278 N 
ATOM      3  H   UNL     1      29.353  18.498   0.750  0.00  0.00    +0.152 HD
ATOM      4  O   UNL     1      27.392  18.409  -0.262  0.00  0.00    -0.226 OA
ENDROOT
BRANCH   2   5
ATOM      5  C   UNL     1      30.730  16.997   0.431  0.00  0.00    +0.152 C 
BRANCH   5   6
ATOM      6  C   UNL     1      30.852  15.505   0.061  0.00  0.00    +0.193 C 
ATOM      7  O   UNL     1      31.931  15.401  -0.894  0.00  0.00    -0.219 OA
BRANCH   6   8
ATOM      8  C   UNL     1      31.236  14.518   1.186  0.00  0.00    +0.212 C 
ATOM      9  O   UNL     1      31.595  15.233   2.379  0.00  0.00    -0.218 OA
BRANCH   8  10
ATOM     10  C   UNL     1      30.090  13.495   1.537  0.00  0.00    +0.171 C 
ATOM     11  O   UNL     1      28.796  14.089   1.505  0.00  0.00    -0.343 OA
ATOM     12  C   UNL     1      27.639  13.486   2.004  0.00  0.00    +0.220 C 
ATOM     13  C   UNL     1      27.839  12.972   3.440  0.00  0.00    +0.076 C 
ATOM     14  C   UNL     1      29.088  12.075   3.441  0.00  0.00    +0.177 C 
ATOM     15  O   UNL     1      29.295  11.540   4.741  0.00  0.00    -0.221 OA
ATOM     16  C   UNL     1      30.331  12.884   2.956  0.00  0.00    +0.155 C 
BRANCH  16  17
ATOM     17  N   UNL     1      31.521  12.038   2.963  0.00  0.00    -0.202 NA
ATOM     18  C   UNL     1      32.593  12.053   3.796  0.00  0.00    +0.242 C 
ATOM     19  C   UNL     1      33.540  10.882   3.764  0.00  0.00    +0.096 C 
ATOM     20  O   UNL     1      32.763  13.009   4.549  0.00  0.00    -0.273 OA
ENDBRANCH  16  17
BRANCH  12  21
ATOM     21  C   UNL     1      27.041  12.329   1.033  0.00  0.00    +0.391 C 
ATOM     22  O   UNL     1      27.835  12.345  -0.056  0.00  0.00    -0.243 OA
ATOM     23  O   UNL     1      26.201  11.611   1.788  0.00  0.00    -0.243 OA
ENDBRANCH  12  21
ENDBRANCH   8  10
ENDBRANCH   6   8
ENDBRANCH   5   6
ENDBRANCH   2   5
BRANCH   1  24
ATOM     24  O   UNL     1      28.234  16.792  -1.577  0.00  0.00    -0.450 OA
BRANCH  24  25
ATOM     25  C   UNL     1      27.447  15.718  -2.036  0.00  0.00    +0.240 C 
BRANCH  25  26
ATOM     26  C   UNL     1      26.164  16.060  -2.817  0.00  0.00    +0.100 C 
BRANCH  26  28
ATOM     27  N   UNL     1      23.846  15.354  -2.320  0.00  0.00    -0.134 NA
ATOM     28  C   UNL     1      25.142  15.017  -2.611  0.00  0.00    +0.086 A 
ATOM     29  C   UNL     1      25.250  13.645  -2.659  0.00  0.00    +0.133 A 
ATOM     30  N   UNL     1      23.993  13.205  -2.368  0.00  0.00    -0.250 N 
ATOM     31  N   UNL     1      23.152  14.236  -2.168  0.00  0.00    -0.065 NA
BRANCH  30  32
ATOM     32  C   UNL     1      23.518  11.841  -2.292  0.00  0.00    +0.162 C 
BRANCH  32  33
ATOM     33  C   UNL     1      23.925  11.115  -1.006  0.00  0.00    +0.129 C 
BRANCH  33  34
ATOM     34  N   UNL     1      23.527  11.834   0.240  0.00  0.00    -0.193 NA
ATOM     35  H   UNL     1      23.481  12.846   0.073  0.00  0.00    +0.148 HD
BRANCH  34  36
ATOM     36  S   UNL     1      22.166  11.239   1.038  0.00  0.00    +0.027 S 
ATOM     37  O   UNL     1      22.487  11.215   2.448  0.00  0.00    -0.158 OA
ATOM     38  O   UNL     1      21.017  11.960   0.541  0.00  0.00    -0.158 OA
ATOM     39  C   UNL     1      22.114   9.562   0.449  0.00  0.00    +0.214 C 
ENDBRANCH  34  36
ENDBRANCH  33  34
ENDBRANCH  32  33
ENDBRANCH  30  32
ENDBRANCH  26  28
ENDBRANCH  25  26
ENDBRANCH  24  25
ENDBRANCH   1  24
TORSDOF 14
