REMARK VINA RESULT:    -6.953      1.570      3.684
REMARK INTER + INTRA:         -13.959
REMARK INTER:                 -12.437
REMARK INTRA:                  -1.521
REMARK UNBOUND:                -2.128
REMARK  Name = lig_assembled_0.pdb
REMARK  12 active torsions:
REMARK  status: ('A' for Active; 'I' for Inactive)
REMARK    1  A    between atoms: _2  and  _9
REMARK    2  A    between atoms: _6  and  _7
REMARK    3  A    between atoms: _6  and  _16
REMARK    4  A    between atoms: _10  and  _11
REMARK    5  A    between atoms: _16  and  _18
REMARK    6  A    between atoms: _17  and  _22
REMARK    7  A    between atoms: _18  and  _21
REMARK    8  A    between atoms: _26  and  _36
REMARK    9  A    between atoms: _28  and  _29
REMARK   10  A    between atoms: _30  and  _32
REMARK   11  A    between atoms: _32  and  _34
REMARK   12  A    between atoms: _34  and  _36
REMARK                            x       y       z     vdW  Elec       q    Type
REMARK                         _______ _______ _______ _____ _____    ______ ____
ROOT
ATOM      1  C   UNL     1      27.748  17.282  -0.832  0.00  0.00    +0.400 C 
ATOM      2  N   UNL     1      28.557  16.527  -0.015  0.00  0.00    -0.278 N 
ATOM      3  H   UNL     1      28.862  17.221   0.739  0.00  0.00    +0.152 HD
ATOM      4  O   UNL     1      27.431  18.407  -0.455  0.00  0.00    -0.226 OA
ENDROOT
BRANCH   2   5
ATOM      5  C   UNL     1      29.160  15.231   0.285  0.00  0.00    +0.152 C 
BRANCH   5   6
ATOM      6  C   UNL     1      30.482  14.912  -0.442  0.00  0.00    +0.193 C 
ATOM      7  O   UNL     1      31.216  16.153  -0.534  0.00  0.00    -0.219 OA
BRANCH   6   8
ATOM      8  C   UNL     1      31.461  13.937   0.249  0.00  0.00    +0.212 C 
ATOM      9  O   UNL     1      30.795  12.706   0.576  0.00  0.00    -0.218 OA
BRANCH   8  10
ATOM     10  C   UNL     1      32.732  13.606  -0.622  0.00  0.00    +0.171 C 
ATOM     11  O   UNL     1      32.409  12.898  -1.815  0.00  0.00    -0.343 OA
ATOM     12  C   UNL     1      33.348  12.273  -2.639  0.00  0.00    +0.220 C 
ATOM     13  C   UNL     1      34.290  11.357  -1.838  0.00  0.00    +0.076 C 
ATOM     14  C   UNL     1      34.887  12.193  -0.694  0.00  0.00    +0.177 C 
ATOM     15  O   UNL     1      35.798  11.403   0.056  0.00  0.00    -0.221 OA
ATOM     16  C   UNL     1      33.748  12.758   0.211  0.00  0.00    +0.155 C 
BRANCH  16  17
ATOM     17  N   UNL     1      34.312  13.547   1.302  0.00  0.00    -0.202 NA
ATOM     18  C   UNL     1      34.178  13.392   2.644  0.00  0.00    +0.242 C 
ATOM     19  C   UNL     1      35.103  14.165   3.549  0.00  0.00    +0.096 C 
ATOM     20  O   UNL     1      33.318  12.634   3.086  0.00  0.00    -0.273 OA
ENDBRANCH  16  17
BRANCH  12  21
ATOM     21  C   UNL     1      34.178  13.309  -3.576  0.00  0.00    +0.391 C 
ATOM     22  O   UNL     1      35.242  12.607  -4.013  0.00  0.00    -0.243 OA
ATOM     23  O   UNL     1      33.357  14.342  -3.802  0.00  0.00    -0.243 OA
ENDBRANCH  12  21
ENDBRANCH   8  10
ENDBRANCH   6   8
ENDBRANCH   5   6
ENDBRANCH   2   5
BRANCH   1  24
ATOM     24  O   UNL     1      27.419  16.733  -1.955  0.00  0.00    -0.450 OA
BRANCH  24  25
ATOM     25  C   UNL     1      27.177  17.100  -3.293  0.00  0.00    +0.240 C 
BRANCH  25  26
ATOM     26  C   UNL     1      25.756  16.874  -3.846  0.00  0.00    +0.100 C 
BRANCH  26  28
ATOM     27  N   UNL     1      25.650  14.419  -3.623  0.00  0.00    -0.134 NA
ATOM     28  C   UNL     1      25.172  15.647  -3.274  0.00  0.00    +0.086 A 
ATOM     29  C   UNL     1      24.159  15.491  -2.355  0.00  0.00    +0.139 A 
ATOM     30  N   UNL     1      23.983  14.132  -2.240  0.00  0.00    -0.219 N 
ATOM     31  N   UNL     1      24.960  13.508  -2.956  0.00  0.00    -0.061 NA
BRANCH  30  32
ATOM     32  C   UNL     1      23.076  13.374  -1.447  0.00  0.00    +0.079 A 
ATOM     33  C   UNL     1      21.671  13.441  -1.546  0.00  0.00    +0.062 A 
ATOM     34  C   UNL     1      20.889  12.661  -0.665  0.00  0.00    +0.015 A 
ATOM     35  C   UNL     1      21.479  11.844   0.301  0.00  0.00    +0.001 A 
ATOM     36  C   UNL     1      22.861  11.767   0.387  0.00  0.00    +0.002 A 
ATOM     37  C   UNL     1      23.652  12.514  -0.484  0.00  0.00    +0.028 A 
BRANCH  33  38
ATOM     38  C   UNL     1      20.943  14.139  -2.643  0.00  0.00    +0.244 C 
ATOM     39  O   UNL     1      20.653  15.324  -2.582  0.00  0.00    -0.270 OA
ATOM     40  N   UNL     1      20.636  13.413  -3.762  0.00  0.00    -0.325 N 
ATOM     41  H   UNL     1      20.188  13.909  -4.523  0.00  0.00    +0.145 HD
ATOM     42  H   UNL     1      20.854  12.437  -3.895  0.00  0.00    +0.145 HD
ENDBRANCH  33  38
ENDBRANCH  30  32
ENDBRANCH  26  28
ENDBRANCH  25  26
ENDBRANCH  24  25
ENDBRANCH   1  24
TORSDOF 12
