REMARK VINA RESULT:    -7.356      2.116      3.154
REMARK INTER + INTRA:         -13.142
REMARK INTER:                 -11.663
REMARK INTRA:                  -1.479
REMARK UNBOUND:                -0.626
REMARK  Name = lig_assembled_5.pdb
REMARK  13 active torsions:
REMARK  status: ('A' for Active; 'I' for Inactive)
REMARK    1  A    between atoms: _2  and  _8
REMARK    2  A    between atoms: _5  and  _6
REMARK    3  A    between atoms: _5  and  _15
REMARK    4  A    between atoms: _11  and  _14
REMARK    5  A    between atoms: _12  and  _14
REMARK    6  A    between atoms: _15  and  _17
REMARK    7  A    between atoms: _16  and  _21
REMARK    8  A    between atoms: _17  and  _20
REMARK    9  A    between atoms: _25  and  _35
REMARK   10  A    between atoms: _27  and  _28
REMARK   11  A    between atoms: _29  and  _31
REMARK   12  A    between atoms: _31  and  _33
REMARK   13  A    between atoms: _33  and  _35
REMARK                            x       y       z     vdW  Elec       q    Type
REMARK                         _______ _______ _______ _____ _____    ______ ____
ROOT
ATOM      1  C   UNL     1      27.827  17.473  -0.945  0.00  0.00    +0.400 C 
ATOM      2  N   UNL     1      28.549  16.630  -0.134  0.00  0.00    -0.278 N 
ATOM      3  H   UNL     1      28.752  17.229   0.727  0.00  0.00    +0.152 HD
ATOM      4  O   UNL     1      27.449  18.544  -0.477  0.00  0.00    -0.226 OA
ENDROOT
BRANCH   2   5
ATOM      5  C   UNL     1      29.136  15.309   0.080  0.00  0.00    +0.152 C 
BRANCH   5   6
ATOM      6  C   UNL     1      30.670  15.264   0.233  0.00  0.00    +0.193 C 
ATOM      7  O   UNL     1      31.045  16.430   0.999  0.00  0.00    -0.219 OA
BRANCH   6   8
ATOM      8  C   UNL     1      31.276  14.078   1.015  0.00  0.00    +0.212 C 
ATOM      9  O   UNL     1      32.097  14.555   2.093  0.00  0.00    -0.218 OA
BRANCH   8  10
ATOM     10  C   UNL     1      30.190  13.099   1.605  0.00  0.00    +0.171 C 
ATOM     11  O   UNL     1      30.127  13.143   3.026  0.00  0.00    -0.343 OA
ATOM     12  C   UNL     1      29.437  12.218   3.814  0.00  0.00    +0.220 C 
ATOM     13  C   UNL     1      29.804  10.770   3.445  0.00  0.00    +0.076 C 
ATOM     14  C   UNL     1      29.598  10.611   1.930  0.00  0.00    +0.177 C 
ATOM     15  O   UNL     1      29.886   9.275   1.542  0.00  0.00    -0.221 OA
ATOM     16  C   UNL     1      30.490  11.631   1.157  0.00  0.00    +0.155 C 
BRANCH  16  17
ATOM     17  N   UNL     1      30.303  11.479  -0.284  0.00  0.00    -0.202 NA
ATOM     18  C   UNL     1      29.212  11.738  -1.049  0.00  0.00    +0.242 C 
ATOM     19  C   UNL     1      29.380  11.775  -2.546  0.00  0.00    +0.096 C 
ATOM     20  O   UNL     1      28.125  11.937  -0.510  0.00  0.00    -0.273 OA
ENDBRANCH  16  17
BRANCH  12  21
ATOM     21  C   UNL     1      27.828  12.443   3.818  0.00  0.00    +0.391 C 
ATOM     22  O   UNL     1      27.656  13.729   3.453  0.00  0.00    -0.243 OA
ATOM     23  O   UNL     1      27.284  11.222   3.881  0.00  0.00    -0.243 OA
ENDBRANCH  12  21
ENDBRANCH   8  10
ENDBRANCH   6   8
ENDBRANCH   5   6
ENDBRANCH   2   5
BRANCH   1  24
ATOM     24  O   UNL     1      27.639  17.061  -2.156  0.00  0.00    -0.450 OA
BRANCH  24  25
ATOM     25  C   UNL     1      26.813  17.338  -3.262  0.00  0.00    +0.240 C 
BRANCH  25  26
ATOM     26  C   UNL     1      26.240  16.137  -4.039  0.00  0.00    +0.100 C 
BRANCH  26  28
ATOM     27  N   UNL     1      23.864  15.934  -3.379  0.00  0.00    -0.134 NA
ATOM     28  C   UNL     1      25.154  15.501  -3.272  0.00  0.00    +0.086 A 
ATOM     29  C   UNL     1      25.201  14.448  -2.387  0.00  0.00    +0.139 A 
ATOM     30  N   UNL     1      23.895  14.252  -1.996  0.00  0.00    -0.220 N 
ATOM     31  N   UNL     1      23.107  15.177  -2.596  0.00  0.00    -0.061 NA
BRANCH  30  32
ATOM     32  C   UNL     1      23.366  13.253  -1.137  0.00  0.00    +0.067 A 
ATOM     33  C   UNL     1      21.984  13.077  -1.008  0.00  0.00    +0.031 A 
ATOM     34  C   UNL     1      21.482  12.131  -0.111  0.00  0.00    +0.048 A 
ATOM     35  C   UNL     1      22.344  11.338   0.649  0.00  0.00    +0.120 A 
ATOM     36  C   UNL     1      23.722  11.498   0.510  0.00  0.00    +0.048 A 
ATOM     37  C   UNL     1      24.234  12.453  -0.379  0.00  0.00    +0.031 A 
BRANCH  35  38
ATOM     38  O   UNL     1      21.724  10.497   1.531  0.00  0.00    -0.495 OA
ATOM     39  C   UNL     1      22.556   9.867   2.495  0.00  0.00    +0.277 C 
ENDBRANCH  35  38
ENDBRANCH  30  32
ENDBRANCH  26  28
ENDBRANCH  25  26
ENDBRANCH  24  25
ENDBRANCH   1  24
TORSDOF 12
