REMARK VINA RESULT:    -6.507      3.313      8.511
REMARK INTER + INTRA:         -16.417
REMARK INTER:                 -13.372
REMARK INTRA:                  -3.045
REMARK UNBOUND:                -3.824
REMARK  Name = lig_assembled_81.pdb
REMARK  17 active torsions:
REMARK  status: ('A' for Active; 'I' for Inactive)
REMARK    1  A    between atoms: _2  and  _11
REMARK    2  A    between atoms: _7  and  _23
REMARK    3  A    between atoms: _8  and  _9
REMARK    4  A    between atoms: _8  and  _25
REMARK    5  A    between atoms: _13  and  _14
REMARK    6  A    between atoms: _20  and  _21
REMARK    7  A    between atoms: _21  and  _22
REMARK    8  A    between atoms: _22  and  _24
REMARK    9  A    between atoms: _23  and  _24
REMARK   10  A    between atoms: _25  and  _27
REMARK   11  A    between atoms: _26  and  _31
REMARK   12  A    between atoms: _27  and  _30
REMARK   13  A    between atoms: _35  and  _45
REMARK   14  A    between atoms: _37  and  _38
REMARK   15  A    between atoms: _39  and  _41
REMARK   16  A    between atoms: _41  and  _43
REMARK   17  A    between atoms: _43  and  _45
REMARK                            x       y       z     vdW  Elec       q    Type
REMARK                         _______ _______ _______ _____ _____    ______ ____
ROOT
ATOM      1  C   UNL     1      27.103  17.508  -1.724  0.00  0.00    +0.096 C 
ENDROOT
BRANCH   1   3
ATOM      2  N   UNL     1      29.364  17.752  -0.808  0.00  0.00    -0.133 NA
ATOM      3  C   UNL     1      28.297  16.945  -1.063  0.00  0.00    +0.066 C 
ATOM      4  C   UNL     1      28.601  15.664  -0.640  0.00  0.00    +0.120 C 
ATOM      5  N   UNL     1      29.827  15.786  -0.002  0.00  0.00    -0.187 N 
ATOM      6  N   UNL     1      30.326  17.005  -0.293  0.00  0.00    -0.010 NA
BRANCH   5   7
ATOM      7  C   UNL     1      30.579  14.766   0.670  0.00  0.00    +0.150 A 
ATOM      8  C   UNL     1      30.094  13.930   1.708  0.00  0.00    +0.022 A 
ATOM      9  C   UNL     1      31.088  13.067   2.242  0.00  0.00    +0.081 A 
ATOM     10  N   UNL     1      32.383  13.123   1.825  0.00  0.00    -0.214 NA
ATOM     11  C   UNL     1      32.721  13.967   0.866  0.00  0.00    +0.215 A 
ATOM     12  N   UNL     1      34.048  14.071   0.525  0.00  0.00    -0.327 N 
ATOM     13  H   UNL     1      34.560  13.242   0.788  0.00  0.00    +0.145 HD
ATOM     14  H   UNL     1      34.168  14.445  -0.404  0.00  0.00    +0.145 HD
ATOM     15  N   UNL     1      31.860  14.719   0.210  0.00  0.00    -0.198 NA
BRANCH   9  16
ATOM     16  C   UNL     1      30.927  12.014   3.316  0.00  0.00    +0.001 A 
ATOM     17  C   UNL     1      30.967  10.624   3.097  0.00  0.00    +0.010 A 
ATOM     18  C   UNL     1      30.822   9.693   4.140  0.00  0.00    +0.001 A 
ATOM     19  C   UNL     1      30.695  10.117   5.449  0.00  0.00    +0.000 A 
ATOM     20  C   UNL     1      30.706  11.483   5.723  0.00  0.00    +0.001 A 
ATOM     21  C   UNL     1      30.807  12.404   4.671  0.00  0.00    +0.010 A 
ENDBRANCH   9  16
BRANCH   8  22
ATOM     22  C   UNL     1      28.660  13.776   2.218  0.00  0.00    +0.069 C 
BRANCH  22  23
ATOM     23  C   UNL     1      27.652  12.914   1.482  0.00  0.00    +0.164 C 
BRANCH  23  24
ATOM     24  O   UNL     1      26.672  12.250   2.290  0.00  0.00    -0.380 OA
BRANCH  24  25
ATOM     25  C   UNL     1      27.406  11.458   3.244  0.00  0.00    +0.156 C 
ATOM     26  C   UNL     1      26.731  10.132   3.506  0.00  0.00    +0.034 C 
ENDBRANCH  24  25
ENDBRANCH  23  24
ENDBRANCH  22  23
ENDBRANCH   8  22
ENDBRANCH   5   7
ENDBRANCH   1   3
BRANCH   1  27
ATOM     27  C   UNL     1      27.170  17.270  -3.245  0.00  0.00    +0.240 C 
BRANCH  27  28
ATOM     28  O   UNL     1      25.989  16.857  -3.891  0.00  0.00    -0.450 OA
BRANCH  28  29
ATOM     29  C   UNL     1      25.527  15.831  -4.528  0.00  0.00    +0.400 C 
ATOM     30  N   UNL     1      24.260  15.431  -4.175  0.00  0.00    -0.278 N 
ATOM     31  H   UNL     1      24.004  14.723  -4.934  0.00  0.00    +0.152 HD
ATOM     32  O   UNL     1      26.101  15.216  -5.424  0.00  0.00    -0.226 OA
BRANCH  30  33
ATOM     33  C   UNL     1      23.140  15.527  -3.243  0.00  0.00    +0.152 C 
BRANCH  33  34
ATOM     34  C   UNL     1      23.223  14.636  -1.986  0.00  0.00    +0.193 C 
ATOM     35  O   UNL     1      21.881  14.177  -1.713  0.00  0.00    -0.219 OA
BRANCH  34  36
ATOM     36  C   UNL     1      24.062  13.343  -2.081  0.00  0.00    +0.212 C 
ATOM     37  O   UNL     1      25.413  13.588  -1.658  0.00  0.00    -0.218 OA
BRANCH  36  38
ATOM     38  C   UNL     1      23.475  12.154  -1.228  0.00  0.00    +0.171 C 
ATOM     39  O   UNL     1      23.671  12.335   0.170  0.00  0.00    -0.343 OA
ATOM     40  C   UNL     1      23.472  11.339   1.129  0.00  0.00    +0.220 C 
ATOM     41  C   UNL     1      24.203  10.037   0.759  0.00  0.00    +0.076 C 
ATOM     42  C   UNL     1      23.776   9.656  -0.668  0.00  0.00    +0.177 C 
ATOM     43  O   UNL     1      24.394   8.434  -1.047  0.00  0.00    -0.221 OA
ATOM     44  C   UNL     1      24.135  10.804  -1.662  0.00  0.00    +0.155 C 
BRANCH  44  45
ATOM     45  N   UNL     1      23.736  10.444  -3.020  0.00  0.00    -0.202 NA
ATOM     46  C   UNL     1      24.485  10.353  -4.149  0.00  0.00    +0.242 C 
ATOM     47  C   UNL     1      23.884   9.675  -5.352  0.00  0.00    +0.096 C 
ATOM     48  O   UNL     1      25.622  10.819  -4.163  0.00  0.00    -0.273 OA
ENDBRANCH  44  45
BRANCH  40  49
ATOM     49  C   UNL     1      21.907  11.069   1.468  0.00  0.00    +0.391 C 
ATOM     50  O   UNL     1      21.245  12.087   0.885  0.00  0.00    -0.243 OA
ATOM     51  O   UNL     1      21.838   9.812   1.922  0.00  0.00    -0.243 OA
ENDBRANCH  40  49
ENDBRANCH  36  38
ENDBRANCH  34  36
ENDBRANCH  33  34
ENDBRANCH  30  33
ENDBRANCH  28  29
ENDBRANCH  27  28
ENDBRANCH   1  27
TORSDOF 16
