REMARK VINA RESULT:    -8.071      1.620      4.300
REMARK INTER + INTRA:         -15.024
REMARK INTER:                 -12.868
REMARK INTRA:                  -2.155
REMARK UNBOUND:                -1.762
REMARK  Name = lig_assembled_25.pdb
REMARK  11 active torsions:
REMARK  status: ('A' for Active; 'I' for Inactive)
REMARK    1  A    between atoms: _2  and  _8
REMARK    2  A    between atoms: _5  and  _6
REMARK    3  A    between atoms: _5  and  _20
REMARK    4  A    between atoms: _20  and  _22
REMARK    5  A    between atoms: _21  and  _26
REMARK    6  A    between atoms: _22  and  _25
REMARK    7  A    between atoms: _30  and  _40
REMARK    8  A    between atoms: _32  and  _33
REMARK    9  A    between atoms: _34  and  _36
REMARK   10  A    between atoms: _36  and  _38
REMARK   11  A    between atoms: _38  and  _40
REMARK                            x       y       z     vdW  Elec       q    Type
REMARK                         _______ _______ _______ _____ _____    ______ ____
ROOT
ATOM      1  C   UNL     1      28.991  16.600  -0.497  0.00  0.00    +0.400 C 
ATOM      2  N   UNL     1      29.052  15.356   0.085  0.00  0.00    -0.278 N 
ATOM      3  H   UNL     1      29.856  15.450   0.783  0.00  0.00    +0.152 HD
ATOM      4  O   UNL     1      29.666  17.503  -0.009  0.00  0.00    -0.226 OA
ENDROOT
BRANCH   1   5
ATOM      5  O   UNL     1      28.236  16.692  -1.543  0.00  0.00    -0.450 OA
BRANCH   5   6
ATOM      6  C   UNL     1      27.102  17.403  -1.983  0.00  0.00    +0.240 C 
BRANCH   6   7
ATOM      7  C   UNL     1      26.563  17.082  -3.390  0.00  0.00    +0.100 C 
BRANCH   7   9
ATOM      8  N   UNL     1      26.378  14.628  -3.601  0.00  0.00    -0.134 NA
ATOM      9  C   UNL     1      25.776  15.835  -3.367  0.00  0.00    +0.086 A 
ATOM     10  C   UNL     1      24.430  15.635  -3.157  0.00  0.00    +0.134 A 
ATOM     11  N   UNL     1      24.268  14.284  -3.292  0.00  0.00    -0.240 N 
ATOM     12  N   UNL     1      25.451  13.684  -3.550  0.00  0.00    -0.065 NA
BRANCH  11  13
ATOM     13  C   UNL     1      23.054  13.484  -3.283  0.00  0.00    +0.170 C 
ATOM     14  C   UNL     1      21.830  14.278  -3.717  0.00  0.00    -0.011 A 
ATOM     15  C   UNL     1      20.833  14.210  -2.718  0.00  0.00    -0.012 A 
ATOM     16  C   UNL     1      21.330  13.419  -1.610  0.00  0.00    -0.012 A 
ATOM     17  C   UNL     1      20.712  13.043  -0.429  0.00  0.00    +0.009 A 
ATOM     18  C   UNL     1      21.422  12.238   0.465  0.00  0.00    +0.001 A 
ATOM     19  C   UNL     1      22.732  11.821   0.177  0.00  0.00    +0.000 A 
ATOM     20  C   UNL     1      23.359  12.198  -1.013  0.00  0.00    +0.006 A 
ATOM     21  C   UNL     1      19.614  14.841  -2.899  0.00  0.00    +0.009 A 
ATOM     22  C   UNL     1      19.398  15.540  -4.091  0.00  0.00    +0.001 A 
ATOM     23  C   UNL     1      20.391  15.602  -5.083  0.00  0.00    +0.000 A 
ATOM     24  C   UNL     1      21.619  14.965  -4.903  0.00  0.00    +0.006 A 
ATOM     25  C   UNL     1      22.649  12.999  -1.898  0.00  0.00    -0.011 A 
ENDBRANCH  11  13
ENDBRANCH   7   9
ENDBRANCH   6   7
ENDBRANCH   5   6
ENDBRANCH   1   5
BRANCH   2  26
ATOM     26  C   UNL     1      28.515  14.002   0.186  0.00  0.00    +0.152 C 
BRANCH  26  27
ATOM     27  C   UNL     1      28.967  13.009  -0.905  0.00  0.00    +0.193 C 
ATOM     28  O   UNL     1      29.159  13.778  -2.113  0.00  0.00    -0.219 OA
BRANCH  27  29
ATOM     29  C   UNL     1      30.311  12.279  -0.695  0.00  0.00    +0.212 C 
ATOM     30  O   UNL     1      30.213  10.912  -1.126  0.00  0.00    -0.218 OA
BRANCH  29  31
ATOM     31  C   UNL     1      31.516  12.960  -1.449  0.00  0.00    +0.171 C 
ATOM     32  O   UNL     1      32.103  12.107  -2.426  0.00  0.00    -0.343 OA
ATOM     33  C   UNL     1      33.321  12.358  -3.062  0.00  0.00    +0.220 C 
ATOM     34  C   UNL     1      34.436  12.683  -2.052  0.00  0.00    +0.076 C 
ATOM     35  C   UNL     1      33.927  13.823  -1.154  0.00  0.00    +0.177 C 
ATOM     36  O   UNL     1      34.937  14.191  -0.225  0.00  0.00    -0.221 OA
ATOM     37  C   UNL     1      32.617  13.389  -0.425  0.00  0.00    +0.155 C 
BRANCH  37  38
ATOM     38  N   UNL     1      32.135  14.467   0.435  0.00  0.00    -0.202 NA
ATOM     39  C   UNL     1      31.952  14.488   1.780  0.00  0.00    +0.242 C 
ATOM     40  C   UNL     1      31.726  15.818   2.451  0.00  0.00    +0.096 C 
ATOM     41  O   UNL     1      31.976  13.434   2.413  0.00  0.00    -0.273 OA
ENDBRANCH  37  38
BRANCH  33  42
ATOM     42  C   UNL     1      33.223  13.487  -4.227  0.00  0.00    +0.391 C 
ATOM     43  O   UNL     1      34.500  13.761  -4.554  0.00  0.00    -0.243 OA
ATOM     44  O   UNL     1      31.945  13.496  -4.625  0.00  0.00    -0.243 OA
ENDBRANCH  33  42
ENDBRANCH  29  31
ENDBRANCH  27  29
ENDBRANCH  26  27
ENDBRANCH   2  26
TORSDOF 11
