REMARK VINA RESULT:    -7.628      2.831      5.897
REMARK INTER + INTRA:         -16.199
REMARK INTER:                 -13.595
REMARK INTRA:                  -2.603
REMARK UNBOUND:                -2.551
REMARK  Name = lig_assembled_64.pdb
REMARK  14 active torsions:
REMARK  status: ('A' for Active; 'I' for Inactive)
REMARK    1  A    between atoms: _2  and  _9
REMARK    2  A    between atoms: _6  and  _7
REMARK    3  A    between atoms: _6  and  _22
REMARK    4  A    between atoms: _11  and  _12
REMARK    5  A    between atoms: _12  and  _20
REMARK    6  A    between atoms: _13  and  _14
REMARK    7  A    between atoms: _22  and  _24
REMARK    8  A    between atoms: _23  and  _28
REMARK    9  A    between atoms: _24  and  _27
REMARK   10  A    between atoms: _32  and  _42
REMARK   11  A    between atoms: _34  and  _35
REMARK   12  A    between atoms: _36  and  _38
REMARK   13  A    between atoms: _38  and  _40
REMARK   14  A    between atoms: _40  and  _42
REMARK                            x       y       z     vdW  Elec       q    Type
REMARK                         _______ _______ _______ _____ _____    ______ ____
ROOT
ATOM      1  O   UNL     1      27.733  17.215  -2.384  0.00  0.00    -0.450 OA
ENDROOT
BRANCH   1   2
ATOM      2  C   UNL     1      27.844  17.406  -1.111  0.00  0.00    +0.400 C 
ATOM      3  N   UNL     1      28.307  16.332  -0.387  0.00  0.00    -0.278 N 
ATOM      4  H   UNL     1      28.508  16.752   0.576  0.00  0.00    +0.152 HD
ATOM      5  O   UNL     1      27.605  18.450  -0.510  0.00  0.00    -0.226 OA
BRANCH   3   6
ATOM      6  C   UNL     1      28.626  14.908  -0.339  0.00  0.00    +0.152 C 
BRANCH   6   7
ATOM      7  C   UNL     1      29.595  14.465   0.776  0.00  0.00    +0.193 C 
ATOM      8  O   UNL     1      29.742  13.033   0.654  0.00  0.00    -0.219 OA
BRANCH   7   9
ATOM      9  C   UNL     1      31.040  15.007   0.724  0.00  0.00    +0.212 C 
ATOM     10  O   UNL     1      31.095  16.344   1.246  0.00  0.00    -0.218 OA
BRANCH   9  11
ATOM     11  C   UNL     1      32.071  14.114   1.515  0.00  0.00    +0.171 C 
ATOM     12  O   UNL     1      32.454  14.692   2.758  0.00  0.00    -0.343 OA
ATOM     13  C   UNL     1      33.522  14.244   3.540  0.00  0.00    +0.220 C 
ATOM     14  C   UNL     1      34.814  14.105   2.715  0.00  0.00    +0.076 C 
ATOM     15  C   UNL     1      34.491  13.226   1.495  0.00  0.00    +0.177 C 
ATOM     16  O   UNL     1      35.664  13.033   0.718  0.00  0.00    -0.221 OA
ATOM     17  C   UNL     1      33.352  13.877   0.650  0.00  0.00    +0.155 C 
BRANCH  17  18
ATOM     18  N   UNL     1      33.048  13.049  -0.514  0.00  0.00    -0.202 NA
ATOM     19  C   UNL     1      33.058  13.369  -1.833  0.00  0.00    +0.242 C 
ATOM     20  C   UNL     1      32.992  12.251  -2.841  0.00  0.00    +0.096 C 
ATOM     21  O   UNL     1      33.123  14.549  -2.172  0.00  0.00    -0.273 OA
ENDBRANCH  17  18
BRANCH  13  22
ATOM     22  C   UNL     1      33.193  12.885   4.367  0.00  0.00    +0.391 C 
ATOM     23  O   UNL     1      34.338  12.584   5.011  0.00  0.00    -0.243 OA
ATOM     24  O   UNL     1      31.861  12.750   4.343  0.00  0.00    -0.243 OA
ENDBRANCH  13  22
ENDBRANCH   9  11
ENDBRANCH   7   9
ENDBRANCH   6   7
ENDBRANCH   3   6
ENDBRANCH   1   2
BRANCH   1  25
ATOM     25  C   UNL     1      26.768  17.340  -3.403  0.00  0.00    +0.240 C 
BRANCH  25  26
ATOM     26  C   UNL     1      26.377  16.064  -4.172  0.00  0.00    +0.100 C 
BRANCH  26  28
ATOM     27  N   UNL     1      24.203  15.106  -3.458  0.00  0.00    -0.134 NA
ATOM     28  C   UNL     1      25.559  15.178  -3.322  0.00  0.00    +0.086 A 
ATOM     29  C   UNL     1      25.954  14.327  -2.318  0.00  0.00    +0.139 A 
ATOM     30  N   UNL     1      24.792  13.754  -1.857  0.00  0.00    -0.220 N 
ATOM     31  N   UNL     1      23.743  14.236  -2.566  0.00  0.00    -0.061 NA
BRANCH  30  32
ATOM     32  C   UNL     1      24.629  12.804  -0.821  0.00  0.00    +0.071 A 
ATOM     33  C   UNL     1      23.462  12.051  -0.736  0.00  0.00    +0.063 A 
ATOM     34  CA  UNL     1      23.365  11.142   0.298  0.00  0.00    +0.150 A 
ATOM     35  N   UNL     1      24.324  10.932   1.245  0.00  0.00    -0.240 NA
ATOM     36  C   UNL     1      25.457  11.681   1.162  0.00  0.00    +0.074 A 
ATOM     37  C   UNL     1      25.639  12.613   0.134  0.00  0.00    +0.056 A 
BRANCH  36  38
ATOM     38  C   UNL     1      26.451  11.459   2.239  0.00  0.00    +0.000 A 
ATOM     39  C   UNL     1      26.869  10.168   2.616  0.00  0.00    +0.010 A 
ATOM     40  C   UNL     1      27.836   9.970   3.609  0.00  0.00    +0.001 A 
ATOM     41  C   UNL     1      28.411  11.063   4.251  0.00  0.00    +0.000 A 
ATOM     42  C   UNL     1      28.014  12.349   3.906  0.00  0.00    +0.001 A 
ATOM     43  C   UNL     1      27.045  12.543   2.914  0.00  0.00    +0.010 A 
ENDBRANCH  36  38
BRANCH  34  44
ATOM     44  C   UNL     1      22.131  10.313   0.429  0.00  0.00    +0.355 C 
ATOM     45  OXT UNL     1      21.806   9.713   1.439  0.00  0.00    -0.243 OA
BRANCH  44  46
ATOM     46  O   UNL     1      21.426  10.319  -0.726  0.00  0.00    -0.476 OA
ATOM     47  H   UNL     1      20.537   9.929  -0.560  0.00  0.00    +0.295 HD
ENDBRANCH  44  46
ENDBRANCH  34  44
ENDBRANCH  30  32
ENDBRANCH  26  28
ENDBRANCH  25  26
ENDBRANCH   1  25
TORSDOF 14
