REMARK VINA RESULT:    -5.965      3.338     10.056
REMARK INTER + INTRA:         -14.675
REMARK INTER:                 -12.746
REMARK INTRA:                  -1.929
REMARK UNBOUND:                -2.957
REMARK  Name = lig_assembled_74.pdb
REMARK  19 active torsions:
REMARK  status: ('A' for Active; 'I' for Inactive)
REMARK    1  A    between atoms: _2  and  _8
REMARK    2  A    between atoms: _4  and  _13
REMARK    3  A    between atoms: _5  and  _6
REMARK    4  A    between atoms: _5  and  _17
REMARK    5  A    between atoms: _8  and  _9
REMARK    6  A    between atoms: _9  and  _10
REMARK    7  A    between atoms: _9  and  _12
REMARK    8  A    between atoms: _10  and  _11
REMARK    9  A    between atoms: _11  and  _15
REMARK   10  A    between atoms: _12  and  _13
REMARK   11  A    between atoms: _13  and  _14
REMARK   12  A    between atoms: _17  and  _19
REMARK   13  A    between atoms: _18  and  _23
REMARK   14  A    between atoms: _19  and  _22
REMARK   15  A    between atoms: _27  and  _37
REMARK   16  A    between atoms: _29  and  _30
REMARK   17  A    between atoms: _31  and  _33
REMARK   18  A    between atoms: _33  and  _35
REMARK   19  A    between atoms: _35  and  _37
REMARK                            x       y       z     vdW  Elec       q    Type
REMARK                         _______ _______ _______ _____ _____    ______ ____
ROOT
ATOM      1  C   UNL     1      33.587  13.823   2.016  0.00  0.00    +0.400 C 
ATOM      2  N   UNL     1      32.418  14.333   1.500  0.00  0.00    -0.278 N 
ATOM      3  H   UNL     1      32.320  13.826   0.564  0.00  0.00    +0.152 HD
ATOM      4  O   UNL     1      34.102  12.864   1.446  0.00  0.00    -0.226 OA
ENDROOT
BRANCH   1   5
ATOM      5  O   UNL     1      34.054  14.434   3.055  0.00  0.00    -0.450 OA
BRANCH   5   6
ATOM      6  C   UNL     1      34.630  14.131   4.304  0.00  0.00    +0.240 C 
BRANCH   6   7
ATOM      7  C   UNL     1      34.465  12.693   4.832  0.00  0.00    +0.100 C 
BRANCH   7   9
ATOM      8  N   UNL     1      32.005  12.408   5.016  0.00  0.00    -0.134 NA
ATOM      9  C   UNL     1      33.225  12.566   5.621  0.00  0.00    +0.086 A 
ATOM     10  C   UNL     1      33.060  12.494   6.987  0.00  0.00    +0.133 A 
ATOM     11  N   UNL     1      31.757  12.111   7.133  0.00  0.00    -0.251 N 
ATOM     12  N   UNL     1      31.105  12.156   5.956  0.00  0.00    -0.065 NA
BRANCH  11  13
ATOM     13  C   UNL     1      31.180  11.400   8.258  0.00  0.00    +0.149 C 
BRANCH  13  14
ATOM     14  C   UNL     1      30.661  12.286   9.411  0.00  0.00    +0.021 C 
BRANCH  14  15
ATOM     15  C   UNL     1      31.461  12.121  10.719  0.00  0.00    +0.125 C 
BRANCH  15  16
ATOM     16  C   UNL     1      32.918  12.523  10.627  0.00  0.00    +0.305 C 
ATOM     17  O   UNL     1      33.855  11.743  10.573  0.00  0.00    -0.251 OA
BRANCH  16  18
ATOM     18  O   UNL     1      33.092  13.854  10.540  0.00  0.00    -0.481 OA
ATOM     19  H   UNL     1      33.778  14.148   9.914  0.00  0.00    +0.295 HD
ENDBRANCH  16  18
ENDBRANCH  15  16
ENDBRANCH  14  15
BRANCH  14  20
ATOM     20  C   UNL     1      29.135  12.039   9.596  0.00  0.00    +0.009 C 
BRANCH  20  21
ATOM     21  C   UNL     1      28.749  10.858  10.513  0.00  0.00    -0.017 C 
ATOM     22  C   UNL     1      27.898  11.305  11.704  0.00  0.00    +0.007 C 
ATOM     23  C   UNL     1      27.980   9.793   9.722  0.00  0.00    +0.007 C 
ENDBRANCH  20  21
ENDBRANCH  14  20
ENDBRANCH  13  14
ENDBRANCH  11  13
ENDBRANCH   7   9
ENDBRANCH   6   7
ENDBRANCH   5   6
ENDBRANCH   1   5
BRANCH   2  24
ATOM     24  C   UNL     1      31.272  15.223   1.660  0.00  0.00    +0.152 C 
BRANCH  24  25
ATOM     25  C   UNL     1      30.560  15.655   0.362  0.00  0.00    +0.193 C 
ATOM     26  O   UNL     1      31.579  16.186  -0.514  0.00  0.00    -0.219 OA
BRANCH  25  27
ATOM     27  C   UNL     1      29.870  14.555  -0.474  0.00  0.00    +0.212 C 
ATOM     28  O   UNL     1      30.783  13.478  -0.740  0.00  0.00    -0.218 OA
BRANCH  27  29
ATOM     29  C   UNL     1      28.581  13.963   0.214  0.00  0.00    +0.171 C 
ATOM     30  O   UNL     1      28.867  12.839   1.040  0.00  0.00    -0.343 OA
ATOM     31  C   UNL     1      27.899  11.982   1.568  0.00  0.00    +0.220 C 
ATOM     32  C   UNL     1      26.927  11.482   0.485  0.00  0.00    +0.076 C 
ATOM     33  C   UNL     1      26.371  12.717  -0.243  0.00  0.00    +0.177 C 
ATOM     34  O   UNL     1      25.434  12.312  -1.231  0.00  0.00    -0.221 OA
ATOM     35  C   UNL     1      27.537  13.541  -0.871  0.00  0.00    +0.155 C 
BRANCH  35  36
ATOM     36  N   UNL     1      27.012  14.712  -1.570  0.00  0.00    -0.202 NA
ATOM     37  C   UNL     1      26.710  14.875  -2.883  0.00  0.00    +0.242 C 
ATOM     38  C   UNL     1      25.907  16.085  -3.287  0.00  0.00    +0.096 C 
ATOM     39  O   UNL     1      27.091  14.043  -3.703  0.00  0.00    -0.273 OA
ENDBRANCH  35  36
BRANCH  31  40
ATOM     40  C   UNL     1      27.105  12.609   2.840  0.00  0.00    +0.391 C 
ATOM     41  O   UNL     1      27.823  13.690   3.199  0.00  0.00    -0.243 OA
ATOM     42  O   UNL     1      25.908  12.011   2.859  0.00  0.00    -0.243 OA
ENDBRANCH  31  40
ENDBRANCH  27  29
ENDBRANCH  25  27
ENDBRANCH  24  25
ENDBRANCH   2  24
TORSDOF 17
