REMARK VINA RESULT:    -6.895      3.264      9.058
REMARK INTER + INTRA:         -14.888
REMARK INTER:                 -12.337
REMARK INTRA:                  -2.551
REMARK UNBOUND:                -2.551
REMARK  Name = lig_assembled_64.pdb
REMARK  14 active torsions:
REMARK  status: ('A' for Active; 'I' for Inactive)
REMARK    1  A    between atoms: _2  and  _9
REMARK    2  A    between atoms: _6  and  _7
REMARK    3  A    between atoms: _6  and  _22
REMARK    4  A    between atoms: _11  and  _12
REMARK    5  A    between atoms: _12  and  _20
REMARK    6  A    between atoms: _13  and  _14
REMARK    7  A    between atoms: _22  and  _24
REMARK    8  A    between atoms: _23  and  _28
REMARK    9  A    between atoms: _24  and  _27
REMARK   10  A    between atoms: _32  and  _42
REMARK   11  A    between atoms: _34  and  _35
REMARK   12  A    between atoms: _36  and  _38
REMARK   13  A    between atoms: _38  and  _40
REMARK   14  A    between atoms: _40  and  _42
REMARK                            x       y       z     vdW  Elec       q    Type
REMARK                         _______ _______ _______ _____ _____    ______ ____
ROOT
ATOM      1  O   UNL     1      28.024  16.757  -1.846  0.00  0.00    -0.450 OA
ENDROOT
BRANCH   1   2
ATOM      2  C   UNL     1      27.211  17.628  -2.347  0.00  0.00    +0.400 C 
ATOM      3  N   UNL     1      26.379  17.165  -3.339  0.00  0.00    -0.278 N 
ATOM      4  H   UNL     1      25.679  17.962  -3.467  0.00  0.00    +0.152 HD
ATOM      5  O   UNL     1      27.101  18.801  -2.000  0.00  0.00    -0.226 OA
BRANCH   3   6
ATOM      6  C   UNL     1      26.039  16.103  -4.283  0.00  0.00    +0.152 C 
BRANCH   6   7
ATOM      7  C   UNL     1      25.785  14.708  -3.675  0.00  0.00    +0.193 C 
ATOM      8  O   UNL     1      27.077  14.077  -3.531  0.00  0.00    -0.219 OA
BRANCH   7   9
ATOM      9  C   UNL     1      25.166  14.647  -2.261  0.00  0.00    +0.212 C 
ATOM     10  O   UNL     1      24.019  15.508  -2.178  0.00  0.00    -0.218 OA
BRANCH   9  11
ATOM     11  C   UNL     1      24.737  13.192  -1.831  0.00  0.00    +0.171 C 
ATOM     12  O   UNL     1      23.325  13.046  -1.726  0.00  0.00    -0.343 OA
ATOM     13  C   UNL     1      22.687  11.952  -1.136  0.00  0.00    +0.220 C 
ATOM     14  C   UNL     1      23.253  11.648   0.261  0.00  0.00    +0.076 C 
ATOM     15  C   UNL     1      24.779  11.510   0.122  0.00  0.00    +0.177 C 
ATOM     16  O   UNL     1      25.350  11.188   1.382  0.00  0.00    -0.221 OA
ATOM     17  C   UNL     1      25.387  12.826  -0.456  0.00  0.00    +0.155 C 
BRANCH  17  18
ATOM     18  N   UNL     1      26.836  12.701  -0.583  0.00  0.00    -0.202 NA
ATOM     19  C   UNL     1      27.813  12.977   0.318  0.00  0.00    +0.242 C 
ATOM     20  C   UNL     1      29.208  12.481   0.035  0.00  0.00    +0.096 C 
ATOM     21  O   UNL     1      27.541  13.616   1.332  0.00  0.00    -0.273 OA
ENDBRANCH  17  18
BRANCH  13  22
ATOM     22  C   UNL     1      22.672  10.627  -2.076  0.00  0.00    +0.391 C 
ATOM     23  O   UNL     1      22.126   9.663  -1.309  0.00  0.00    -0.243 OA
ATOM     24  O   UNL     1      22.916  11.055  -3.321  0.00  0.00    -0.243 OA
ENDBRANCH  13  22
ENDBRANCH   9  11
ENDBRANCH   7   9
ENDBRANCH   6   7
ENDBRANCH   3   6
ENDBRANCH   1   2
BRANCH   1  25
ATOM     25  C   UNL     1      28.614  16.434  -0.608  0.00  0.00    +0.240 C 
BRANCH  25  26
ATOM     26  C   UNL     1      30.020  16.994  -0.323  0.00  0.00    +0.100 C 
BRANCH  26  28
ATOM     27  N   UNL     1      31.742  15.216  -0.487  0.00  0.00    -0.134 NA
ATOM     28  C   UNL     1      30.881  15.954   0.272  0.00  0.00    +0.086 A 
ATOM     29  C   UNL     1      30.982  15.552   1.583  0.00  0.00    +0.139 A 
ATOM     30  N   UNL     1      31.923  14.550   1.577  0.00  0.00    -0.220 N 
ATOM     31  N   UNL     1      32.375  14.366   0.314  0.00  0.00    -0.061 NA
BRANCH  30  32
ATOM     32  C   UNL     1      32.403  13.787   2.668  0.00  0.00    +0.071 A 
ATOM     33  C   UNL     1      33.757  13.482   2.769  0.00  0.00    +0.063 A 
ATOM     34  CA  UNL     1      34.162  12.734   3.857  0.00  0.00    +0.150 A 
ATOM     35  N   UNL     1      33.333  12.267   4.834  0.00  0.00    -0.240 NA
ATOM     36  C   UNL     1      32.008  12.559   4.721  0.00  0.00    +0.074 A 
ATOM     37  C   UNL     1      31.521  13.325   3.657  0.00  0.00    +0.056 A 
BRANCH  36  38
ATOM     38  C   UNL     1      31.135  11.989   5.775  0.00  0.00    +0.000 A 
ATOM     39  C   UNL     1      29.999  11.216   5.469  0.00  0.00    +0.010 A 
ATOM     40  C   UNL     1      29.202  10.652   6.472  0.00  0.00    +0.001 A 
ATOM     41  C   UNL     1      29.524  10.848   7.812  0.00  0.00    +0.000 A 
ATOM     42  C   UNL     1      30.635  11.613   8.146  0.00  0.00    +0.001 A 
ATOM     43  C   UNL     1      31.428  12.177   7.140  0.00  0.00    +0.010 A 
ENDBRANCH  36  38
BRANCH  34  44
ATOM     44  C   UNL     1      35.604  12.383   4.007  0.00  0.00    +0.355 C 
ATOM     45  OXT UNL     1      36.494  12.798   3.285  0.00  0.00    -0.243 OA
BRANCH  44  46
ATOM     46  O   UNL     1      35.786  11.540   5.049  0.00  0.00    -0.476 OA
ATOM     47  H   UNL     1      36.225  10.720   4.725  0.00  0.00    +0.295 HD
ENDBRANCH  44  46
ENDBRANCH  34  44
ENDBRANCH  30  32
ENDBRANCH  26  28
ENDBRANCH  25  26
ENDBRANCH   1  25
TORSDOF 14
