REMARK VINA RESULT:    -7.590      1.895      2.276
REMARK INTER + INTRA:         -15.555
REMARK INTER:                 -12.519
REMARK INTRA:                  -3.037
REMARK UNBOUND:                -1.975
REMARK  Name = lig_assembled_77.pdb
REMARK  14 active torsions:
REMARK  status: ('A' for Active; 'I' for Inactive)
REMARK    1  A    between atoms: _2  and  _9
REMARK    2  A    between atoms: _3  and  _16
REMARK    3  A    between atoms: _6  and  _7
REMARK    4  A    between atoms: _6  and  _22
REMARK    5  A    between atoms: _12  and  _50
REMARK    6  A    between atoms: _13  and  _50
REMARK    7  A    between atoms: _22  and  _24
REMARK    8  A    between atoms: _23  and  _28
REMARK    9  A    between atoms: _24  and  _27
REMARK   10  A    between atoms: _32  and  _42
REMARK   11  A    between atoms: _34  and  _35
REMARK   12  A    between atoms: _36  and  _38
REMARK   13  A    between atoms: _38  and  _40
REMARK   14  A    between atoms: _40  and  _42
REMARK                            x       y       z     vdW  Elec       q    Type
REMARK                         _______ _______ _______ _____ _____    ______ ____
ROOT
ATOM      1  C   UNL     1      27.107  17.155  -3.457  0.00  0.00    +0.240 C 
ENDROOT
BRANCH   1   2
ATOM      2  C   UNL     1      27.120  17.686  -2.011  0.00  0.00    +0.100 C 
BRANCH   2   4
ATOM      3  N   UNL     1      29.352  17.696  -0.948  0.00  0.00    -0.134 NA
ATOM      4  C   UNL     1      28.193  17.037  -1.234  0.00  0.00    +0.086 A 
ATOM      5  C   UNL     1      28.248  15.774  -0.690  0.00  0.00    +0.139 A 
ATOM      6  N   UNL     1      29.472  15.709  -0.063  0.00  0.00    -0.220 N 
ATOM      7  N   UNL     1      30.128  16.882  -0.245  0.00  0.00    -0.061 NA
BRANCH   6   8
ATOM      8  C   UNL     1      30.016  14.660   0.724  0.00  0.00    +0.067 A 
ATOM      9  C   UNL     1      31.027  14.913   1.664  0.00  0.00    +0.030 A 
ATOM     10  C   UNL     1      31.634  13.853   2.342  0.00  0.00    +0.029 A 
ATOM     11  C   UNL     1      31.228  12.542   2.083  0.00  0.00    +0.094 A 
ATOM     12  C   UNL     1      30.161  12.286   1.219  0.00  0.00    +0.029 A 
ATOM     13  C   UNL     1      29.563  13.344   0.530  0.00  0.00    +0.030 A 
BRANCH  11  14
ATOM     14  S   UNL     1      32.052  11.188   2.897  0.00  0.00    +0.025 S 
ATOM     15  O   UNL     1      31.168  10.042   2.769  0.00  0.00    -0.164 OA
ATOM     16  O   UNL     1      33.408  11.136   2.387  0.00  0.00    -0.164 OA
BRANCH  14  17
ATOM     17  C   UNL     1      32.182  11.553   4.635  0.00  0.00    +0.094 A 
ATOM     18  C   UNL     1      31.048  11.593   5.448  0.00  0.00    +0.029 A 
ATOM     19  C   UNL     1      31.180  11.944   6.797  0.00  0.00    +0.024 A 
ATOM     20  C   UNL     1      32.437  12.212   7.355  0.00  0.00    +0.025 A 
ATOM     21  C   UNL     1      33.556  12.198   6.518  0.00  0.00    +0.024 A 
ATOM     22  C   UNL     1      33.439  11.850   5.169  0.00  0.00    +0.029 A 
BRANCH  20  23
ATOM     23  N   UNL     1      32.536  12.726   8.651  0.00  0.00    -0.358 N 
ATOM     24  H   UNL     1      33.021  13.614   8.721  0.00  0.00    +0.142 HD
ATOM     25  H   UNL     1      31.666  12.716   9.173  0.00  0.00    +0.142 HD
ENDBRANCH  20  23
ENDBRANCH  14  17
ENDBRANCH  11  14
ENDBRANCH   6   8
ENDBRANCH   2   4
ENDBRANCH   1   2
BRANCH   1  26
ATOM     26  O   UNL     1      26.036  16.321  -3.833  0.00  0.00    -0.450 OA
BRANCH  26  27
ATOM     27  C   UNL     1      25.135  15.574  -3.284  0.00  0.00    +0.400 C 
ATOM     28  N   UNL     1      25.561  14.334  -2.871  0.00  0.00    -0.278 N 
ATOM     29  H   UNL     1      24.743  13.973  -2.286  0.00  0.00    +0.152 HD
ATOM     30  O   UNL     1      23.964  15.883  -3.076  0.00  0.00    -0.226 OA
BRANCH  28  31
ATOM     31  C   UNL     1      26.599  13.306  -2.886  0.00  0.00    +0.152 C 
BRANCH  31  32
ATOM     32  C   UNL     1      26.160  11.890  -2.461  0.00  0.00    +0.193 C 
ATOM     33  O   UNL     1      27.365  11.105  -2.323  0.00  0.00    -0.219 OA
BRANCH  32  34
ATOM     34  C   UNL     1      25.446  11.742  -1.099  0.00  0.00    +0.212 C 
ATOM     35  O   UNL     1      25.777  12.842  -0.236  0.00  0.00    -0.218 OA
BRANCH  34  36
ATOM     36  C   UNL     1      23.877  11.654  -1.223  0.00  0.00    +0.171 C 
ATOM     37  O   UNL     1      23.337  12.663  -2.071  0.00  0.00    -0.343 OA
ATOM     38  C   UNL     1      21.977  12.968  -2.166  0.00  0.00    +0.220 C 
ATOM     39  C   UNL     1      21.344  13.189  -0.781  0.00  0.00    +0.076 C 
ATOM     40  C   UNL     1      21.673  11.958   0.079  0.00  0.00    +0.177 C 
ATOM     41  O   UNL     1      21.075  12.093   1.361  0.00  0.00    -0.221 OA
ATOM     42  C   UNL     1      23.219  11.776   0.190  0.00  0.00    +0.155 C 
BRANCH  42  43
ATOM     43  N   UNL     1      23.535  10.611   1.013  0.00  0.00    -0.202 NA
ATOM     44  C   UNL     1      24.153  10.543   2.219  0.00  0.00    +0.242 C 
ATOM     45  C   UNL     1      24.089   9.246   2.983  0.00  0.00    +0.096 C 
ATOM     46  O   UNL     1      24.742  11.529   2.657  0.00  0.00    -0.273 OA
ENDBRANCH  42  43
BRANCH  38  47
ATOM     47  C   UNL     1      21.133  11.894  -3.044  0.00  0.00    +0.391 C 
ATOM     48  O   UNL     1      19.842  12.232  -2.860  0.00  0.00    -0.243 OA
ATOM     49  O   UNL     1      22.021  11.286  -3.840  0.00  0.00    -0.243 OA
ENDBRANCH  38  47
ENDBRANCH  34  36
ENDBRANCH  32  34
ENDBRANCH  31  32
ENDBRANCH  28  31
ENDBRANCH  26  27
ENDBRANCH   1  26
TORSDOF 14
