REMARK VINA RESULT:    -6.550     23.759     25.981
REMARK INTER + INTRA:         -12.986
REMARK INTER:                 -10.921
REMARK INTRA:                  -2.065
REMARK UNBOUND:                -1.841
REMARK  Name = lig_assembled_39.pdb
REMARK  12 active torsions:
REMARK  status: ('A' for Active; 'I' for Inactive)
REMARK    1  A    between atoms: _2  and  _8
REMARK    2  A    between atoms: _5  and  _6
REMARK    3  A    between atoms: _5  and  _14
REMARK    4  A    between atoms: _8  and  _9
REMARK    5  A    between atoms: _14  and  _16
REMARK    6  A    between atoms: _15  and  _20
REMARK    7  A    between atoms: _16  and  _19
REMARK    8  A    between atoms: _24  and  _34
REMARK    9  A    between atoms: _26  and  _27
REMARK   10  A    between atoms: _28  and  _30
REMARK   11  A    between atoms: _30  and  _32
REMARK   12  A    between atoms: _32  and  _34
REMARK                            x       y       z     vdW  Elec       q    Type
REMARK                         _______ _______ _______ _____ _____    ______ ____
ROOT
ATOM      1  C   UNL     1      32.485  40.531   4.792  0.00  0.00    +0.400 C 
ATOM      2  N   UNL     1      33.541  39.968   5.469  0.00  0.00    -0.278 N 
ATOM      3  H   UNL     1      33.898  39.221   4.793  0.00  0.00    +0.152 HD
ATOM      4  O   UNL     1      32.322  40.224   3.614  0.00  0.00    -0.226 OA
ENDROOT
BRANCH   2   5
ATOM      5  C   UNL     1      34.382  39.942   6.662  0.00  0.00    +0.152 C 
BRANCH   5   6
ATOM      6  C   UNL     1      35.906  39.928   6.420  0.00  0.00    +0.193 C 
ATOM      7  O   UNL     1      36.532  39.867   7.721  0.00  0.00    -0.219 OA
BRANCH   6   8
ATOM      8  C   UNL     1      36.496  38.727   5.650  0.00  0.00    +0.212 C 
ATOM      9  O   UNL     1      35.675  37.562   5.831  0.00  0.00    -0.218 OA
BRANCH   8  10
ATOM     10  C   UNL     1      36.659  38.994   4.105  0.00  0.00    +0.171 C 
ATOM     11  O   UNL     1      35.441  38.821   3.388  0.00  0.00    -0.343 OA
ATOM     12  C   UNL     1      35.349  38.755   1.996  0.00  0.00    +0.220 C 
ATOM     13  C   UNL     1      36.343  37.740   1.405  0.00  0.00    +0.076 C 
ATOM     14  C   UNL     1      37.739  38.091   1.946  0.00  0.00    +0.177 C 
ATOM     15  O   UNL     1      38.704  37.204   1.398  0.00  0.00    -0.221 OA
ATOM     16  C   UNL     1      37.741  38.037   3.505  0.00  0.00    +0.155 C 
BRANCH  16  17
ATOM     17  N   UNL     1      39.067  38.363   4.022  0.00  0.00    -0.202 NA
ATOM     18  C   UNL     1      40.084  37.540   4.385  0.00  0.00    +0.242 C 
ATOM     19  C   UNL     1      41.447  38.141   4.605  0.00  0.00    +0.096 C 
ATOM     20  O   UNL     1      39.872  36.337   4.521  0.00  0.00    -0.273 OA
ENDBRANCH  16  17
BRANCH  12  21
ATOM     21  C   UNL     1      35.474  40.204   1.270  0.00  0.00    +0.391 C 
ATOM     22  O   UNL     1      35.610  39.925  -0.041  0.00  0.00    -0.243 OA
ATOM     23  O   UNL     1      35.098  41.108   2.183  0.00  0.00    -0.243 OA
ENDBRANCH  12  21
ENDBRANCH   8  10
ENDBRANCH   6   8
ENDBRANCH   5   6
ENDBRANCH   2   5
BRANCH   1  24
ATOM     24  O   UNL     1      31.734  41.323   5.485  0.00  0.00    -0.450 OA
BRANCH  24  25
ATOM     25  C   UNL     1      30.369  41.525   5.767  0.00  0.00    +0.240 C 
BRANCH  25  26
ATOM     26  C   UNL     1      29.758  40.722   6.932  0.00  0.00    +0.100 C 
BRANCH  26  28
ATOM     27  N   UNL     1      29.224  39.105   5.135  0.00  0.00    -0.134 NA
ATOM     28  C   UNL     1      29.035  39.544   6.420  0.00  0.00    +0.086 A 
ATOM     29  C   UNL     1      28.137  38.714   7.053  0.00  0.00    +0.134 A 
ATOM     30  N   UNL     1      27.881  37.745   6.127  0.00  0.00    -0.247 N 
ATOM     31  N   UNL     1      28.488  38.017   4.956  0.00  0.00    -0.065 NA
BRANCH  30  32
ATOM     32  C   UNL     1      27.134  36.508   6.309  0.00  0.00    +0.181 C 
BRANCH  32  33
ATOM     33  C   UNL     1      27.637  35.669   7.469  0.00  0.00    -0.012 A 
ATOM     34  C   UNL     1      28.892  35.028   7.412  0.00  0.00    +0.006 A 
ATOM     35  C   UNL     1      29.365  34.249   8.472  0.00  0.00    +0.000 A 
ATOM     36  C   UNL     1      28.583  34.071   9.605  0.00  0.00    +0.001 A 
ATOM     37  C   UNL     1      27.321  34.657   9.671  0.00  0.00    +0.015 A 
ATOM     38  C   UNL     1      26.846  35.440   8.610  0.00  0.00    +0.023 A 
ATOM     39 BR   UNL     1      25.086  36.139   8.789  0.00  0.00    -0.050 Br
ENDBRANCH  32  33
ENDBRANCH  30  32
ENDBRANCH  26  28
ENDBRANCH  25  26
ENDBRANCH  24  25
ENDBRANCH   1  24
TORSDOF 12
