REMARK VINA RESULT:    -6.259      1.760      2.354
REMARK INTER + INTRA:         -13.246
REMARK INTER:                 -11.074
REMARK INTRA:                  -2.172
REMARK UNBOUND:                -2.596
REMARK  Name = lig_assembled_4.pdb
REMARK  14 active torsions:
REMARK  status: ('A' for Active; 'I' for Inactive)
REMARK    1  A    between atoms: _2  and  _8
REMARK    2  A    between atoms: _5  and  _6
REMARK    3  A    between atoms: _5  and  _16
REMARK    4  A    between atoms: _9  and  _10
REMARK    5  A    between atoms: _10  and  _11
REMARK    6  A    between atoms: _10  and  _12
REMARK    7  A    between atoms: _16  and  _18
REMARK    8  A    between atoms: _17  and  _22
REMARK    9  A    between atoms: _18  and  _21
REMARK   10  A    between atoms: _26  and  _36
REMARK   11  A    between atoms: _28  and  _29
REMARK   12  A    between atoms: _30  and  _32
REMARK   13  A    between atoms: _32  and  _34
REMARK   14  A    between atoms: _34  and  _36
REMARK                            x       y       z     vdW  Elec       q    Type
REMARK                         _______ _______ _______ _____ _____    ______ ____
ROOT
ATOM      1  C   UNL     1      28.488  15.172  -0.873  0.00  0.00    +0.400 C 
ATOM      2  N   UNL     1      29.159  14.001  -1.139  0.00  0.00    -0.278 N 
ATOM      3  H   UNL     1      29.758  13.856  -0.265  0.00  0.00    +0.152 HD
ATOM      4  O   UNL     1      28.565  15.640   0.260  0.00  0.00    -0.226 OA
ENDROOT
BRANCH   2   5
ATOM      5  C   UNL     1      29.404  12.887  -2.050  0.00  0.00    +0.152 C 
BRANCH   5   6
ATOM      6  C   UNL     1      30.629  12.005  -1.732  0.00  0.00    +0.193 C 
ATOM      7  O   UNL     1      31.049  11.413  -2.981  0.00  0.00    -0.219 OA
BRANCH   6   8
ATOM      8  C   UNL     1      31.895  12.708  -1.194  0.00  0.00    +0.212 C 
ATOM      9  O   UNL     1      31.924  14.082  -1.615  0.00  0.00    -0.218 OA
BRANCH   8  10
ATOM     10  C   UNL     1      32.016  12.660   0.377  0.00  0.00    +0.171 C 
ATOM     11  O   UNL     1      30.914  13.282   1.030  0.00  0.00    -0.343 OA
ATOM     12  C   UNL     1      30.880  13.596   2.391  0.00  0.00    +0.220 C 
ATOM     13  C   UNL     1      32.133  14.373   2.830  0.00  0.00    +0.076 C 
ATOM     14  C   UNL     1      33.361  13.561   2.383  0.00  0.00    +0.177 C 
ATOM     15  O   UNL     1      34.550  14.217   2.800  0.00  0.00    -0.221 OA
ATOM     16  C   UNL     1      33.337  13.358   0.836  0.00  0.00    +0.155 C 
BRANCH  16  17
ATOM     17  N   UNL     1      34.505  12.593   0.407  0.00  0.00    -0.202 NA
ATOM     18  C   UNL     1      35.513  12.945  -0.431  0.00  0.00    +0.242 C 
ATOM     19  C   UNL     1      36.745  12.079  -0.471  0.00  0.00    +0.096 C 
ATOM     20  O   UNL     1      35.400  13.951  -1.129  0.00  0.00    -0.273 OA
ENDBRANCH  16  17
BRANCH  12  21
ATOM     21  C   UNL     1      30.611  12.308   3.345  0.00  0.00    +0.391 C 
ATOM     22  O   UNL     1      31.051  12.681   4.563  0.00  0.00    -0.243 OA
ATOM     23  O   UNL     1      29.799  11.499   2.654  0.00  0.00    -0.243 OA
ENDBRANCH  12  21
ENDBRANCH   8  10
ENDBRANCH   6   8
ENDBRANCH   5   6
ENDBRANCH   2   5
BRANCH   1  24
ATOM     24  O   UNL     1      27.853  15.692  -1.872  0.00  0.00    -0.450 OA
BRANCH  24  25
ATOM     25  C   UNL     1      27.381  16.948  -2.301  0.00  0.00    +0.240 C 
BRANCH  25  26
ATOM     26  C   UNL     1      26.657  17.010  -3.659  0.00  0.00    +0.100 C 
BRANCH  26  28
ATOM     27  N   UNL     1      25.252  15.317  -4.776  0.00  0.00    -0.134 NA
ATOM     28  C   UNL     1      25.511  16.082  -3.682  0.00  0.00    +0.086 A 
ATOM     29  C   UNL     1      24.546  15.849  -2.729  0.00  0.00    +0.139 A 
ATOM     30  N   UNL     1      23.631  15.019  -3.346  0.00  0.00    -0.220 N 
ATOM     31  N   UNL     1      24.122  14.656  -4.551  0.00  0.00    -0.061 NA
BRANCH  30  32
ATOM     32  C   UNL     1      22.358  14.607  -2.849  0.00  0.00    +0.070 A 
ATOM     33  C   UNL     1      22.190  13.561  -1.902  0.00  0.00    -0.019 A 
ATOM     34  C   UNL     1      20.869  13.235  -1.518  0.00  0.00    +0.006 A 
ATOM     35  C   UNL     1      19.758  13.894  -2.048  0.00  0.00    +0.000 A 
ATOM     36  C   UNL     1      19.935  14.917  -2.965  0.00  0.00    +0.002 A 
ATOM     37  C   UNL     1      21.222  15.271  -3.365  0.00  0.00    +0.028 A 
BRANCH  33  38
ATOM     38  C   UNL     1      23.341  12.765  -1.284  0.00  0.00    +0.015 C 
ATOM     39  C   UNL     1      24.030  11.773  -2.234  0.00  0.00    +0.012 C 
ATOM     40  C   UNL     1      22.856  12.031  -0.030  0.00  0.00    +0.012 C 
ENDBRANCH  33  38
ENDBRANCH  30  32
ENDBRANCH  26  28
ENDBRANCH  25  26
ENDBRANCH  24  25
ENDBRANCH   1  24
TORSDOF 12
