REMARK VINA RESULT:    -6.027      3.311      8.651
REMARK INTER + INTRA:         -12.296
REMARK INTER:                  -9.654
REMARK INTRA:                  -2.642
REMARK UNBOUND:                -1.336
REMARK  Name = lig_assembled_19.pdb
REMARK  15 active torsions:
REMARK  status: ('A' for Active; 'I' for Inactive)
REMARK    1  A    between atoms: _2  and  _8
REMARK    2  A    between atoms: _4  and  _10
REMARK    3  A    between atoms: _5  and  _6
REMARK    4  A    between atoms: _5  and  _13
REMARK    5  A    between atoms: _8  and  _9
REMARK    6  A    between atoms: _9  and  _12
REMARK    7  A    between atoms: _10  and  _12
REMARK    8  A    between atoms: _13  and  _15
REMARK    9  A    between atoms: _14  and  _19
REMARK   10  A    between atoms: _15  and  _18
REMARK   11  A    between atoms: _23  and  _33
REMARK   12  A    between atoms: _25  and  _26
REMARK   13  A    between atoms: _27  and  _29
REMARK   14  A    between atoms: _29  and  _31
REMARK   15  A    between atoms: _31  and  _33
REMARK                            x       y       z     vdW  Elec       q    Type
REMARK                         _______ _______ _______ _____ _____    ______ ____
ROOT
ATOM      1  C   UNL     1      27.154  13.289  -1.199  0.00  0.00    +0.152 C 
ENDROOT
BRANCH   1   3
ATOM      2  C   UNL     1      28.613  15.560  -0.801  0.00  0.00    +0.400 C 
ATOM      3  N   UNL     1      27.584  14.655  -0.913  0.00  0.00    -0.278 N 
ATOM      4  H   UNL     1      26.715  15.240  -0.699  0.00  0.00    +0.152 HD
ATOM      5  O   UNL     1      28.328  16.750  -0.686  0.00  0.00    -0.226 OA
BRANCH   2   6
ATOM      6  O   UNL     1      29.803  15.057  -0.798  0.00  0.00    -0.450 OA
BRANCH   6   7
ATOM      7  C   UNL     1      30.816  14.716   0.120  0.00  0.00    +0.240 C 
BRANCH   7   8
ATOM      8  C   UNL     1      30.441  14.684   1.614  0.00  0.00    +0.100 C 
BRANCH   8  10
ATOM      9  N   UNL     1      28.168  13.984   2.309  0.00  0.00    -0.134 NA
ATOM     10  C   UNL     1      29.421  13.650   1.864  0.00  0.00    +0.086 A 
ATOM     11  C   UNL     1      29.497  12.282   1.724  0.00  0.00    +0.133 A 
ATOM     12  N   UNL     1      28.266  11.845   2.108  0.00  0.00    -0.248 N 
ATOM     13  N   UNL     1      27.466  12.867   2.455  0.00  0.00    -0.065 NA
BRANCH  12  14
ATOM     14  C   UNL     1      27.782  10.483   2.157  0.00  0.00    +0.186 C 
BRANCH  14  15
ATOM     15  C   UNL     1      27.007  10.203   3.441  0.00  0.00    +0.255 C 
BRANCH  15  16
ATOM     16  O   UNL     1      25.791   9.469   3.195  0.00  0.00    -0.463 OA
BRANCH  16  17
ATOM     17  C   UNL     1      24.801  10.151   2.563  0.00  0.00    +0.304 C 
ATOM     18  O   UNL     1      24.429  11.278   2.860  0.00  0.00    -0.251 OA
ATOM     19  C   UNL     1      24.243   9.353   1.425  0.00  0.00    +0.136 C 
ENDBRANCH  16  17
ENDBRANCH  15  16
ENDBRANCH  14  15
ENDBRANCH  12  14
ENDBRANCH   8  10
ENDBRANCH   7   8
ENDBRANCH   6   7
ENDBRANCH   2   6
ENDBRANCH   1   3
BRANCH   1  20
ATOM     20  C   UNL     1      27.276  12.832  -2.668  0.00  0.00    +0.193 C 
ATOM     21  O   UNL     1      27.774  11.476  -2.640  0.00  0.00    -0.219 OA
BRANCH  20  22
ATOM     22  C   UNL     1      25.978  12.749  -3.501  0.00  0.00    +0.212 C 
ATOM     23  O   UNL     1      25.761  11.405  -3.960  0.00  0.00    -0.218 OA
BRANCH  22  24
ATOM     24  C   UNL     1      24.699  13.225  -2.713  0.00  0.00    +0.171 C 
ATOM     25  O   UNL     1      23.648  12.265  -2.743  0.00  0.00    -0.343 OA
ATOM     26  C   UNL     1      22.335  12.520  -2.341  0.00  0.00    +0.220 C 
ATOM     27  C   UNL     1      21.773  13.791  -3.002  0.00  0.00    +0.076 C 
ATOM     28  C   UNL     1      22.767  14.932  -2.730  0.00  0.00    +0.177 C 
ATOM     29  O   UNL     1      22.275  16.142  -3.287  0.00  0.00    -0.221 OA
ATOM     30  C   UNL     1      24.171  14.571  -3.308  0.00  0.00    +0.155 C 
BRANCH  30  31
ATOM     31  N   UNL     1      25.116  15.656  -3.058  0.00  0.00    -0.202 NA
ATOM     32  C   UNL     1      25.927  16.318  -3.922  0.00  0.00    +0.242 C 
ATOM     33  C   UNL     1      26.584  17.591  -3.456  0.00  0.00    +0.096 C 
ATOM     34  O   UNL     1      26.103  15.870  -5.054  0.00  0.00    -0.273 OA
ENDBRANCH  30  31
BRANCH  26  35
ATOM     35  C   UNL     1      22.147  12.554  -0.727  0.00  0.00    +0.391 C 
ATOM     36  O   UNL     1      23.387  12.387  -0.229  0.00  0.00    -0.243 OA
ATOM     37  O   UNL     1      20.913  13.026  -0.509  0.00  0.00    -0.243 OA
ENDBRANCH  26  35
ENDBRANCH  22  24
ENDBRANCH  20  22
ENDBRANCH   1  20
TORSDOF 14
