REMARK VINA RESULT:    -7.079      2.966      9.546
REMARK INTER + INTRA:         -14.173
REMARK INTER:                 -11.889
REMARK INTRA:                  -2.284
REMARK UNBOUND:                -2.128
REMARK  Name = lig_assembled_0.pdb
REMARK  12 active torsions:
REMARK  status: ('A' for Active; 'I' for Inactive)
REMARK    1  A    between atoms: _2  and  _9
REMARK    2  A    between atoms: _6  and  _7
REMARK    3  A    between atoms: _6  and  _16
REMARK    4  A    between atoms: _10  and  _11
REMARK    5  A    between atoms: _16  and  _18
REMARK    6  A    between atoms: _17  and  _22
REMARK    7  A    between atoms: _18  and  _21
REMARK    8  A    between atoms: _26  and  _36
REMARK    9  A    between atoms: _28  and  _29
REMARK   10  A    between atoms: _30  and  _32
REMARK   11  A    between atoms: _32  and  _34
REMARK   12  A    between atoms: _34  and  _36
REMARK                            x       y       z     vdW  Elec       q    Type
REMARK                         _______ _______ _______ _____ _____    ______ ____
ROOT
ATOM      1  C   UNL     1      27.489  17.589  -1.705  0.00  0.00    +0.400 C 
ATOM      2  N   UNL     1      26.425  17.162  -2.464  0.00  0.00    -0.278 N 
ATOM      3  H   UNL     1      25.715  17.954  -2.362  0.00  0.00    +0.152 HD
ATOM      4  O   UNL     1      27.473  18.743  -1.283  0.00  0.00    -0.226 OA
ENDROOT
BRANCH   2   5
ATOM      5  C   UNL     1      25.850  16.142  -3.337  0.00  0.00    +0.152 C 
BRANCH   5   6
ATOM      6  C   UNL     1      24.862  15.159  -2.675  0.00  0.00    +0.193 C 
ATOM      7  O   UNL     1      23.700  15.099  -3.531  0.00  0.00    -0.219 OA
BRANCH   6   8
ATOM      8  C   UNL     1      25.309  13.688  -2.528  0.00  0.00    +0.212 C 
ATOM      9  O   UNL     1      26.618  13.502  -3.090  0.00  0.00    -0.218 OA
BRANCH   8  10
ATOM     10  C   UNL     1      25.327  13.188  -1.033  0.00  0.00    +0.171 C 
ATOM     11  O   UNL     1      26.497  12.438  -0.721  0.00  0.00    -0.343 OA
ATOM     12  C   UNL     1      26.659  11.679   0.441  0.00  0.00    +0.220 C 
ATOM     13  C   UNL     1      25.469  10.733   0.675  0.00  0.00    +0.076 C 
ATOM     14  C   UNL     1      24.188  11.582   0.631  0.00  0.00    +0.177 C 
ATOM     15  O   UNL     1      23.056  10.760   0.882  0.00  0.00    -0.221 OA
ATOM     16  C   UNL     1      24.069  12.304  -0.747  0.00  0.00    +0.155 C 
BRANCH  16  17
ATOM     17  N   UNL     1      22.849  13.106  -0.796  0.00  0.00    -0.202 NA
ATOM     18  C   UNL     1      21.749  12.967  -1.579  0.00  0.00    +0.242 C 
ATOM     19  C   UNL     1      20.513  13.750  -1.222  0.00  0.00    +0.096 C 
ATOM     20  O   UNL     1      21.786  12.214  -2.550  0.00  0.00    -0.273 OA
ENDBRANCH  16  17
BRANCH  12  21
ATOM     21  C   UNL     1      26.980  12.573   1.759  0.00  0.00    +0.391 C 
ATOM     22  O   UNL     1      26.351  11.941   2.769  0.00  0.00    -0.243 OA
ATOM     23  O   UNL     1      27.970  13.404   1.410  0.00  0.00    -0.243 OA
ENDBRANCH  12  21
ENDBRANCH   8  10
ENDBRANCH   6   8
ENDBRANCH   5   6
ENDBRANCH   2   5
BRANCH   1  24
ATOM     24  O   UNL     1      28.407  16.707  -1.481  0.00  0.00    -0.450 OA
BRANCH  24  25
ATOM     25  C   UNL     1      29.012  16.048  -0.392  0.00  0.00    +0.240 C 
BRANCH  25  26
ATOM     26  C   UNL     1      30.445  16.468  -0.015  0.00  0.00    +0.100 C 
BRANCH  26  28
ATOM     27  N   UNL     1      31.644  14.320   0.163  0.00  0.00    -0.134 NA
ATOM     28  C   UNL     1      31.099  15.409   0.775  0.00  0.00    +0.086 A 
ATOM     29  C   UNL     1      31.302  15.311   2.134  0.00  0.00    +0.139 A 
ATOM     30  N   UNL     1      31.898  14.086   2.321  0.00  0.00    -0.219 N 
ATOM     31  N   UNL     1      32.171  13.546   1.099  0.00  0.00    -0.061 NA
BRANCH  30  32
ATOM     32  C   UNL     1      32.334  13.434   3.509  0.00  0.00    +0.079 A 
ATOM     33  C   UNL     1      31.554  12.535   4.265  0.00  0.00    +0.062 A 
ATOM     34  C   UNL     1      32.100  11.992   5.449  0.00  0.00    +0.015 A 
ATOM     35  C   UNL     1      33.380  12.337   5.885  0.00  0.00    +0.001 A 
ATOM     36  C   UNL     1      34.152  13.209   5.133  0.00  0.00    +0.002 A 
ATOM     37  C   UNL     1      33.641  13.744   3.951  0.00  0.00    +0.028 A 
BRANCH  33  38
ATOM     38  C   UNL     1      30.255  11.967   3.808  0.00  0.00    +0.244 C 
ATOM     39  O   UNL     1      30.190  11.049   3.006  0.00  0.00    -0.270 OA
ATOM     40  N   UNL     1      29.110  12.486   4.351  0.00  0.00    -0.325 N 
ATOM     41  H   UNL     1      28.235  12.059   4.073  0.00  0.00    +0.145 HD
ATOM     42  H   UNL     1      29.080  13.234   5.029  0.00  0.00    +0.145 HD
ENDBRANCH  33  38
ENDBRANCH  30  32
ENDBRANCH  26  28
ENDBRANCH  25  26
ENDBRANCH  24  25
ENDBRANCH   1  24
TORSDOF 12
