REMARK VINA RESULT:    -6.115      2.946      6.079
REMARK INTER + INTRA:         -14.236
REMARK INTER:                 -11.733
REMARK INTRA:                  -2.503
REMARK UNBOUND:                -3.117
REMARK  Name = lig_assembled_9.pdb
REMARK  15 active torsions:
REMARK  status: ('A' for Active; 'I' for Inactive)
REMARK    1  A    between atoms: _2  and  _8
REMARK    2  A    between atoms: _5  and  _6
REMARK    3  A    between atoms: _5  and  _18
REMARK    4  A    between atoms: _10  and  _11
REMARK    5  A    between atoms: _11  and  _16
REMARK    6  A    between atoms: _12  and  _13
REMARK    7  A    between atoms: _12  and  _16
REMARK    8  A    between atoms: _18  and  _20
REMARK    9  A    between atoms: _19  and  _24
REMARK   10  A    between atoms: _20  and  _23
REMARK   11  A    between atoms: _28  and  _38
REMARK   12  A    between atoms: _30  and  _31
REMARK   13  A    between atoms: _32  and  _34
REMARK   14  A    between atoms: _34  and  _36
REMARK   15  A    between atoms: _36  and  _38
REMARK                            x       y       z     vdW  Elec       q    Type
REMARK                         _______ _______ _______ _____ _____    ______ ____
ROOT
ATOM      1  C   UNL     1      31.740  11.689   1.387  0.00  0.00    +0.400 C 
ATOM      2  N   UNL     1      32.717  11.786   2.349  0.00  0.00    -0.278 N 
ATOM      3  H   UNL     1      32.973  10.767   2.545  0.00  0.00    +0.152 HD
ATOM      4  O   UNL     1      31.534  10.590   0.879  0.00  0.00    -0.226 OA
ENDROOT
BRANCH   2   5
ATOM      5  C   UNL     1      33.553  12.636   3.193  0.00  0.00    +0.152 C 
BRANCH   5   6
ATOM      6  C   UNL     1      34.554  13.550   2.456  0.00  0.00    +0.193 C 
ATOM      7  O   UNL     1      35.373  14.172   3.471  0.00  0.00    -0.219 OA
BRANCH   6   8
ATOM      8  C   UNL     1      35.566  12.880   1.501  0.00  0.00    +0.212 C 
ATOM      9  O   UNL     1      35.528  11.451   1.653  0.00  0.00    -0.218 OA
BRANCH   8  10
ATOM     10  C   UNL     1      35.321  13.232  -0.016  0.00  0.00    +0.171 C 
ATOM     11  O   UNL     1      33.964  13.056  -0.407  0.00  0.00    -0.343 OA
ATOM     12  C   UNL     1      33.518  13.060  -1.731  0.00  0.00    +0.220 C 
ATOM     13  C   UNL     1      34.345  12.109  -2.614  0.00  0.00    +0.076 C 
ATOM     14  C   UNL     1      35.827  12.477  -2.428  0.00  0.00    +0.177 C 
ATOM     15  O   UNL     1      36.635  11.652  -3.255  0.00  0.00    -0.221 OA
ATOM     16  C   UNL     1      36.230  12.343  -0.927  0.00  0.00    +0.155 C 
BRANCH  16  17
ATOM     17  N   UNL     1      37.639  12.685  -0.747  0.00  0.00    -0.202 NA
ATOM     18  C   UNL     1      38.678  11.905  -0.356  0.00  0.00    +0.242 C 
ATOM     19  C   UNL     1      40.077  12.434  -0.538  0.00  0.00    +0.096 C 
ATOM     20  O   UNL     1      38.457  10.798   0.131  0.00  0.00    -0.273 OA
ENDBRANCH  16  17
BRANCH  12  21
ATOM     21  C   UNL     1      33.425  14.547  -2.378  0.00  0.00    +0.391 C 
ATOM     22  O   UNL     1      33.373  14.344  -3.709  0.00  0.00    -0.243 OA
ATOM     23  O   UNL     1      33.135  15.373  -1.366  0.00  0.00    -0.243 OA
ENDBRANCH  12  21
ENDBRANCH   8  10
ENDBRANCH   6   8
ENDBRANCH   5   6
ENDBRANCH   2   5
BRANCH   1  24
ATOM     24  O   UNL     1      31.099  12.782   1.128  0.00  0.00    -0.450 OA
BRANCH  24  25
ATOM     25  C   UNL     1      30.541  13.880   1.811  0.00  0.00    +0.240 C 
BRANCH  25  26
ATOM     26  C   UNL     1      31.004  15.288   1.389  0.00  0.00    +0.100 C 
BRANCH  26  28
ATOM     27  N   UNL     1      30.291  17.082  -0.160  0.00  0.00    -0.134 NA
ATOM     28  C   UNL     1      30.083  15.848   0.383  0.00  0.00    +0.086 A 
ATOM     29  C   UNL     1      28.948  15.300  -0.169  0.00  0.00    +0.139 A 
ATOM     30  N   UNL     1      28.513  16.231  -1.084  0.00  0.00    -0.220 N 
ATOM     31  N   UNL     1      29.329  17.311  -1.045  0.00  0.00    -0.061 NA
BRANCH  30  32
ATOM     32  C   UNL     1      27.422  16.145  -1.986  0.00  0.00    +0.068 A 
ATOM     33  C   UNL     1      26.661  14.971  -2.073  0.00  0.00    +0.042 A 
ATOM     34  C   UNL     1      25.602  14.879  -2.989  0.00  0.00    +0.061 A 
ATOM     35  C   UNL     1      25.304  15.969  -3.816  0.00  0.00    +0.015 A 
ATOM     36  C   UNL     1      26.051  17.144  -3.723  0.00  0.00    +0.003 A 
ATOM     37  C   UNL     1      27.106  17.235  -2.811  0.00  0.00    +0.028 A 
BRANCH  34  38
ATOM     38  C   UNL     1      24.734  13.675  -3.070  0.00  0.00    +0.339 C 
ATOM     39  O   UNL     1      25.137  12.568  -3.388  0.00  0.00    -0.245 OA
BRANCH  38  40
ATOM     40  O   UNL     1      23.444  14.024  -2.838  0.00  0.00    -0.461 OA
BRANCH  40  41
ATOM     41  C   UNL     1      22.992  13.853  -1.488  0.00  0.00    +0.229 C 
ATOM     42  C   UNL     1      21.479  13.975  -1.482  0.00  0.00    +0.048 C 
ENDBRANCH  40  41
ENDBRANCH  38  40
ENDBRANCH  34  38
ENDBRANCH  30  32
ENDBRANCH  26  28
ENDBRANCH  25  26
ENDBRANCH  24  25
ENDBRANCH   1  24
TORSDOF 14
