REMARK VINA RESULT:    -6.411      1.544      3.618
REMARK INTER + INTRA:         -14.244
REMARK INTER:                 -12.522
REMARK INTRA:                  -1.722
REMARK UNBOUND:                -1.837
REMARK  Name = lig_assembled_45.pdb
REMARK  19 active torsions:
REMARK  status: ('A' for Active; 'I' for Inactive)
REMARK    1  A    between atoms: _2  and  _9
REMARK    2  A    between atoms: _3  and  _11
REMARK    3  A    between atoms: _3  and  _12
REMARK    4  A    between atoms: _3  and  _13
REMARK    5  A    between atoms: _3  and  _15
REMARK    6  A    between atoms: _5  and  _15
REMARK    7  A    between atoms: _6  and  _7
REMARK    8  A    between atoms: _6  and  _16
REMARK    9  A    between atoms: _9  and  _10
REMARK   10  A    between atoms: _10  and  _11
REMARK   11  A    between atoms: _13  and  _14
REMARK   12  A    between atoms: _16  and  _18
REMARK   13  A    between atoms: _17  and  _22
REMARK   14  A    between atoms: _18  and  _21
REMARK   15  A    between atoms: _26  and  _36
REMARK   16  A    between atoms: _28  and  _29
REMARK   17  A    between atoms: _30  and  _32
REMARK   18  A    between atoms: _32  and  _34
REMARK   19  A    between atoms: _34  and  _36
REMARK                            x       y       z     vdW  Elec       q    Type
REMARK                         _______ _______ _______ _____ _____    ______ ____
ROOT
ATOM      1  C   UNL     1      28.764  16.980  -0.459  0.00  0.00    +0.400 C 
ATOM      2  N   UNL     1      28.785  15.821   0.282  0.00  0.00    -0.278 N 
ATOM      3  H   UNL     1      29.495  16.033   1.052  0.00  0.00    +0.152 HD
ATOM      4  O   UNL     1      29.351  17.962  -0.014  0.00  0.00    -0.226 OA
ENDROOT
BRANCH   2   5
ATOM      5  C   UNL     1      28.274  14.469   0.491  0.00  0.00    +0.152 C 
BRANCH   5   6
ATOM      6  C   UNL     1      28.575  13.834   1.864  0.00  0.00    +0.193 C 
ATOM      7  O   UNL     1      27.394  13.096   2.248  0.00  0.00    -0.219 OA
BRANCH   6   8
ATOM      8  C   UNL     1      29.718  12.797   1.937  0.00  0.00    +0.212 C 
ATOM      9  O   UNL     1      29.381  11.624   1.179  0.00  0.00    -0.218 OA
BRANCH   8  10
ATOM     10  C   UNL     1      31.099  13.353   1.419  0.00  0.00    +0.171 C 
ATOM     11  O   UNL     1      31.227  13.267   0.003  0.00  0.00    -0.343 OA
ATOM     12  C   UNL     1      32.423  13.457  -0.693  0.00  0.00    +0.220 C 
ATOM     13  C   UNL     1      33.566  12.609  -0.107  0.00  0.00    +0.076 C 
ATOM     14  C   UNL     1      33.639  12.909   1.400  0.00  0.00    +0.177 C 
ATOM     15  O   UNL     1      34.707  12.179   1.985  0.00  0.00    -0.221 OA
ATOM     16  C   UNL     1      32.278  12.568   2.082  0.00  0.00    +0.155 C 
BRANCH  16  17
ATOM     17  N   UNL     1      32.345  12.845   3.515  0.00  0.00    -0.202 NA
ATOM     18  C   UNL     1      32.187  12.006   4.570  0.00  0.00    +0.242 C 
ATOM     19  C   UNL     1      32.599  12.489   5.936  0.00  0.00    +0.096 C 
ATOM     20  O   UNL     1      31.718  10.884   4.388  0.00  0.00    -0.273 OA
ENDBRANCH  16  17
BRANCH  12  21
ATOM     21  C   UNL     1      32.850  15.018  -0.832  0.00  0.00    +0.391 C 
ATOM     22  O   UNL     1      34.051  14.997  -1.442  0.00  0.00    -0.243 OA
ATOM     23  O   UNL     1      31.744  15.728  -0.575  0.00  0.00    -0.243 OA
ENDBRANCH  12  21
ENDBRANCH   8  10
ENDBRANCH   6   8
ENDBRANCH   5   6
ENDBRANCH   2   5
BRANCH   1  24
ATOM     24  O   UNL     1      28.141  16.910  -1.589  0.00  0.00    -0.450 OA
BRANCH  24  25
ATOM     25  C   UNL     1      27.102  17.566  -2.278  0.00  0.00    +0.240 C 
BRANCH  25  26
ATOM     26  C   UNL     1      26.990  17.322  -3.795  0.00  0.00    +0.100 C 
BRANCH  26  28
ATOM     27  N   UNL     1      25.959  15.613  -5.267  0.00  0.00    -0.134 NA
ATOM     28  C   UNL     1      25.984  16.280  -4.072  0.00  0.00    +0.086 A 
ATOM     29  C   UNL     1      24.966  15.810  -3.273  0.00  0.00    +0.133 A 
ATOM     30  N   UNL     1      24.370  14.863  -4.046  0.00  0.00    -0.251 N 
ATOM     31  N   UNL     1      24.955  14.747  -5.241  0.00  0.00    -0.065 NA
BRANCH  30  32
ATOM     32  C   UNL     1      23.218  14.053  -3.709  0.00  0.00    +0.150 C 
BRANCH  32  33
ATOM     33  C   UNL     1      23.432  13.209  -2.458  0.00  0.00    +0.074 C 
BRANCH  33  34
ATOM     34  C   UNL     1      22.356  13.298  -1.369  0.00  0.00    +0.134 C 
BRANCH  34  35
ATOM     35  N   UNL     1      22.108  12.037  -0.477  0.00  0.00    +0.241 N 
ATOM     36  C   UNL     1      23.457  11.555   0.083  0.00  0.00    +0.192 C 
BRANCH  35  37
ATOM     37  C   UNL     1      21.546  10.934  -1.435  0.00  0.00    +0.129 C 
ATOM     38  C   UNL     1      22.453   9.718  -1.579  0.00  0.00    +0.060 C 
ENDBRANCH  35  37
BRANCH  35  39
ATOM     39  C   UNL     1      21.131  12.255   0.693  0.00  0.00    +0.129 C 
ATOM     40  C   UNL     1      21.606  11.680   2.018  0.00  0.00    +0.060 C 
ENDBRANCH  35  39
ENDBRANCH  34  35
ENDBRANCH  33  34
ENDBRANCH  32  33
ENDBRANCH  30  32
ENDBRANCH  26  28
ENDBRANCH  25  26
ENDBRANCH  24  25
ENDBRANCH   1  24
TORSDOF 16
