REMARK VINA RESULT:    -6.981      4.158      9.614
REMARK INTER + INTRA:         -13.080
REMARK INTER:                 -10.912
REMARK INTRA:                  -2.168
REMARK UNBOUND:                -1.202
REMARK  Name = lig_assembled_38.pdb
REMARK  12 active torsions:
REMARK  status: ('A' for Active; 'I' for Inactive)
REMARK    1  A    between atoms: _2  and  _8
REMARK    2  A    between atoms: _5  and  _6
REMARK    3  A    between atoms: _5  and  _14
REMARK    4  A    between atoms: _8  and  _9
REMARK    5  A    between atoms: _14  and  _16
REMARK    6  A    between atoms: _15  and  _20
REMARK    7  A    between atoms: _16  and  _19
REMARK    8  A    between atoms: _24  and  _34
REMARK    9  A    between atoms: _26  and  _27
REMARK   10  A    between atoms: _28  and  _30
REMARK   11  A    between atoms: _30  and  _32
REMARK   12  A    between atoms: _32  and  _34
REMARK                            x       y       z     vdW  Elec       q    Type
REMARK                         _______ _______ _______ _____ _____    ______ ____
ROOT
ATOM      1  C   UNL     1      25.652  15.672  -3.064  0.00  0.00    +0.400 C 
ATOM      2  N   UNL     1      25.883  14.333  -2.857  0.00  0.00    -0.278 N 
ATOM      3  H   UNL     1      24.932  13.964  -2.538  0.00  0.00    +0.152 HD
ATOM      4  O   UNL     1      24.491  16.072  -3.029  0.00  0.00    -0.226 OA
ENDROOT
BRANCH   2   5
ATOM      5  C   UNL     1      26.818  13.211  -2.892  0.00  0.00    +0.152 C 
BRANCH   5   6
ATOM      6  C   UNL     1      26.247  11.837  -2.484  0.00  0.00    +0.193 C 
ATOM      7  O   UNL     1      27.375  10.947  -2.335  0.00  0.00    -0.219 OA
BRANCH   6   8
ATOM      8  C   UNL     1      25.502  11.745  -1.134  0.00  0.00    +0.212 C 
ATOM      9  O   UNL     1      25.848  12.857  -0.293  0.00  0.00    -0.218 OA
BRANCH   8  10
ATOM     10  C   UNL     1      23.934  11.698  -1.288  0.00  0.00    +0.171 C 
ATOM     11  O   UNL     1      23.433  12.744  -2.113  0.00  0.00    -0.343 OA
ATOM     12  C   UNL     1      22.083  13.084  -2.222  0.00  0.00    +0.220 C 
ATOM     13  C   UNL     1      21.430  13.277  -0.843  0.00  0.00    +0.076 C 
ATOM     14  C   UNL     1      21.714  12.012  -0.015  0.00  0.00    +0.177 C 
ATOM     15  O   UNL     1      21.097  12.122   1.259  0.00  0.00    -0.221 OA
ATOM     16  C   UNL     1      23.253  11.792   0.117  0.00  0.00    +0.155 C 
BRANCH  16  17
ATOM     17  N   UNL     1      23.528  10.595   0.908  0.00  0.00    -0.202 NA
ATOM     18  C   UNL     1      24.120  10.475   2.123  0.00  0.00    +0.242 C 
ATOM     19  C   UNL     1      24.013   9.156   2.845  0.00  0.00    +0.096 C 
ATOM     20  O   UNL     1      24.722  11.434   2.603  0.00  0.00    -0.273 OA
ENDBRANCH  16  17
BRANCH  12  21
ATOM     21  C   UNL     1      21.230  12.057  -3.148  0.00  0.00    +0.391 C 
ATOM     22  O   UNL     1      19.940  12.329  -2.871  0.00  0.00    -0.243 OA
ATOM     23  O   UNL     1      22.095  11.555  -4.038  0.00  0.00    -0.243 OA
ENDBRANCH  12  21
ENDBRANCH   8  10
ENDBRANCH   6   8
ENDBRANCH   5   6
ENDBRANCH   2   5
BRANCH   1  24
ATOM     24  O   UNL     1      26.705  16.400  -3.248  0.00  0.00    -0.450 OA
BRANCH  24  25
ATOM     25  C   UNL     1      27.278  17.591  -2.762  0.00  0.00    +0.240 C 
BRANCH  25  26
ATOM     26  C   UNL     1      27.490  17.709  -1.241  0.00  0.00    +0.100 C 
BRANCH  26  28
ATOM     27  N   UNL     1      29.830  17.251  -0.571  0.00  0.00    -0.134 NA
ATOM     28  C   UNL     1      28.560  16.793  -0.797  0.00  0.00    +0.086 A 
ATOM     29  C   UNL     1      28.508  15.447  -0.511  0.00  0.00    +0.134 A 
ATOM     30  N   UNL     1      29.765  15.157  -0.062  0.00  0.00    -0.247 N 
ATOM     31  N   UNL     1      30.559  16.242  -0.113  0.00  0.00    -0.065 NA
BRANCH  30  32
ATOM     32  C   UNL     1      30.201  13.962   0.637  0.00  0.00    +0.180 C 
BRANCH  32  33
ATOM     33  C   UNL     1      31.645  14.013   1.072  0.00  0.00    -0.025 A 
ATOM     34  C   UNL     1      31.985  14.181   2.423  0.00  0.00    +0.005 A 
ATOM     35  C   UNL     1      33.321  14.137   2.831  0.00  0.00    +0.001 A 
ATOM     36  C   UNL     1      34.333  13.925   1.896  0.00  0.00    +0.015 A 
ATOM     37  C   UNL     1      34.005  13.769   0.552  0.00  0.00    +0.018 A 
ATOM     38 BR   UNL     1      35.372  13.472  -0.720  0.00  0.00    -0.050 Br
ATOM     39  C   UNL     1      32.673  13.810   0.136  0.00  0.00    +0.020 A 
ENDBRANCH  32  33
ENDBRANCH  30  32
ENDBRANCH  26  28
ENDBRANCH  25  26
ENDBRANCH  24  25
ENDBRANCH   1  24
TORSDOF 12
