REMARK VINA RESULT:    -6.304      1.879      3.710
REMARK INTER + INTRA:         -13.289
REMARK INTER:                 -11.637
REMARK INTRA:                  -1.651
REMARK UNBOUND:                -2.194
REMARK  Name = lig_assembled_14.pdb
REMARK  13 active torsions:
REMARK  status: ('A' for Active; 'I' for Inactive)
REMARK    1  A    between atoms: _2  and  _9
REMARK    2  A    between atoms: _3  and  _10
REMARK    3  A    between atoms: _6  and  _7
REMARK    4  A    between atoms: _6  and  _14
REMARK    5  A    between atoms: _9  and  _10
REMARK    6  A    between atoms: _14  and  _16
REMARK    7  A    between atoms: _15  and  _20
REMARK    8  A    between atoms: _16  and  _19
REMARK    9  A    between atoms: _24  and  _34
REMARK   10  A    between atoms: _26  and  _27
REMARK   11  A    between atoms: _28  and  _30
REMARK   12  A    between atoms: _30  and  _32
REMARK   13  A    between atoms: _32  and  _34
REMARK                            x       y       z     vdW  Elec       q    Type
REMARK                         _______ _______ _______ _____ _____    ______ ____
ROOT
ATOM      1  C   UNL     1      28.706  16.966  -0.484  0.00  0.00    +0.400 C 
ATOM      2  N   UNL     1      28.811  15.856   0.321  0.00  0.00    -0.278 N 
ATOM      3  H   UNL     1      29.450  16.184   1.112  0.00  0.00    +0.152 HD
ATOM      4  O   UNL     1      29.158  18.029  -0.066  0.00  0.00    -0.226 OA
ENDROOT
BRANCH   2   5
ATOM      5  C   UNL     1      28.439  14.467   0.580  0.00  0.00    +0.152 C 
BRANCH   5   6
ATOM      6  C   UNL     1      28.697  13.951   2.010  0.00  0.00    +0.193 C 
ATOM      7  O   UNL     1      27.495  13.265   2.427  0.00  0.00    -0.219 OA
BRANCH   6   8
ATOM      8  C   UNL     1      29.821  12.909   2.203  0.00  0.00    +0.212 C 
ATOM      9  O   UNL     1      29.452  11.656   1.607  0.00  0.00    -0.218 OA
BRANCH   8  10
ATOM     10  C   UNL     1      31.205  13.366   1.601  0.00  0.00    +0.171 C 
ATOM     11  O   UNL     1      31.264  13.212   0.186  0.00  0.00    -0.343 OA
ATOM     12  C   UNL     1      32.435  13.306  -0.568  0.00  0.00    +0.220 C 
ATOM     13  C   UNL     1      33.557  12.423   0.006  0.00  0.00    +0.076 C 
ATOM     14  C   UNL     1      33.714  12.784   1.493  0.00  0.00    +0.177 C 
ATOM     15  O   UNL     1      34.768  12.022   2.064  0.00  0.00    -0.221 OA
ATOM     16  C   UNL     1      32.369  12.547   2.248  0.00  0.00    +0.155 C 
BRANCH  16  17
ATOM     17  N   UNL     1      32.516  12.881   3.662  0.00  0.00    -0.202 NA
ATOM     18  C   UNL     1      32.456  12.078   4.755  0.00  0.00    +0.242 C 
ATOM     19  C   UNL     1      32.935  12.627   6.074  0.00  0.00    +0.096 C 
ATOM     20  O   UNL     1      32.019  10.934   4.645  0.00  0.00    -0.273 OA
ENDBRANCH  16  17
BRANCH  12  21
ATOM     21  C   UNL     1      32.937  14.835  -0.797  0.00  0.00    +0.391 C 
ATOM     22  O   UNL     1      34.202  14.722  -1.245  0.00  0.00    -0.243 OA
ATOM     23  O   UNL     1      31.837  15.596  -0.748  0.00  0.00    -0.243 OA
ENDBRANCH  12  21
ENDBRANCH   8  10
ENDBRANCH   6   8
ENDBRANCH   5   6
ENDBRANCH   2   5
BRANCH   1  24
ATOM     24  O   UNL     1      28.158  16.771  -1.638  0.00  0.00    -0.450 OA
BRANCH  24  25
ATOM     25  C   UNL     1      27.129  17.308  -2.436  0.00  0.00    +0.240 C 
BRANCH  25  26
ATOM     26  C   UNL     1      26.615  16.448  -3.607  0.00  0.00    +0.100 C 
BRANCH  26  28
ATOM     27  N   UNL     1      24.252  15.801  -3.261  0.00  0.00    -0.134 NA
ATOM     28  C   UNL     1      25.583  15.504  -3.138  0.00  0.00    +0.086 A 
ATOM     29  C   UNL     1      25.716  14.272  -2.537  0.00  0.00    +0.133 A 
ATOM     30  N   UNL     1      24.433  13.882  -2.306  0.00  0.00    -0.250 N 
ATOM     31  N   UNL     1      23.554  14.797  -2.751  0.00  0.00    -0.065 NA
BRANCH  30  32
ATOM     32  C   UNL     1      23.968  12.693  -1.628  0.00  0.00    +0.160 C 
BRANCH  32  33
ATOM     33  C   UNL     1      22.460  12.742  -1.355  0.00  0.00    +0.107 C 
BRANCH  33  34
ATOM     34  N   UNL     1      22.041  11.842  -0.267  0.00  0.00    -0.301 NA
ATOM     35  C   UNL     1      23.164  11.348   0.537  0.00  0.00    +0.084 C 
ATOM     36  C   UNL     1      22.473  10.824   1.779  0.00  0.00    +0.017 C 
ATOM     37  C   UNL     1      21.357  11.824   2.022  0.00  0.00    +0.017 C 
ATOM     38  C   UNL     1      21.137  12.514   0.678  0.00  0.00    +0.084 C 
ENDBRANCH  33  34
ENDBRANCH  32  33
ENDBRANCH  30  32
ENDBRANCH  26  28
ENDBRANCH  25  26
ENDBRANCH  24  25
ENDBRANCH   1  24
TORSDOF 13
