REMARK VINA RESULT:    -6.759      1.661      3.428
REMARK INTER + INTRA:         -13.378
REMARK INTER:                 -12.063
REMARK INTRA:                  -1.316
REMARK UNBOUND:                -1.681
REMARK  Name = lig_assembled_59.pdb
REMARK  13 active torsions:
REMARK  status: ('A' for Active; 'I' for Inactive)
REMARK    1  A    between atoms: _2  and  _9
REMARK    2  A    between atoms: _6  and  _7
REMARK    3  A    between atoms: _6  and  _15
REMARK    4  A    between atoms: _12  and  _13
REMARK    5  A    between atoms: _13  and  _14
REMARK    6  A    between atoms: _15  and  _17
REMARK    7  A    between atoms: _16  and  _21
REMARK    8  A    between atoms: _17  and  _20
REMARK    9  A    between atoms: _25  and  _35
REMARK   10  A    between atoms: _27  and  _28
REMARK   11  A    between atoms: _29  and  _31
REMARK   12  A    between atoms: _31  and  _33
REMARK   13  A    between atoms: _33  and  _35
REMARK                            x       y       z     vdW  Elec       q    Type
REMARK                         _______ _______ _______ _____ _____    ______ ____
ROOT
ATOM      1  C   UNL     1      28.291  17.013  -0.776  0.00  0.00    +0.400 C 
ATOM      2  N   UNL     1      28.462  15.884  -0.011  0.00  0.00    -0.278 N 
ATOM      3  H   UNL     1      28.967  16.248   0.858  0.00  0.00    +0.152 HD
ATOM      4  O   UNL     1      28.551  18.101  -0.269  0.00  0.00    -0.226 OA
ENDROOT
BRANCH   1   5
ATOM      5  O   UNL     1      27.895  16.812  -1.990  0.00  0.00    -0.450 OA
BRANCH   5   6
ATOM      6  C   UNL     1      27.015  17.377  -2.934  0.00  0.00    +0.240 C 
BRANCH   6   7
ATOM      7  C   UNL     1      26.530  16.473  -4.083  0.00  0.00    +0.100 C 
BRANCH   7   9
ATOM      8  N   UNL     1      24.509  15.086  -4.404  0.00  0.00    -0.134 NA
ATOM      9  C   UNL     1      25.520  15.517  -3.591  0.00  0.00    +0.087 A 
ATOM     10  C   UNL     1      25.389  14.925  -2.357  0.00  0.00    +0.141 A 
ATOM     11  N   UNL     1      24.270  14.130  -2.464  0.00  0.00    -0.202 N 
ATOM     12  N   UNL     1      23.755  14.240  -3.715  0.00  0.00    -0.059 NA
BRANCH  11  13
ATOM     13  C   UNL     1      23.691  13.314  -1.455  0.00  0.00    +0.156 A 
ATOM     14  C   UNL     1      24.528  12.621  -0.582  0.00  0.00    +0.048 A 
ATOM     15  C   UNL     1      23.954  11.789   0.377  0.00  0.00    +0.011 A 
ATOM     16  C   UNL     1      22.564  11.668   0.456  0.00  0.00    -0.004 A 
ATOM     17  C   UNL     1      21.810  12.399  -0.456  0.00  0.00    +0.119 A 
ATOM     18  N   UNL     1      22.334  13.221  -1.397  0.00  0.00    -0.236 NA
BRANCH  16  19
ATOM     19  C   UNL     1      21.930  10.709   1.420  0.00  0.00    +0.192 C 
BRANCH  19  20
ATOM     20  O   UNL     1      21.483  11.373   2.592  0.00  0.00    -0.390 OA
ATOM     21  H   UNL     1      20.908  12.102   2.303  0.00  0.00    +0.210 HD
ENDBRANCH  19  20
ENDBRANCH  16  19
ENDBRANCH  11  13
ENDBRANCH   7   9
ENDBRANCH   6   7
ENDBRANCH   5   6
ENDBRANCH   1   5
BRANCH   2  22
ATOM     22  C   UNL     1      28.255  14.447   0.151  0.00  0.00    +0.152 C 
BRANCH  22  23
ATOM     23  C   UNL     1      28.543  13.872   1.553  0.00  0.00    +0.193 C 
ATOM     24  O   UNL     1      27.314  13.271   2.016  0.00  0.00    -0.219 OA
BRANCH  23  25
ATOM     25  C   UNL     1      29.589  12.740   1.660  0.00  0.00    +0.212 C 
ATOM     26  O   UNL     1      29.185  11.607   0.875  0.00  0.00    -0.218 OA
BRANCH  25  27
ATOM     27  C   UNL     1      31.033  13.179   1.205  0.00  0.00    +0.171 C 
ATOM     28  O   UNL     1      31.228  13.048  -0.199  0.00  0.00    -0.343 OA
ATOM     29  C   UNL     1      32.470  13.131  -0.834  0.00  0.00    +0.220 C 
ATOM     30  C   UNL     1      33.513  12.217  -0.168  0.00  0.00    +0.076 C 
ATOM     31  C   UNL     1      33.530  12.550   1.333  0.00  0.00    +0.177 C 
ATOM     32  O   UNL     1      34.509  11.758   1.991  0.00  0.00    -0.221 OA
ATOM     33  C   UNL     1      32.113  12.327   1.948  0.00  0.00    +0.155 C 
BRANCH  33  34
ATOM     34  N   UNL     1      32.126  12.635   3.376  0.00  0.00    -0.202 NA
ATOM     35  C   UNL     1      31.948  11.815   4.442  0.00  0.00    +0.242 C 
ATOM     36  C   UNL     1      32.304  12.334   5.811  0.00  0.00    +0.096 C 
ATOM     37  O   UNL     1      31.507  10.680   4.269  0.00  0.00    -0.273 OA
ENDBRANCH  33  34
BRANCH  29  38
ATOM     38  C   UNL     1      33.019  14.653  -0.984  0.00  0.00    +0.391 C 
ATOM     39  O   UNL     1      31.931  15.432  -0.825  0.00  0.00    -0.243 OA
ATOM     40  O   UNL     1      34.353  14.574  -0.906  0.00  0.00    -0.243 OA
ENDBRANCH  29  38
ENDBRANCH  25  27
ENDBRANCH  23  25
ENDBRANCH  22  23
ENDBRANCH   2  22
TORSDOF 13
