REMARK VINA RESULT:    -7.899      1.346      1.883
REMARK INTER + INTRA:         -15.064
REMARK INTER:                 -13.247
REMARK INTRA:                  -1.817
REMARK UNBOUND:                -2.085
REMARK  Name = lig_assembled_51.pdb
REMARK  11 active torsions:
REMARK  status: ('A' for Active; 'I' for Inactive)
REMARK    1  A    between atoms: _2  and  _8
REMARK    2  A    between atoms: _5  and  _6
REMARK    3  A    between atoms: _5  and  _17
REMARK    4  A    between atoms: _17  and  _19
REMARK    5  A    between atoms: _18  and  _23
REMARK    6  A    between atoms: _19  and  _22
REMARK    7  A    between atoms: _27  and  _37
REMARK    8  A    between atoms: _29  and  _30
REMARK    9  A    between atoms: _31  and  _33
REMARK   10  A    between atoms: _33  and  _35
REMARK   11  A    between atoms: _35  and  _37
REMARK                            x       y       z     vdW  Elec       q    Type
REMARK                         _______ _______ _______ _____ _____    ______ ____
ROOT
ATOM      1  C   UNL     1      27.671  17.446  -1.260  0.00  0.00    +0.400 C 
ATOM      2  N   UNL     1      27.933  16.149  -0.888  0.00  0.00    -0.278 N 
ATOM      3  H   UNL     1      28.261  16.243   0.124  0.00  0.00    +0.152 HD
ATOM      4  O   UNL     1      27.683  18.312  -0.389  0.00  0.00    -0.226 OA
ENDROOT
BRANCH   1   5
ATOM      5  O   UNL     1      27.464  17.636  -2.522  0.00  0.00    -0.450 OA
BRANCH   5   6
ATOM      6  C   UNL     1      26.455  17.428  -3.482  0.00  0.00    +0.240 C 
BRANCH   6   7
ATOM      7  C   UNL     1      26.574  16.183  -4.381  0.00  0.00    +0.100 C 
BRANCH   7   9
ATOM      8  N   UNL     1      24.774  14.842  -5.426  0.00  0.00    -0.134 NA
ATOM      9  C   UNL     1      25.345  15.373  -4.302  0.00  0.00    +0.086 A 
ATOM     10  C   UNL     1      24.592  15.019  -3.207  0.00  0.00    +0.134 A 
ATOM     11  N   UNL     1      23.568  14.275  -3.727  0.00  0.00    -0.245 N 
ATOM     12  N   UNL     1      23.689  14.173  -5.064  0.00  0.00    -0.065 NA
BRANCH  11  13
ATOM     13  C   UNL     1      22.456  13.651  -3.004  0.00  0.00    +0.066 C 
ATOM     14  C   UNL     1      22.905  13.259  -1.570  0.00  0.00    +0.034 C 
ATOM     15  C   UNL     1      21.739  12.644  -0.779  0.00  0.00    -0.008 C 
ATOM     16  C   UNL     1      20.591  13.663  -0.695  0.00  0.00    +0.007 C 
ATOM     17  C   UNL     1      20.103  14.027  -2.107  0.00  0.00    -0.008 C 
ATOM     18  C   UNL     1      19.620  12.756  -2.821  0.00  0.00    +0.007 C 
ATOM     19  C   UNL     1      20.766  11.738  -2.916  0.00  0.00    -0.008 C 
ATOM     20  C   UNL     1      21.246  11.380  -1.500  0.00  0.00    +0.007 C 
ATOM     21  C   UNL     1      21.268  14.644  -2.900  0.00  0.00    +0.034 C 
ATOM     22  C   UNL     1      21.933  12.360  -3.704  0.00  0.00    +0.034 C 
ENDBRANCH  11  13
ENDBRANCH   7   9
ENDBRANCH   6   7
ENDBRANCH   5   6
ENDBRANCH   1   5
BRANCH   2  23
ATOM     23  C   UNL     1      27.950  14.732  -1.243  0.00  0.00    +0.152 C 
BRANCH  23  24
ATOM     24  C   UNL     1      28.886  13.834  -0.409  0.00  0.00    +0.193 C 
ATOM     25  O   UNL     1      28.700  12.483  -0.887  0.00  0.00    -0.219 OA
BRANCH  24  26
ATOM     26  C   UNL     1      30.406  14.079  -0.530  0.00  0.00    +0.212 C 
ATOM     27  O   UNL     1      30.688  15.488  -0.541  0.00  0.00    -0.218 OA
BRANCH  26  28
ATOM     28  C   UNL     1      31.241  13.407   0.626  0.00  0.00    +0.171 C 
ATOM     29  O   UNL     1      30.766  13.761   1.921  0.00  0.00    -0.343 OA
ATOM     30  C   UNL     1      31.456  13.510   3.109  0.00  0.00    +0.220 C 
ATOM     31  C   UNL     1      32.912  14.002   3.038  0.00  0.00    +0.076 C 
ATOM     32  C   UNL     1      33.547  13.388   1.779  0.00  0.00    +0.177 C 
ATOM     33  O   UNL     1      34.909  13.779   1.686  0.00  0.00    -0.221 OA
ATOM     34  C   UNL     1      32.746  13.816   0.510  0.00  0.00    +0.155 C 
BRANCH  34  35
ATOM     35  N   UNL     1      33.350  13.240  -0.689  0.00  0.00    -0.202 NA
ATOM     36  C   UNL     1      33.828  13.855  -1.800  0.00  0.00    +0.242 C 
ATOM     37  C   UNL     1      34.665  13.050  -2.759  0.00  0.00    +0.096 C 
ATOM     38  O   UNL     1      33.571  15.041  -1.997  0.00  0.00    -0.273 OA
ENDBRANCH  34  35
BRANCH  30  39
ATOM     39  C   UNL     1      31.372  11.961   3.592  0.00  0.00    +0.391 C 
ATOM     40  O   UNL     1      32.322  11.840   4.540  0.00  0.00    -0.243 OA
ATOM     41  O   UNL     1      30.222  11.483   3.101  0.00  0.00    -0.243 OA
ENDBRANCH  30  39
ENDBRANCH  26  28
ENDBRANCH  24  26
ENDBRANCH  23  24
ENDBRANCH   2  23
TORSDOF 11
