REMARK VINA RESULT:    -6.984      3.400      8.463
REMARK INTER + INTRA:         -12.792
REMARK INTER:                 -10.734
REMARK INTRA:                  -2.059
REMARK UNBOUND:                -1.318
REMARK  Name = lig_assembled_40.pdb
REMARK  12 active torsions:
REMARK  status: ('A' for Active; 'I' for Inactive)
REMARK    1  A    between atoms: _2  and  _8
REMARK    2  A    between atoms: _5  and  _6
REMARK    3  A    between atoms: _5  and  _14
REMARK    4  A    between atoms: _11  and  _12
REMARK    5  A    between atoms: _14  and  _16
REMARK    6  A    between atoms: _15  and  _20
REMARK    7  A    between atoms: _16  and  _19
REMARK    8  A    between atoms: _24  and  _34
REMARK    9  A    between atoms: _26  and  _27
REMARK   10  A    between atoms: _28  and  _30
REMARK   11  A    between atoms: _30  and  _32
REMARK   12  A    between atoms: _32  and  _34
REMARK                            x       y       z     vdW  Elec       q    Type
REMARK                         _______ _______ _______ _____ _____    ______ ____
ROOT
ATOM      1  C   UNL     1      25.967  16.252  -4.381  0.00  0.00    +0.400 C 
ATOM      2  N   UNL     1      24.864  15.670  -3.801  0.00  0.00    -0.278 N 
ATOM      3  H   UNL     1      24.528  14.980  -4.546  0.00  0.00    +0.152 HD
ATOM      4  O   UNL     1      26.393  15.770  -5.428  0.00  0.00    -0.226 OA
ENDROOT
BRANCH   1   5
ATOM      5  O   UNL     1      26.438  17.289  -3.771  0.00  0.00    -0.450 OA
BRANCH   5   6
ATOM      6  C   UNL     1      27.502  17.633  -2.915  0.00  0.00    +0.240 C 
BRANCH   6   7
ATOM      7  C   UNL     1      27.294  17.422  -1.403  0.00  0.00    +0.100 C 
BRANCH   7   9
ATOM      8  N   UNL     1      29.709  17.435  -0.858  0.00  0.00    -0.134 NA
ATOM      9  C   UNL     1      28.495  16.814  -0.799  0.00  0.00    +0.086 A 
ATOM     10  C   UNL     1      28.628  15.632  -0.111  0.00  0.00    +0.139 A 
ATOM     11  N   UNL     1      29.951  15.584   0.265  0.00  0.00    -0.220 N 
ATOM     12  N   UNL     1      30.590  16.678  -0.219  0.00  0.00    -0.061 NA
BRANCH  11  13
ATOM     13  C   UNL     1      30.609  14.612   1.063  0.00  0.00    +0.067 A 
ATOM     14  C   UNL     1      31.422  14.997   2.137  0.00  0.00    +0.028 A 
ATOM     15  C   UNL     1      32.121  14.033   2.870  0.00  0.00    +0.005 A 
ATOM     16  C   UNL     1      32.018  12.677   2.542  0.00  0.00    -0.050 A 
ATOM     17  C   UNL     1      31.177  12.292   1.491  0.00  0.00    +0.005 A 
ATOM     18  C   UNL     1      32.802  11.644   3.296  0.00  0.00    +0.044 C 
ATOM     19  C   UNL     1      30.476  13.251   0.754  0.00  0.00    +0.028 A 
ENDBRANCH  11  13
ENDBRANCH   7   9
ENDBRANCH   6   7
ENDBRANCH   5   6
ENDBRANCH   1   5
BRANCH   2  20
ATOM     20  C   UNL     1      23.976  15.563  -2.647  0.00  0.00    +0.152 C 
BRANCH  20  21
ATOM     21  C   UNL     1      22.684  14.747  -2.856  0.00  0.00    +0.193 C 
ATOM     22  O   UNL     1      22.420  14.744  -4.277  0.00  0.00    -0.219 OA
BRANCH  21  23
ATOM     23  C   UNL     1      22.710  13.253  -2.466  0.00  0.00    +0.212 C 
ATOM     24  O   UNL     1      22.351  12.434  -3.591  0.00  0.00    -0.218 OA
BRANCH  23  25
ATOM     25  C   UNL     1      24.110  12.774  -1.921  0.00  0.00    +0.171 C 
ATOM     26  O   UNL     1      25.027  12.464  -2.964  0.00  0.00    -0.343 OA
ATOM     27  C   UNL     1      26.239  11.795  -2.776  0.00  0.00    +0.220 C 
ATOM     28  C   UNL     1      26.054  10.498  -1.968  0.00  0.00    +0.076 C 
ATOM     29  C   UNL     1      25.307  10.862  -0.674  0.00  0.00    +0.177 C 
ATOM     30  O   UNL     1      25.145   9.702   0.131  0.00  0.00    -0.221 OA
ATOM     31  C   UNL     1      23.930  11.514  -1.013  0.00  0.00    +0.155 C 
BRANCH  31  32
ATOM     32  N   UNL     1      23.214  11.854   0.214  0.00  0.00    -0.202 NA
ATOM     33  C   UNL     1      21.935  11.582   0.576  0.00  0.00    +0.242 C 
ATOM     34  C   UNL     1      21.539  11.789   2.014  0.00  0.00    +0.096 C 
ATOM     35  O   UNL     1      21.138  11.176  -0.268  0.00  0.00    -0.273 OA
ENDBRANCH  31  32
BRANCH  27  36
ATOM     36  C   UNL     1      27.404  12.732  -2.142  0.00  0.00    +0.391 C 
ATOM     37  O   UNL     1      28.318  11.869  -1.656  0.00  0.00    -0.243 OA
ATOM     38  O   UNL     1      27.174  13.969  -2.599  0.00  0.00    -0.243 OA
ENDBRANCH  27  36
ENDBRANCH  23  25
ENDBRANCH  21  23
ENDBRANCH  20  21
ENDBRANCH   2  20
TORSDOF 11
