REMARK VINA RESULT:    -7.281      2.886     10.376
REMARK INTER + INTRA:         -16.258
REMARK INTER:                 -13.214
REMARK INTRA:                  -3.044
REMARK UNBOUND:                -3.231
REMARK  Name = lig_assembled_34.pdb
REMARK  14 active torsions:
REMARK  status: ('A' for Active; 'I' for Inactive)
REMARK    1  A    between atoms: _2  and  _8
REMARK    2  A    between atoms: _5  and  _6
REMARK    3  A    between atoms: _5  and  _32
REMARK    4  A    between atoms: _10  and  _11
REMARK    5  A    between atoms: _12  and  _13
REMARK    6  A    between atoms: _17  and  _30
REMARK    7  A    between atoms: _32  and  _34
REMARK    8  A    between atoms: _33  and  _38
REMARK    9  A    between atoms: _34  and  _37
REMARK   10  A    between atoms: _42  and  _52
REMARK   11  A    between atoms: _44  and  _45
REMARK   12  A    between atoms: _46  and  _48
REMARK   13  A    between atoms: _48  and  _50
REMARK   14  A    between atoms: _50  and  _52
REMARK                            x       y       z     vdW  Elec       q    Type
REMARK                         _______ _______ _______ _____ _____    ______ ____
ROOT
ATOM      1  N   UNL     1      26.798  15.196  -4.501  0.00  0.00    -0.134 NA
ATOM      2  C   UNL     1      26.288  16.083  -3.596  0.00  0.00    +0.086 A 
ATOM      3  C   UNL     1      25.338  15.446  -2.837  0.00  0.00    +0.139 A 
ATOM      4  N   UNL     1      25.312  14.145  -3.292  0.00  0.00    -0.220 N 
ATOM      5  N   UNL     1      26.192  14.024  -4.323  0.00  0.00    -0.061 NA
ENDROOT
BRANCH   4   6
ATOM      6  C   UNL     1      24.557  13.055  -2.784  0.00  0.00    +0.068 A 
ATOM      7  C   UNL     1      23.177  13.198  -2.596  0.00  0.00    +0.038 A 
ATOM      8  C   UNL     1      22.385  12.201  -1.976  0.00  0.00    +0.007 A 
ATOM      9  C   UNL     1      22.997  10.989  -1.603  0.00  0.00    -0.008 A 
ATOM     10  C   UNL     1      24.385  10.833  -1.841  0.00  0.00    +0.011 A 
ATOM     11  C   UNL     1      25.163  11.857  -2.408  0.00  0.00    +0.028 A 
BRANCH   9  12
ATOM     12  C   UNL     1      22.303   9.866  -0.889  0.00  0.00    +0.004 A 
ATOM     13  C   UNL     1      21.735   8.821  -1.553  0.00  0.00    +0.026 A 
ATOM     14  C   UNL     1      21.701   8.736  -3.019  0.00  0.00    +0.016 A 
ATOM     15  C   UNL     1      20.977   7.801  -3.651  0.00  0.00    +0.051 A 
ATOM     16  C   UNL     1      20.209   6.792  -2.882  0.00  0.00    +0.183 A 
ATOM     17  O   UNL     1      19.491   5.970  -3.446  0.00  0.00    -0.288 OA
ATOM     18  C   UNL     1      20.399   6.763  -1.418  0.00  0.00    +0.097 A 
ATOM     19  C   UNL     1      21.142   7.694  -0.807  0.00  0.00    +0.140 A 
ATOM     20  O   UNL     1      21.404   7.543   0.546  0.00  0.00    -0.455 OA
ATOM     21  C   UNL     1      21.940   8.603   1.230  0.00  0.00    +0.140 A 
ATOM     22  C   UNL     1      22.098   8.432   2.606  0.00  0.00    +0.092 A 
ATOM     23  C   UNL     1      22.580   9.483   3.370  0.00  0.00    +0.120 A 
ATOM     24  C   UNL     1      22.827  10.722   2.789  0.00  0.00    +0.046 A 
ATOM     25  C   UNL     1      22.676  10.873   1.407  0.00  0.00    +0.016 A 
ATOM     26  C   UNL     1      22.290   9.793   0.599  0.00  0.00    +0.026 A 
BRANCH  23  27
ATOM     27  O   UNL     1      22.812   9.265   4.697  0.00  0.00    -0.507 OA
ATOM     28  H   UNL     1      23.726   9.534   4.882  0.00  0.00    +0.292 HD
ENDBRANCH  23  27
ENDBRANCH   9  12
BRANCH   8  29
ATOM     29  C   UNL     1      20.939  12.565  -1.697  0.00  0.00    +0.072 C 
ATOM     30  O   UNL     1      20.092  12.205  -2.577  0.00  0.00    -0.545 OA
ATOM     31  O   UNL     1      20.681  13.259  -0.669  0.00  0.00    -0.545 OA
ENDBRANCH   8  29
ENDBRANCH   4   6
BRANCH   2  32
ATOM     32  C   UNL     1      26.745  17.483  -3.515  0.00  0.00    +0.100 C 
BRANCH  32  33
ATOM     33  C   UNL     1      27.165  17.838  -2.076  0.00  0.00    +0.240 C 
BRANCH  33  34
ATOM     34  O   UNL     1      28.332  17.232  -1.571  0.00  0.00    -0.450 OA
BRANCH  34  35
ATOM     35  C   UNL     1      29.029  17.203  -0.483  0.00  0.00    +0.400 C 
ATOM     36  N   UNL     1      29.060  15.994   0.173  0.00  0.00    -0.278 N 
ATOM     37  H   UNL     1      29.825  16.130   0.906  0.00  0.00    +0.152 HD
ATOM     38  O   UNL     1      29.676  18.134  -0.011  0.00  0.00    -0.226 OA
BRANCH  36  39
ATOM     39  C   UNL     1      28.519  14.646   0.322  0.00  0.00    +0.152 C 
BRANCH  39  40
ATOM     40  C   UNL     1      28.998  13.855   1.557  0.00  0.00    +0.193 C 
ATOM     41  O   UNL     1      27.863  13.744   2.444  0.00  0.00    -0.219 OA
BRANCH  40  42
ATOM     42  C   UNL     1      29.459  12.397   1.337  0.00  0.00    +0.212 C 
ATOM     43  O   UNL     1      29.544  12.104  -0.067  0.00  0.00    -0.218 OA
BRANCH  42  44
ATOM     44  C   UNL     1      30.851  12.076   2.004  0.00  0.00    +0.171 C 
ATOM     45  O   UNL     1      30.777  12.018   3.425  0.00  0.00    -0.343 OA
ATOM     46  C   UNL     1      31.888  11.993   4.271  0.00  0.00    +0.220 C 
ATOM     47  C   UNL     1      32.884  13.118   3.939  0.00  0.00    +0.076 C 
ATOM     48  C   UNL     1      33.210  13.020   2.440  0.00  0.00    +0.177 C 
ATOM     49  O   UNL     1      34.160  14.016   2.087  0.00  0.00    -0.221 OA
ATOM     50  C   UNL     1      31.905  13.157   1.595  0.00  0.00    +0.155 C 
BRANCH  50  51
ATOM     51  N   UNL     1      32.212  13.071   0.170  0.00  0.00    -0.202 NA
ATOM     52  C   UNL     1      32.307  14.056  -0.758  0.00  0.00    +0.242 C 
ATOM     53  C   UNL     1      32.926  13.726  -2.092  0.00  0.00    +0.096 C 
ATOM     54  O   UNL     1      31.894  15.183  -0.492  0.00  0.00    -0.273 OA
ENDBRANCH  50  51
BRANCH  46  55
ATOM     55  C   UNL     1      32.623  10.545   4.333  0.00  0.00    +0.391 C 
ATOM     56  O   UNL     1      33.835  10.793   4.866  0.00  0.00    -0.243 OA
ATOM     57  O   UNL     1      31.664   9.635   4.122  0.00  0.00    -0.243 OA
ENDBRANCH  46  55
ENDBRANCH  42  44
ENDBRANCH  40  42
ENDBRANCH  39  40
ENDBRANCH  36  39
ENDBRANCH  34  35
ENDBRANCH  33  34
ENDBRANCH  32  33
ENDBRANCH   2  32
TORSDOF 14
