REMARK VINA RESULT:    -8.623      1.491      3.738
REMARK INTER + INTRA:         -15.936
REMARK INTER:                 -14.301
REMARK INTRA:                  -1.634
REMARK UNBOUND:                -1.768
REMARK  Name = lig_assembled_91.pdb
REMARK  11 active torsions:
REMARK  status: ('A' for Active; 'I' for Inactive)
REMARK    1  A    between atoms: _2  and  _9
REMARK    2  A    between atoms: _6  and  _7
REMARK    3  A    between atoms: _6  and  _21
REMARK    4  A    between atoms: _21  and  _23
REMARK    5  A    between atoms: _22  and  _27
REMARK    6  A    between atoms: _23  and  _26
REMARK    7  A    between atoms: _31  and  _41
REMARK    8  A    between atoms: _33  and  _34
REMARK    9  A    between atoms: _35  and  _37
REMARK   10  A    between atoms: _37  and  _39
REMARK   11  A    between atoms: _39  and  _41
REMARK                            x       y       z     vdW  Elec       q    Type
REMARK                         _______ _______ _______ _____ _____    ______ ____
ROOT
ATOM      1  C   UNL     1      27.957  17.184  -0.641  0.00  0.00    +0.400 C 
ATOM      2  N   UNL     1      28.717  16.237   0.005  0.00  0.00    -0.278 N 
ATOM      3  H   UNL     1      28.908  16.681   0.958  0.00  0.00    +0.152 HD
ATOM      4  O   UNL     1      27.547  18.141   0.012  0.00  0.00    -0.226 OA
ENDROOT
BRANCH   1   5
ATOM      5  O   UNL     1      27.772  16.987  -1.904  0.00  0.00    -0.450 OA
BRANCH   5   6
ATOM      6  C   UNL     1      26.931  17.432  -2.943  0.00  0.00    +0.240 C 
BRANCH   6   7
ATOM      7  C   UNL     1      26.729  16.492  -4.147  0.00  0.00    +0.100 C 
BRANCH   7   9
ATOM      8  N   UNL     1      25.355  14.517  -4.701  0.00  0.00    -0.134 NA
ATOM      9  C   UNL     1      25.554  15.626  -3.937  0.00  0.00    +0.086 A 
ATOM     10  C   UNL     1      24.532  15.721  -3.019  0.00  0.00    +0.139 A 
ATOM     11  N   UNL     1      23.690  14.661  -3.290  0.00  0.00    -0.219 N 
ATOM     12  N   UNL     1      24.232  13.939  -4.304  0.00  0.00    -0.060 NA
BRANCH  11  13
ATOM     13  C   UNL     1      22.448  14.304  -2.679  0.00  0.00    +0.085 A 
ATOM     14  C   UNL     1      21.209  14.829  -3.196  0.00  0.00    +0.026 A 
ATOM     15  C   UNL     1      20.047  14.434  -2.506  0.00  0.00    +0.074 A 
ATOM     16  C   UNL     1      18.796  14.876  -2.908  0.00  0.00    +0.028 A 
ATOM     17  C   UNL     1      18.623  15.714  -4.005  0.00  0.00    +0.002 A 
ATOM     18  C   UNL     1      19.730  16.098  -4.734  0.00  0.00    +0.001 A 
ATOM     19  N   UNL     1      20.049  13.614  -1.457  0.00  0.00    -0.247 NA
ATOM     20  C   UNL     1      21.194  13.108  -1.000  0.00  0.00    +0.074 A 
ATOM     21  C   UNL     1      21.080  12.264   0.100  0.00  0.00    +0.028 A 
ATOM     22  C   UNL     1      22.188  11.689   0.713  0.00  0.00    +0.002 A 
ATOM     23  C   UNL     1      23.447  11.974   0.222  0.00  0.00    +0.001 A 
ATOM     24  C   UNL     1      23.579  12.825  -0.880  0.00  0.00    +0.012 A 
ATOM     25  C   UNL     1      20.998  15.647  -4.352  0.00  0.00    +0.012 A 
ATOM     26  C   UNL     1      22.452  13.409  -1.546  0.00  0.00    +0.026 A 
ENDBRANCH  11  13
ENDBRANCH   7   9
ENDBRANCH   6   7
ENDBRANCH   5   6
ENDBRANCH   1   5
BRANCH   2  27
ATOM     27  C   UNL     1      29.351  14.922  -0.021  0.00  0.00    +0.152 C 
BRANCH  27  28
ATOM     28  C   UNL     1      30.894  14.911  -0.030  0.00  0.00    +0.193 C 
ATOM     29  O   UNL     1      31.314  16.186  -0.563  0.00  0.00    -0.219 OA
BRANCH  28  30
ATOM     30  C   UNL     1      31.615  14.806   1.332  0.00  0.00    +0.212 C 
ATOM     31  O   UNL     1      31.254  15.909   2.178  0.00  0.00    -0.218 OA
BRANCH  30  32
ATOM     32  C   UNL     1      31.311  13.462   2.097  0.00  0.00    +0.171 C 
ATOM     33  O   UNL     1      30.109  13.526   2.859  0.00  0.00    -0.343 OA
ATOM     34  C   UNL     1      29.730  12.580   3.814  0.00  0.00    +0.220 C 
ATOM     35  C   UNL     1      30.861  12.299   4.819  0.00  0.00    +0.076 C 
ATOM     36  C   UNL     1      32.118  11.937   4.012  0.00  0.00    +0.177 C 
ATOM     37  O   UNL     1      33.186  11.628   4.897  0.00  0.00    -0.221 OA
ATOM     38  C   UNL     1      32.497  13.107   3.052  0.00  0.00    +0.155 C 
BRANCH  38  39
ATOM     39  N   UNL     1      33.695  12.769   2.289  0.00  0.00    -0.202 NA
ATOM     40  C   UNL     1      34.937  13.317   2.335  0.00  0.00    +0.242 C 
ATOM     41  C   UNL     1      36.066  12.587   1.654  0.00  0.00    +0.096 C 
ATOM     42  O   UNL     1      35.110  14.381   2.924  0.00  0.00    -0.273 OA
ENDBRANCH  38  39
BRANCH  34  43
ATOM     43  C   UNL     1      29.151  11.206   3.169  0.00  0.00    +0.391 C 
ATOM     44  O   UNL     1      29.069  10.345   4.202  0.00  0.00    -0.243 OA
ATOM     45  O   UNL     1      28.697  11.531   1.952  0.00  0.00    -0.243 OA
ENDBRANCH  34  43
ENDBRANCH  30  32
ENDBRANCH  28  30
ENDBRANCH  27  28
ENDBRANCH   2  27
TORSDOF 11
