REMARK VINA RESULT:    -7.466      1.714      2.546
REMARK INTER + INTRA:         -13.652
REMARK INTER:                 -11.607
REMARK INTRA:                  -2.045
REMARK UNBOUND:                -1.385
REMARK  Name = lig_assembled_56.pdb
REMARK  11 active torsions:
REMARK  status: ('A' for Active; 'I' for Inactive)
REMARK    1  A    between atoms: _2  and  _9
REMARK    2  A    between atoms: _6  and  _7
REMARK    3  A    between atoms: _6  and  _13
REMARK    4  A    between atoms: _13  and  _15
REMARK    5  A    between atoms: _14  and  _19
REMARK    6  A    between atoms: _15  and  _18
REMARK    7  A    between atoms: _23  and  _33
REMARK    8  A    between atoms: _25  and  _26
REMARK    9  A    between atoms: _27  and  _29
REMARK   10  A    between atoms: _29  and  _31
REMARK   11  A    between atoms: _31  and  _33
REMARK                            x       y       z     vdW  Elec       q    Type
REMARK                         _______ _______ _______ _____ _____    ______ ____
ROOT
ATOM      1  C   UNL     1      28.349  14.227  -0.384  0.00  0.00    +0.152 C 
ENDROOT
BRANCH   1   3
ATOM      2  C   UNL     1      28.129  16.920  -0.764  0.00  0.00    +0.400 C 
ATOM      3  N   UNL     1      28.369  15.679  -0.224  0.00  0.00    -0.278 N 
ATOM      4  H   UNL     1      28.716  15.901   0.762  0.00  0.00    +0.152 HD
ATOM      5  O   UNL     1      28.174  17.895  -0.017  0.00  0.00    -0.226 OA
BRANCH   2   6
ATOM      6  O   UNL     1      27.905  16.943  -2.036  0.00  0.00    -0.450 OA
BRANCH   6   7
ATOM      7  C   UNL     1      26.952  17.446  -2.944  0.00  0.00    +0.240 C 
BRANCH   7   8
ATOM      8  C   UNL     1      26.371  16.465  -3.980  0.00  0.00    +0.100 C 
BRANCH   8  10
ATOM      9  N   UNL     1      26.159  14.136  -3.174  0.00  0.00    -0.134 NA
ATOM     10  C   UNL     1      25.627  15.386  -3.304  0.00  0.00    +0.086 A 
ATOM     11  C   UNL     1      24.381  15.407  -2.719  0.00  0.00    +0.139 A 
ATOM     12  N   UNL     1      24.199  14.137  -2.226  0.00  0.00    -0.220 N 
ATOM     13  N   UNL     1      25.285  13.381  -2.522  0.00  0.00    -0.061 NA
BRANCH  12  14
ATOM     14  C   UNL     1      23.098  13.614  -1.503  0.00  0.00    +0.070 A 
ATOM     15  C   UNL     1      23.253  12.523  -0.645  0.00  0.00    +0.047 A 
ATOM     16  C   UNL     1      22.130  12.053   0.019  0.00  0.00    +0.113 A 
ATOM     17  N   UNL     1      20.900  12.588  -0.114  0.00  0.00    -0.263 NA
ATOM     18  C   UNL     1      20.778  13.643  -0.947  0.00  0.00    +0.113 A 
ATOM     19  C   UNL     1      21.833  14.189  -1.657  0.00  0.00    +0.047 A 
ENDBRANCH  12  14
ENDBRANCH   8  10
ENDBRANCH   7   8
ENDBRANCH   6   7
ENDBRANCH   2   6
ENDBRANCH   1   3
BRANCH   1  20
ATOM     20  C   UNL     1      28.046  13.407   0.886  0.00  0.00    +0.193 C 
ATOM     21  O   UNL     1      28.590  12.087   0.668  0.00  0.00    -0.219 OA
BRANCH  20  22
ATOM     22  C   UNL     1      28.689  13.875   2.210  0.00  0.00    +0.212 C 
ATOM     23  O   UNL     1      27.692  13.992   3.239  0.00  0.00    -0.218 OA
BRANCH  22  24
ATOM     24  C   UNL     1      29.831  12.917   2.722  0.00  0.00    +0.171 C 
ATOM     25  O   UNL     1      29.621  12.481   4.061  0.00  0.00    -0.343 OA
ATOM     26  C   UNL     1      30.583  11.833   4.839  0.00  0.00    +0.220 C 
ATOM     27  C   UNL     1      31.921  12.592   4.841  0.00  0.00    +0.076 C 
ATOM     28  C   UNL     1      32.323  12.824   3.375  0.00  0.00    +0.177 C 
ATOM     29  O   UNL     1      33.577  13.489   3.319  0.00  0.00    -0.221 OA
ATOM     30  C   UNL     1      31.216  13.639   2.637  0.00  0.00    +0.155 C 
BRANCH  30  31
ATOM     31  N   UNL     1      31.597  13.867   1.246  0.00  0.00    -0.202 NA
ATOM     32  C   UNL     1      31.668  15.028   0.545  0.00  0.00    +0.242 C 
ATOM     33  C   UNL     1      32.373  15.017  -0.787  0.00  0.00    +0.096 C 
ATOM     34  O   UNL     1      31.164  16.049   1.007  0.00  0.00    -0.273 OA
ENDBRANCH  30  31
BRANCH  26  35
ATOM     35  C   UNL     1      30.784  10.269   4.449  0.00  0.00    +0.391 C 
ATOM     36  O   UNL     1      31.930   9.903   5.057  0.00  0.00    -0.243 OA
ATOM     37  O   UNL     1      29.615   9.861   3.940  0.00  0.00    -0.243 OA
ENDBRANCH  26  35
ENDBRANCH  22  24
ENDBRANCH  20  22
ENDBRANCH   1  20
TORSDOF 11
