REMARK VINA RESULT:    -6.684      4.301     10.115
REMARK INTER + INTRA:         -14.105
REMARK INTER:                 -12.218
REMARK INTRA:                  -1.888
REMARK UNBOUND:                -2.732
REMARK  Name = lig_assembled_85.pdb
REMARK  14 active torsions:
REMARK  status: ('A' for Active; 'I' for Inactive)
REMARK    1  A    between atoms: _2  and  _9
REMARK    2  A    between atoms: _3  and  _5
REMARK    3  A    between atoms: _3  and  _16
REMARK    4  A    between atoms: _6  and  _7
REMARK    5  A    between atoms: _6  and  _18
REMARK    6  A    between atoms: _14  and  _15
REMARK    7  A    between atoms: _18  and  _20
REMARK    8  A    between atoms: _19  and  _24
REMARK    9  A    between atoms: _20  and  _23
REMARK   10  A    between atoms: _28  and  _38
REMARK   11  A    between atoms: _30  and  _31
REMARK   12  A    between atoms: _32  and  _34
REMARK   13  A    between atoms: _34  and  _36
REMARK   14  A    between atoms: _36  and  _38
REMARK                            x       y       z     vdW  Elec       q    Type
REMARK                         _______ _______ _______ _____ _____    ______ ____
ROOT
ATOM      1  C   UNL     1      28.077  17.474  -0.734  0.00  0.00    +0.400 C 
ATOM      2  N   UNL     1      27.242  16.627  -1.423  0.00  0.00    -0.278 N 
ATOM      3  H   UNL     1      26.272  16.879  -1.051  0.00  0.00    +0.152 HD
ATOM      4  O   UNL     1      27.569  18.368  -0.062  0.00  0.00    -0.226 OA
ENDROOT
BRANCH   2   5
ATOM      5  C   UNL     1      27.087  15.572  -2.421  0.00  0.00    +0.152 C 
BRANCH   5   6
ATOM      6  C   UNL     1      25.948  15.765  -3.443  0.00  0.00    +0.193 C 
ATOM      7  O   UNL     1      26.565  16.202  -4.675  0.00  0.00    -0.219 OA
BRANCH   6   8
ATOM      8  C   UNL     1      25.128  14.519  -3.844  0.00  0.00    +0.212 C 
ATOM      9  O   UNL     1      25.964  13.563  -4.515  0.00  0.00    -0.218 OA
BRANCH   8  10
ATOM     10  C   UNL     1      24.432  13.810  -2.621  0.00  0.00    +0.171 C 
ATOM     11  O   UNL     1      25.052  12.574  -2.279  0.00  0.00    -0.343 OA
ATOM     12  C   UNL     1      24.503  11.632  -1.407  0.00  0.00    +0.220 C 
ATOM     13  C   UNL     1      23.047  11.294  -1.775  0.00  0.00    +0.076 C 
ATOM     14  C   UNL     1      22.274  12.619  -1.866  0.00  0.00    +0.177 C 
ATOM     15  O   UNL     1      20.909  12.361  -2.166  0.00  0.00    -0.221 OA
ATOM     16  C   UNL     1      22.923  13.548  -2.939  0.00  0.00    +0.155 C 
BRANCH  16  17
ATOM     17  N   UNL     1      22.187  14.806  -3.033  0.00  0.00    -0.202 NA
ATOM     18  C   UNL     1      21.494  15.329  -4.076  0.00  0.00    +0.242 C 
ATOM     19  C   UNL     1      20.583  16.500  -3.814  0.00  0.00    +0.096 C 
ATOM     20  O   UNL     1      21.622  14.841  -5.197  0.00  0.00    -0.273 OA
ENDBRANCH  16  17
BRANCH  12  21
ATOM     21  C   UNL     1      24.643  12.040   0.159  0.00  0.00    +0.391 C 
ATOM     22  O   UNL     1      23.533  11.552   0.746  0.00  0.00    -0.243 OA
ATOM     23  O   UNL     1      25.913  12.427   0.328  0.00  0.00    -0.243 OA
ENDBRANCH  12  21
ENDBRANCH   8  10
ENDBRANCH   6   8
ENDBRANCH   5   6
ENDBRANCH   2   5
BRANCH   1  24
ATOM     24  O   UNL     1      29.340  17.222  -0.839  0.00  0.00    -0.450 OA
BRANCH  24  25
ATOM     25  C   UNL     1      30.393  16.695  -0.065  0.00  0.00    +0.240 C 
BRANCH  25  26
ATOM     26  C   UNL     1      30.263  15.235   0.411  0.00  0.00    +0.100 C 
BRANCH  26  28
ATOM     27  N   UNL     1      31.321  13.062  -0.090  0.00  0.00    -0.134 NA
ATOM     28  C   UNL     1      31.372  14.426  -0.122  0.00  0.00    +0.086 A 
ATOM     29  C   UNL     1      32.533  14.823  -0.748  0.00  0.00    +0.139 A 
ATOM     30  N   UNL     1      33.162  13.651  -1.089  0.00  0.00    -0.219 N 
ATOM     31  N   UNL     1      32.399  12.600  -0.704  0.00  0.00    -0.061 NA
BRANCH  30  32
ATOM     32  C   UNL     1      34.354  13.450  -1.816  0.00  0.00    +0.080 A 
ATOM     33  C   UNL     1      34.406  13.210  -3.199  0.00  0.00    +0.062 A 
ATOM     34  C   UNL     1      35.638  12.781  -3.744  0.00  0.00    +0.016 A 
ATOM     35  C   UNL     1      36.782  12.620  -2.956  0.00  0.00    +0.021 A 
ATOM     36  C   UNL     1      36.728  12.933  -1.606  0.00  0.00    +0.043 A 
ATOM     37 CL   UNL     1      38.115  12.708  -0.615  0.00  0.00    -0.083 Cl
ATOM     38  C   UNL     1      35.534  13.371  -1.040  0.00  0.00    +0.048 A 
BRANCH  33  39
ATOM     39  C   UNL     1      33.297  13.270  -4.195  0.00  0.00    +0.248 C 
ATOM     40  O   UNL     1      33.203  14.337  -4.808  0.00  0.00    -0.270 OA
ATOM     41  N   UNL     1      32.373  12.239  -4.398  0.00  0.00    -0.304 N 
ATOM     42  C   UNL     1      32.413  10.885  -3.862  0.00  0.00    +0.132 C 
ATOM     43  C   UNL     1      31.348  12.476  -5.409  0.00  0.00    +0.132 C 
ENDBRANCH  33  39
ENDBRANCH  30  32
ENDBRANCH  26  28
ENDBRANCH  25  26
ENDBRANCH  24  25
ENDBRANCH   1  24
TORSDOF 12
