REMARK VINA RESULT:    -6.764      1.572      3.317
REMARK INTER + INTRA:         -13.428
REMARK INTER:                 -12.257
REMARK INTRA:                  -1.171
REMARK UNBOUND:                -1.919
REMARK  Name = lig_assembled_41.pdb
REMARK  13 active torsions:
REMARK  status: ('A' for Active; 'I' for Inactive)
REMARK    1  A    between atoms: _2  and  _8
REMARK    2  A    between atoms: _5  and  _6
REMARK    3  A    between atoms: _5  and  _16
REMARK    4  A    between atoms: _9  and  _10
REMARK    5  A    between atoms: _10  and  _11
REMARK    6  A    between atoms: _16  and  _18
REMARK    7  A    between atoms: _17  and  _22
REMARK    8  A    between atoms: _18  and  _21
REMARK    9  A    between atoms: _26  and  _36
REMARK   10  A    between atoms: _28  and  _29
REMARK   11  A    between atoms: _30  and  _32
REMARK   12  A    between atoms: _32  and  _34
REMARK   13  A    between atoms: _34  and  _36
REMARK                            x       y       z     vdW  Elec       q    Type
REMARK                         _______ _______ _______ _____ _____    ______ ____
ROOT
ATOM      1  C   UNL     1      27.852  17.053  -0.652  0.00  0.00    +0.400 C 
ATOM      2  N   UNL     1      28.475  16.097   0.116  0.00  0.00    -0.278 N 
ATOM      3  H   UNL     1      28.858  16.655   0.943  0.00  0.00    +0.152 HD
ATOM      4  O   UNL     1      27.717  18.178  -0.178  0.00  0.00    -0.226 OA
ENDROOT
BRANCH   2   5
ATOM      5  C   UNL     1      28.828  14.693   0.310  0.00  0.00    +0.152 C 
BRANCH   5   6
ATOM      6  C   UNL     1      29.346  14.310   1.711  0.00  0.00    +0.193 C 
ATOM      7  O   UNL     1      28.189  13.952   2.499  0.00  0.00    -0.219 OA
BRANCH   6   8
ATOM      8  C   UNL     1      30.280  13.084   1.818  0.00  0.00    +0.212 C 
ATOM      9  O   UNL     1      29.734  11.973   1.089  0.00  0.00    -0.218 OA
BRANCH   8  10
ATOM     10  C   UNL     1      31.739  13.363   1.293  0.00  0.00    +0.171 C 
ATOM     11  O   UNL     1      31.881  13.097  -0.099  0.00  0.00    -0.343 OA
ATOM     12  C   UNL     1      33.105  13.024  -0.767  0.00  0.00    +0.220 C 
ATOM     13  C   UNL     1      34.092  12.087  -0.049  0.00  0.00    +0.076 C 
ATOM     14  C   UNL     1      34.181  12.544   1.417  0.00  0.00    +0.177 C 
ATOM     15  O   UNL     1      35.113  11.734   2.119  0.00  0.00    -0.221 OA
ATOM     16  C   UNL     1      32.770  12.492   2.082  0.00  0.00    +0.155 C 
BRANCH  16  17
ATOM     17  N   UNL     1      32.851  12.919   3.477  0.00  0.00    -0.202 NA
ATOM     18  C   UNL     1      32.642  12.209   4.615  0.00  0.00    +0.242 C 
ATOM     19  C   UNL     1      33.079  12.813   5.924  0.00  0.00    +0.096 C 
ATOM     20  O   UNL     1      32.108  11.103   4.552  0.00  0.00    -0.273 OA
ENDBRANCH  16  17
BRANCH  12  21
ATOM     21  C   UNL     1      33.769  14.477  -1.062  0.00  0.00    +0.391 C 
ATOM     22  O   UNL     1      32.724  15.321  -1.167  0.00  0.00    -0.243 OA
ATOM     23  O   UNL     1      35.074  14.349  -0.794  0.00  0.00    -0.243 OA
ENDBRANCH  12  21
ENDBRANCH   8  10
ENDBRANCH   6   8
ENDBRANCH   5   6
ENDBRANCH   2   5
BRANCH   1  24
ATOM     24  O   UNL     1      27.489  16.674  -1.833  0.00  0.00    -0.450 OA
BRANCH  24  25
ATOM     25  C   UNL     1      27.333  17.210  -3.126  0.00  0.00    +0.240 C 
BRANCH  25  26
ATOM     26  C   UNL     1      26.003  16.934  -3.854  0.00  0.00    +0.100 C 
BRANCH  26  28
ATOM     27  N   UNL     1      25.816  14.482  -3.652  0.00  0.00    -0.134 NA
ATOM     28  C   UNL     1      25.363  15.722  -3.313  0.00  0.00    +0.086 A 
ATOM     29  C   UNL     1      24.310  15.591  -2.434  0.00  0.00    +0.139 A 
ATOM     30  N   UNL     1      24.082  14.237  -2.347  0.00  0.00    -0.219 N 
ATOM     31  N   UNL     1      25.071  13.587  -3.023  0.00  0.00    -0.061 NA
BRANCH  30  32
ATOM     32  C   UNL     1      23.105  13.502  -1.614  0.00  0.00    +0.077 A 
ATOM     33  C   UNL     1      21.713  13.578  -1.830  0.00  0.00    +0.043 A 
ATOM     34  C   UNL     1      20.855  12.832  -0.996  0.00  0.00    +0.013 A 
ATOM     35  C   UNL     1      21.358  12.034   0.035  0.00  0.00    +0.001 A 
ATOM     36  C   UNL     1      22.727  11.939   0.231  0.00  0.00    +0.002 A 
ATOM     37  C   UNL     1      23.593  12.657  -0.593  0.00  0.00    +0.028 A 
BRANCH  33  38
ATOM     38  C   UNL     1      21.089  14.235  -3.020  0.00  0.00    +0.162 C 
ATOM     39  O   UNL     1      20.218  15.086  -2.850  0.00  0.00    -0.292 OA
ATOM     40  C   UNL     1      21.526  13.857  -4.414  0.00  0.00    +0.091 C 
ENDBRANCH  33  38
ENDBRANCH  30  32
ENDBRANCH  26  28
ENDBRANCH  25  26
ENDBRANCH  24  25
ENDBRANCH   1  24
TORSDOF 12
