REMARK VINA RESULT:    -6.127      2.281      4.306
REMARK INTER + INTRA:         -12.477
REMARK INTER:                 -10.590
REMARK INTRA:                  -1.887
REMARK UNBOUND:                -1.336
REMARK  Name = lig_assembled_19.pdb
REMARK  15 active torsions:
REMARK  status: ('A' for Active; 'I' for Inactive)
REMARK    1  A    between atoms: _2  and  _8
REMARK    2  A    between atoms: _4  and  _10
REMARK    3  A    between atoms: _5  and  _6
REMARK    4  A    between atoms: _5  and  _13
REMARK    5  A    between atoms: _8  and  _9
REMARK    6  A    between atoms: _9  and  _12
REMARK    7  A    between atoms: _10  and  _12
REMARK    8  A    between atoms: _13  and  _15
REMARK    9  A    between atoms: _14  and  _19
REMARK   10  A    between atoms: _15  and  _18
REMARK   11  A    between atoms: _23  and  _33
REMARK   12  A    between atoms: _25  and  _26
REMARK   13  A    between atoms: _27  and  _29
REMARK   14  A    between atoms: _29  and  _31
REMARK   15  A    between atoms: _31  and  _33
REMARK                            x       y       z     vdW  Elec       q    Type
REMARK                         _______ _______ _______ _____ _____    ______ ____
ROOT
ATOM      1  C   UNL     1      28.265  13.922  -0.153  0.00  0.00    +0.152 C 
ENDROOT
BRANCH   1   3
ATOM      2  C   UNL     1      28.636  16.504  -0.954  0.00  0.00    +0.400 C 
ATOM      3  N   UNL     1      28.829  15.231  -0.472  0.00  0.00    -0.278 N 
ATOM      4  H   UNL     1      29.865  15.222  -0.207  0.00  0.00    +0.152 HD
ATOM      5  O   UNL     1      29.542  17.322  -0.811  0.00  0.00    -0.226 OA
BRANCH   2   6
ATOM      6  O   UNL     1      27.507  16.712  -1.550  0.00  0.00    -0.450 OA
BRANCH   6   7
ATOM      7  C   UNL     1      27.013  17.323  -2.718  0.00  0.00    +0.240 C 
BRANCH   7   8
ATOM      8  C   UNL     1      26.484  16.401  -3.834  0.00  0.00    +0.100 C 
BRANCH   8  10
ATOM      9  N   UNL     1      24.280  15.872  -2.833  0.00  0.00    -0.134 NA
ATOM     10  C   UNL     1      25.501  15.448  -3.289  0.00  0.00    +0.086 A 
ATOM     11  C   UNL     1      25.587  14.083  -3.136  0.00  0.00    +0.133 A 
ATOM     12  N   UNL     1      24.394  13.741  -2.574  0.00  0.00    -0.248 N 
ATOM     13  N   UNL     1      23.608  14.815  -2.397  0.00  0.00    -0.065 NA
BRANCH  12  14
ATOM     14  C   UNL     1      23.936  12.422  -2.196  0.00  0.00    +0.186 C 
BRANCH  14  15
ATOM     15  C   UNL     1      23.008  12.471  -0.986  0.00  0.00    +0.255 C 
BRANCH  15  16
ATOM     16  O   UNL     1      23.661  12.030   0.220  0.00  0.00    -0.463 OA
BRANCH  16  17
ATOM     17  C   UNL     1      22.867  11.418   1.138  0.00  0.00    +0.304 C 
ATOM     18  O   UNL     1      23.264  10.653   2.006  0.00  0.00    -0.251 OA
ATOM     19  C   UNL     1      21.438  11.832   0.969  0.00  0.00    +0.136 C 
ENDBRANCH  16  17
ENDBRANCH  15  16
ENDBRANCH  14  15
ENDBRANCH  12  14
ENDBRANCH   8  10
ENDBRANCH   7   8
ENDBRANCH   6   7
ENDBRANCH   2   6
ENDBRANCH   1   3
BRANCH   1  20
ATOM     20  C   UNL     1      28.721  12.750  -1.046  0.00  0.00    +0.193 C 
ATOM     21  O   UNL     1      28.758  13.250  -2.401  0.00  0.00    -0.219 OA
BRANCH  20  22
ATOM     22  C   UNL     1      30.136  12.178  -0.807  0.00  0.00    +0.212 C 
ATOM     23  O   UNL     1      30.167  10.774  -1.111  0.00  0.00    -0.218 OA
BRANCH  22  24
ATOM     24  C   UNL     1      31.252  12.901  -1.653  0.00  0.00    +0.171 C 
ATOM     25  O   UNL     1      31.844  12.045  -2.624  0.00  0.00    -0.343 OA
ATOM     26  C   UNL     1      33.009  12.346  -3.335  0.00  0.00    +0.220 C 
ATOM     27  C   UNL     1      34.149  12.787  -2.400  0.00  0.00    +0.076 C 
ATOM     28  C   UNL     1      33.612  13.930  -1.524  0.00  0.00    +0.177 C 
ATOM     29  O   UNL     1      34.641  14.404  -0.666  0.00  0.00    -0.221 OA
ATOM     30  C   UNL     1      32.373  13.446  -0.708  0.00  0.00    +0.155 C 
BRANCH  30  31
ATOM     31  N   UNL     1      31.864  14.528   0.131  0.00  0.00    -0.202 NA
ATOM     32  C   UNL     1      31.687  14.572   1.476  0.00  0.00    +0.242 C 
ATOM     33  C   UNL     1      31.426  15.909   2.120  0.00  0.00    +0.096 C 
ATOM     34  O   UNL     1      31.745  13.533   2.131  0.00  0.00    -0.273 OA
ENDBRANCH  30  31
BRANCH  26  35
ATOM     35  C   UNL     1      32.776  13.412  -4.538  0.00  0.00    +0.391 C 
ATOM     36  O   UNL     1      31.689  12.963  -5.195  0.00  0.00    -0.243 OA
ATOM     37  O   UNL     1      33.544  14.470  -4.248  0.00  0.00    -0.243 OA
ENDBRANCH  26  35
ENDBRANCH  22  24
ENDBRANCH  20  22
ENDBRANCH   1  20
TORSDOF 14
