REMARK VINA RESULT:    -6.515      3.621      7.861
REMARK INTER + INTRA:         -12.872
REMARK INTER:                 -10.623
REMARK INTRA:                  -2.250
REMARK UNBOUND:                -2.168
REMARK  Name = lig_assembled_86.pdb
REMARK  12 active torsions:
REMARK  status: ('A' for Active; 'I' for Inactive)
REMARK    1  A    between atoms: _2  and  _9
REMARK    2  A    between atoms: _3  and  _12
REMARK    3  A    between atoms: _6  and  _7
REMARK    4  A    between atoms: _6  and  _16
REMARK    5  A    between atoms: _16  and  _18
REMARK    6  A    between atoms: _17  and  _22
REMARK    7  A    between atoms: _18  and  _21
REMARK    8  A    between atoms: _26  and  _36
REMARK    9  A    between atoms: _28  and  _29
REMARK   10  A    between atoms: _30  and  _32
REMARK   11  A    between atoms: _32  and  _34
REMARK   12  A    between atoms: _34  and  _36
REMARK                            x       y       z     vdW  Elec       q    Type
REMARK                         _______ _______ _______ _____ _____    ______ ____
ROOT
ATOM      1  C   UNL     1      28.606  16.407  -0.502  0.00  0.00    +0.400 C 
ATOM      2  N   UNL     1      27.500  16.249  -1.303  0.00  0.00    -0.278 N 
ATOM      3  H   UNL     1      26.957  17.157  -1.157  0.00  0.00    +0.152 HD
ATOM      4  O   UNL     1      28.805  17.511  -0.001  0.00  0.00    -0.226 OA
ENDROOT
BRANCH   1   5
ATOM      5  O   UNL     1      29.327  15.349  -0.326  0.00  0.00    -0.450 OA
BRANCH   5   6
ATOM      6  C   UNL     1      29.202  14.046   0.196  0.00  0.00    +0.240 C 
BRANCH   6   7
ATOM      7  C   UNL     1      28.244  13.846   1.386  0.00  0.00    +0.100 C 
BRANCH   7   9
ATOM      8  N   UNL     1      26.892  12.606  -0.283  0.00  0.00    -0.134 NA
ATOM      9  C   UNL     1      27.178  12.892   1.027  0.00  0.00    +0.086 A 
ATOM     10  C   UNL     1      26.347  12.155   1.836  0.00  0.00    +0.134 A 
ATOM     11  N   UNL     1      25.606  11.416   0.965  0.00  0.00    -0.248 N 
ATOM     12  N   UNL     1      25.913  11.711  -0.310  0.00  0.00    -0.065 NA
BRANCH  11  13
ATOM     13  C   UNL     1      24.602  10.413   1.289  0.00  0.00    +0.112 C 
ATOM     14  C   UNL     1      23.887  10.724   2.619  0.00  0.00    +0.045 C 
ATOM     15  C   UNL     1      22.363  10.589   2.573  0.00  0.00    +0.059 C 
ATOM     16  C   UNL     1      21.724  11.788   1.864  0.00  0.00    +0.020 C 
ATOM     17  C   UNL     1      21.575  11.341   0.412  0.00  0.00    +0.020 C 
ATOM     18  C   UNL     1      22.213   9.951   0.371  0.00  0.00    +0.059 C 
ATOM     19  N   UNL     1      21.919   9.483   1.725  0.00  0.00    -0.299 NA
ATOM     20  C   UNL     1      22.402   8.159   2.071  0.00  0.00    +0.105 C 
ATOM     21  C   UNL     1      23.717  10.036   0.078  0.00  0.00    +0.045 C 
ENDBRANCH  11  13
ENDBRANCH   7   9
ENDBRANCH   6   7
ENDBRANCH   5   6
ENDBRANCH   1   5
BRANCH   2  22
ATOM     22  C   UNL     1      26.760  15.422  -2.252  0.00  0.00    +0.152 C 
BRANCH  22  23
ATOM     23  C   UNL     1      25.896  16.178  -3.283  0.00  0.00    +0.193 C 
ATOM     24  O   UNL     1      26.762  17.140  -3.924  0.00  0.00    -0.219 OA
BRANCH  23  25
ATOM     25  C   UNL     1      25.297  15.361  -4.449  0.00  0.00    +0.212 C 
ATOM     26  O   UNL     1      26.011  15.627  -5.667  0.00  0.00    -0.218 OA
BRANCH  25  27
ATOM     27  C   UNL     1      25.302  13.806  -4.190  0.00  0.00    +0.171 C 
ATOM     28  O   UNL     1      26.102  13.098  -5.131  0.00  0.00    -0.343 OA
ATOM     29  C   UNL     1      26.092  11.709  -5.287  0.00  0.00    +0.220 C 
ATOM     30  C   UNL     1      24.662  11.163  -5.442  0.00  0.00    +0.076 C 
ATOM     31  C   UNL     1      23.835  11.687  -4.256  0.00  0.00    +0.177 C 
ATOM     32  O   UNL     1      22.511  11.178  -4.329  0.00  0.00    -0.221 OA
ATOM     33  C   UNL     1      23.842  13.248  -4.245  0.00  0.00    +0.155 C 
BRANCH  33  34
ATOM     34  N   UNL     1      23.052  13.750  -3.124  0.00  0.00    -0.202 NA
ATOM     35  C   UNL     1      21.777  14.216  -3.100  0.00  0.00    +0.242 C 
ATOM     36  C   UNL     1      21.105  14.395  -1.764  0.00  0.00    +0.096 C 
ATOM     37  O   UNL     1      21.206  14.477  -4.157  0.00  0.00    -0.273 OA
ENDBRANCH  33  34
BRANCH  29  38
ATOM     38  C   UNL     1      26.909  10.922  -4.124  0.00  0.00    +0.391 C 
ATOM     39  O   UNL     1      27.711  11.854  -3.571  0.00  0.00    -0.243 OA
ATOM     40  O   UNL     1      26.277   9.755  -3.953  0.00  0.00    -0.243 OA
ENDBRANCH  29  38
ENDBRANCH  25  27
ENDBRANCH  23  25
ENDBRANCH  22  23
ENDBRANCH   2  22
TORSDOF 11
