REMARK VINA RESULT:    -7.035      1.675      2.324
REMARK INTER + INTRA:         -14.115
REMARK INTER:                 -12.105
REMARK INTRA:                  -2.010
REMARK UNBOUND:                -2.144
REMARK  Name = lig_assembled_63.pdb
REMARK  12 active torsions:
REMARK  status: ('A' for Active; 'I' for Inactive)
REMARK    1  A    between atoms: _2  and  _10
REMARK    2  A    between atoms: _6  and  _14
REMARK    3  A    between atoms: _7  and  _8
REMARK    4  A    between atoms: _7  and  _15
REMARK    5  A    between atoms: _15  and  _17
REMARK    6  A    between atoms: _16  and  _21
REMARK    7  A    between atoms: _17  and  _20
REMARK    8  A    between atoms: _25  and  _35
REMARK    9  A    between atoms: _27  and  _28
REMARK   10  A    between atoms: _29  and  _31
REMARK   11  A    between atoms: _31  and  _33
REMARK   12  A    between atoms: _33  and  _35
REMARK                            x       y       z     vdW  Elec       q    Type
REMARK                         _______ _______ _______ _____ _____    ______ ____
ROOT
ATOM      1  C   UNL     1      28.475  16.819  -0.596  0.00  0.00    +0.400 C 
ATOM      2  N   UNL     1      28.565  15.523  -0.144  0.00  0.00    -0.278 N 
ATOM      3  H   UNL     1      29.091  15.621   0.782  0.00  0.00    +0.152 HD
ATOM      4  O   UNL     1      28.807  17.723   0.166  0.00  0.00    -0.226 OA
ENDROOT
BRANCH   2   5
ATOM      5  C   UNL     1      28.260  14.110  -0.348  0.00  0.00    +0.152 C 
BRANCH   5   6
ATOM      6  C   UNL     1      28.113  13.255   0.927  0.00  0.00    +0.193 C 
ATOM      7  O   UNL     1      28.739  11.983   0.648  0.00  0.00    -0.219 OA
BRANCH   6   8
ATOM      8  C   UNL     1      28.814  13.756   2.209  0.00  0.00    +0.212 C 
ATOM      9  O   UNL     1      27.855  13.954   3.260  0.00  0.00    -0.218 OA
BRANCH   8  10
ATOM     10  C   UNL     1      29.938  12.781   2.729  0.00  0.00    +0.171 C 
ATOM     11  O   UNL     1      29.737  12.385   4.081  0.00  0.00    -0.343 OA
ATOM     12  C   UNL     1      30.693  11.730   4.862  0.00  0.00    +0.220 C 
ATOM     13  C   UNL     1      32.051  12.453   4.824  0.00  0.00    +0.076 C 
ATOM     14  C   UNL     1      32.436  12.637   3.347  0.00  0.00    +0.177 C 
ATOM     15  O   UNL     1      33.707  13.266   3.256  0.00  0.00    -0.221 OA
ATOM     16  C   UNL     1      31.340  13.462   2.604  0.00  0.00    +0.155 C 
BRANCH  16  17
ATOM     17  N   UNL     1      31.706  13.645   1.202  0.00  0.00    -0.202 NA
ATOM     18  C   UNL     1      31.832  14.788   0.480  0.00  0.00    +0.242 C 
ATOM     19  C   UNL     1      32.508  14.713  -0.865  0.00  0.00    +0.096 C 
ATOM     20  O   UNL     1      31.400  15.845   0.935  0.00  0.00    -0.273 OA
ENDBRANCH  16  17
BRANCH  12  21
ATOM     21  C   UNL     1      30.846  10.152   4.509  0.00  0.00    +0.391 C 
ATOM     22  O   UNL     1      31.900   9.734   5.236  0.00  0.00    -0.243 OA
ATOM     23  O   UNL     1      29.715   9.801   3.884  0.00  0.00    -0.243 OA
ENDBRANCH  12  21
ENDBRANCH   8  10
ENDBRANCH   6   8
ENDBRANCH   5   6
ENDBRANCH   2   5
BRANCH   1  24
ATOM     24  O   UNL     1      28.070  16.959  -1.816  0.00  0.00    -0.450 OA
BRANCH  24  25
ATOM     25  C   UNL     1      27.041  17.599  -2.532  0.00  0.00    +0.240 C 
BRANCH  25  26
ATOM     26  C   UNL     1      26.603  16.965  -3.866  0.00  0.00    +0.100 C 
BRANCH  26  28
ATOM     27  N   UNL     1      25.408  14.917  -4.562  0.00  0.00    -0.134 NA
ATOM     28  C   UNL     1      25.624  15.888  -3.628  0.00  0.00    +0.087 A 
ATOM     29  C   UNL     1      24.802  15.661  -2.550  0.00  0.00    +0.141 A 
ATOM     30  N   UNL     1      24.063  14.545  -2.893  0.00  0.00    -0.201 N 
ATOM     31  N   UNL     1      24.465  14.105  -4.104  0.00  0.00    -0.059 NA
BRANCH  30  32
ATOM     32  C   UNL     1      22.999  13.969  -2.138  0.00  0.00    +0.173 A 
ATOM     33  C   UNL     1      21.686  14.441  -2.215  0.00  0.00    +0.096 A 
ATOM     34  C   UNL     1      20.737  13.864  -1.356  0.00  0.00    +0.024 A 
ATOM     35  C   UNL     1      21.098  12.843  -0.483  0.00  0.00    +0.021 A 
ATOM     36  C   UNL     1      22.408  12.411  -0.499  0.00  0.00    +0.113 A 
ATOM     37  N   UNL     1      23.358  12.947  -1.295  0.00  0.00    -0.235 NA
BRANCH  33  38
ATOM     38  C   UNL     1      21.217  15.454  -3.113  0.00  0.00    +0.103 C 
ATOM     39  N   UNL     1      20.742  16.228  -3.837  0.00  0.00    -0.191 NA
ENDBRANCH  33  38
ENDBRANCH  30  32
ENDBRANCH  26  28
ENDBRANCH  25  26
ENDBRANCH  24  25
ENDBRANCH   1  24
TORSDOF 12
