REMARK VINA RESULT:    -7.209      2.039      3.255
REMARK INTER + INTRA:         -13.162
REMARK INTER:                 -11.310
REMARK INTRA:                  -1.852
REMARK UNBOUND:                -1.318
REMARK  Name = lig_assembled_40.pdb
REMARK  12 active torsions:
REMARK  status: ('A' for Active; 'I' for Inactive)
REMARK    1  A    between atoms: _2  and  _8
REMARK    2  A    between atoms: _5  and  _6
REMARK    3  A    between atoms: _5  and  _14
REMARK    4  A    between atoms: _11  and  _12
REMARK    5  A    between atoms: _14  and  _16
REMARK    6  A    between atoms: _15  and  _20
REMARK    7  A    between atoms: _16  and  _19
REMARK    8  A    between atoms: _24  and  _34
REMARK    9  A    between atoms: _26  and  _27
REMARK   10  A    between atoms: _28  and  _30
REMARK   11  A    between atoms: _30  and  _32
REMARK   12  A    between atoms: _32  and  _34
REMARK                            x       y       z     vdW  Elec       q    Type
REMARK                         _______ _______ _______ _____ _____    ______ ____
ROOT
ATOM      1  C   UNL     1      28.095  17.583  -0.720  0.00  0.00    +0.400 C 
ATOM      2  N   UNL     1      29.231  17.083  -0.128  0.00  0.00    -0.278 N 
ATOM      3  H   UNL     1      29.396  17.748   0.692  0.00  0.00    +0.152 HD
ATOM      4  O   UNL     1      27.477  18.466  -0.133  0.00  0.00    -0.226 OA
ENDROOT
BRANCH   1   5
ATOM      5  O   UNL     1      27.801  17.085  -1.876  0.00  0.00    -0.450 OA
BRANCH   5   6
ATOM      6  C   UNL     1      27.051  17.414  -3.022  0.00  0.00    +0.240 C 
BRANCH   6   7
ATOM      7  C   UNL     1      26.670  16.267  -3.977  0.00  0.00    +0.100 C 
BRANCH   7   9
ATOM      8  N   UNL     1      27.100  13.991  -3.102  0.00  0.00    -0.134 NA
ATOM      9  C   UNL     1      26.273  15.071  -3.210  0.00  0.00    +0.086 A 
ATOM     10  C   UNL     1      25.118  14.824  -2.507  0.00  0.00    +0.139 A 
ATOM     11  N   UNL     1      25.298  13.578  -1.950  0.00  0.00    -0.220 N 
ATOM     12  N   UNL     1      26.498  13.085  -2.344  0.00  0.00    -0.061 NA
BRANCH  11  13
ATOM     13  C   UNL     1      24.442  12.873  -1.066  0.00  0.00    +0.067 A 
ATOM     14  C   UNL     1      23.049  12.964  -1.189  0.00  0.00    +0.028 A 
ATOM     15  C   UNL     1      22.219  12.320  -0.267  0.00  0.00    +0.005 A 
ATOM     16  C   UNL     1      22.764  11.579   0.787  0.00  0.00    -0.050 A 
ATOM     17  C   UNL     1      24.155  11.459   0.887  0.00  0.00    +0.005 A 
ATOM     18  C   UNL     1      21.877  10.926   1.805  0.00  0.00    +0.044 C 
ATOM     19  C   UNL     1      24.992  12.101  -0.032  0.00  0.00    +0.028 A 
ENDBRANCH  11  13
ENDBRANCH   7   9
ENDBRANCH   6   7
ENDBRANCH   5   6
ENDBRANCH   1   5
BRANCH   2  20
ATOM     20  C   UNL     1      30.280  16.067  -0.109  0.00  0.00    +0.152 C 
BRANCH  20  21
ATOM     21  C   UNL     1      29.951  14.765   0.651  0.00  0.00    +0.193 C 
ATOM     22  O   UNL     1      28.918  14.094  -0.103  0.00  0.00    -0.219 OA
BRANCH  21  23
ATOM     23  C   UNL     1      31.074  13.713   0.787  0.00  0.00    +0.212 C 
ATOM     24  O   UNL     1      32.210  14.085  -0.012  0.00  0.00    -0.218 OA
BRANCH  23  25
ATOM     25  C   UNL     1      31.552  13.498   2.273  0.00  0.00    +0.171 C 
ATOM     26  O   UNL     1      32.943  13.207   2.365  0.00  0.00    -0.343 OA
ATOM     27  C   UNL     1      33.576  12.739   3.519  0.00  0.00    +0.220 C 
ATOM     28  C   UNL     1      32.843  11.525   4.118  0.00  0.00    +0.076 C 
ATOM     29  C   UNL     1      31.369  11.920   4.304  0.00  0.00    +0.177 C 
ATOM     30  O   UNL     1      30.653  10.845   4.894  0.00  0.00    -0.221 OA
ATOM     31  C   UNL     1      30.746  12.332   2.933  0.00  0.00    +0.155 C 
BRANCH  31  32
ATOM     32  N   UNL     1      29.344  12.701   3.104  0.00  0.00    -0.202 NA
ATOM     33  C   UNL     1      28.223  12.095   2.634  0.00  0.00    +0.242 C 
ATOM     34  C   UNL     1      26.892  12.514   3.202  0.00  0.00    +0.096 C 
ATOM     35  O   UNL     1      28.319  11.228   1.768  0.00  0.00    -0.273 OA
ENDBRANCH  31  32
BRANCH  27  36
ATOM     36  C   UNL     1      33.829  13.894   4.633  0.00  0.00    +0.391 C 
ATOM     37  O   UNL     1      33.829  13.244   5.813  0.00  0.00    -0.243 OA
ATOM     38  O   UNL     1      34.235  14.976   3.957  0.00  0.00    -0.243 OA
ENDBRANCH  27  36
ENDBRANCH  23  25
ENDBRANCH  21  23
ENDBRANCH  20  21
ENDBRANCH   2  20
TORSDOF 11
