REMARK VINA RESULT:    -6.493      1.983      3.820
REMARK INTER + INTRA:         -14.532
REMARK INTER:                 -12.588
REMARK INTRA:                  -1.943
REMARK UNBOUND:                -1.965
REMARK  Name = lig_assembled_11.pdb
REMARK  17 active torsions:
REMARK  status: ('A' for Active; 'I' for Inactive)
REMARK    1  A    between atoms: _2  and  _8
REMARK    2  A    between atoms: _4  and  _8
REMARK    3  A    between atoms: _4  and  _12
REMARK    4  A    between atoms: _5  and  _6
REMARK    5  A    between atoms: _5  and  _16
REMARK    6  A    between atoms: _8  and  _9
REMARK    7  A    between atoms: _9  and  _10
REMARK    8  A    between atoms: _10  and  _11
REMARK    9  A    between atoms: _11  and  _14
REMARK   10  A    between atoms: _16  and  _18
REMARK   11  A    between atoms: _17  and  _22
REMARK   12  A    between atoms: _18  and  _21
REMARK   13  A    between atoms: _26  and  _36
REMARK   14  A    between atoms: _28  and  _29
REMARK   15  A    between atoms: _30  and  _32
REMARK   16  A    between atoms: _32  and  _34
REMARK   17  A    between atoms: _34  and  _36
REMARK                            x       y       z     vdW  Elec       q    Type
REMARK                         _______ _______ _______ _____ _____    ______ ____
ROOT
ATOM      1  C   UNL     1      28.878  17.035  -0.451  0.00  0.00    +0.400 C 
ATOM      2  N   UNL     1      28.914  15.882   0.297  0.00  0.00    -0.278 N 
ATOM      3  H   UNL     1      29.583  16.125   1.094  0.00  0.00    +0.152 HD
ATOM      4  O   UNL     1      29.407  18.042   0.011  0.00  0.00    -0.226 OA
ENDROOT
BRANCH   1   5
ATOM      5  O   UNL     1      28.305  16.935  -1.605  0.00  0.00    -0.450 OA
BRANCH   5   6
ATOM      6  C   UNL     1      27.121  17.346  -2.249  0.00  0.00    +0.240 C 
BRANCH   6   7
ATOM      7  C   UNL     1      27.088  17.275  -3.788  0.00  0.00    +0.100 C 
BRANCH   7   9
ATOM      8  N   UNL     1      26.260  15.613  -5.425  0.00  0.00    -0.134 NA
ATOM      9  C   UNL     1      26.107  16.268  -4.235  0.00  0.00    +0.086 A 
ATOM     10  C   UNL     1      24.963  15.816  -3.618  0.00  0.00    +0.134 A 
ATOM     11  N   UNL     1      24.436  14.918  -4.500  0.00  0.00    -0.238 N 
ATOM     12  N   UNL     1      25.239  14.779  -5.573  0.00  0.00    -0.065 NA
BRANCH  11  13
ATOM     13  C   UNL     1      23.276  14.040  -4.378  0.00  0.00    +0.217 C 
BRANCH  13  14
ATOM     14  C   UNL     1      23.605  12.564  -4.536  0.00  0.00    +0.330 C 
ATOM     15  O   UNL     1      22.876  11.716  -5.028  0.00  0.00    -0.249 OA
BRANCH  14  16
ATOM     16  O   UNL     1      24.829  12.218  -4.062  0.00  0.00    -0.479 OA
ATOM     17  H   UNL     1      25.229  11.400  -4.418  0.00  0.00    +0.295 HD
ENDBRANCH  14  16
ENDBRANCH  13  14
BRANCH  13  18
ATOM     18  C   UNL     1      22.119  14.491  -5.288  0.00  0.00    +0.049 C 
BRANCH  18  19
ATOM     19  C   UNL     1      20.835  14.890  -4.549  0.00  0.00    +0.123 C 
BRANCH  19  20
ATOM     20  C   UNL     1      21.154  15.513  -3.208  0.00  0.00    +0.305 C 
ATOM     21  O   UNL     1      21.071  14.936  -2.136  0.00  0.00    -0.251 OA
BRANCH  20  22
ATOM     22  O   UNL     1      21.524  16.808  -3.312  0.00  0.00    -0.481 OA
ATOM     23  H   UNL     1      20.936  17.354  -3.867  0.00  0.00    +0.295 HD
ENDBRANCH  20  22
ENDBRANCH  19  20
ENDBRANCH  18  19
ENDBRANCH  13  18
ENDBRANCH  11  13
ENDBRANCH   7   9
ENDBRANCH   6   7
ENDBRANCH   5   6
ENDBRANCH   1   5
BRANCH   2  24
ATOM     24  C   UNL     1      28.449  14.511   0.495  0.00  0.00    +0.152 C 
BRANCH  24  25
ATOM     25  C   UNL     1      28.640  13.926   1.909  0.00  0.00    +0.193 C 
ATOM     26  O   UNL     1      27.403  13.264   2.255  0.00  0.00    -0.219 OA
BRANCH  25  27
ATOM     27  C   UNL     1      29.722  12.840   2.094  0.00  0.00    +0.212 C 
ATOM     28  O   UNL     1      29.339  11.630   1.422  0.00  0.00    -0.218 OA
BRANCH  27  29
ATOM     29  C   UNL     1      31.143  13.279   1.570  0.00  0.00    +0.171 C 
ATOM     30  O   UNL     1      31.279  13.122   0.161  0.00  0.00    -0.343 OA
ATOM     31  C   UNL     1      32.493  13.201  -0.527  0.00  0.00    +0.220 C 
ATOM     32  C   UNL     1      33.569  12.306   0.111  0.00  0.00    +0.076 C 
ATOM     33  C   UNL     1      33.647  12.668   1.604  0.00  0.00    +0.177 C 
ATOM     34  O   UNL     1      34.658  11.895   2.235  0.00  0.00    -0.221 OA
ATOM     35  C   UNL     1      32.259  12.448   2.283  0.00  0.00    +0.155 C 
BRANCH  35  36
ATOM     36  N   UNL     1      32.330  12.784   3.702  0.00  0.00    -0.202 NA
ATOM     37  C   UNL     1      32.066  12.016   4.790  0.00  0.00    +0.242 C 
ATOM     38  C   UNL     1      32.503  12.517   6.142  0.00  0.00    +0.096 C 
ATOM     39  O   UNL     1      31.485  10.942   4.649  0.00  0.00    -0.273 OA
ENDBRANCH  35  36
BRANCH  31  40
ATOM     40  C   UNL     1      33.024  14.723  -0.729  0.00  0.00    +0.391 C 
ATOM     41  O   UNL     1      34.319  14.596  -1.076  0.00  0.00    -0.243 OA
ATOM     42  O   UNL     1      31.930  15.493  -0.773  0.00  0.00    -0.243 OA
ENDBRANCH  31  40
ENDBRANCH  27  29
ENDBRANCH  25  27
ENDBRANCH  24  25
ENDBRANCH   2  24
TORSDOF 17
