REMARK VINA RESULT:    -6.471      2.270      3.035
REMARK INTER + INTRA:         -13.583
REMARK INTER:                 -11.275
REMARK INTRA:                  -2.308
REMARK UNBOUND:                -2.194
REMARK  Name = lig_assembled_14.pdb
REMARK  13 active torsions:
REMARK  status: ('A' for Active; 'I' for Inactive)
REMARK    1  A    between atoms: _2  and  _9
REMARK    2  A    between atoms: _3  and  _10
REMARK    3  A    between atoms: _6  and  _7
REMARK    4  A    between atoms: _6  and  _14
REMARK    5  A    between atoms: _9  and  _10
REMARK    6  A    between atoms: _14  and  _16
REMARK    7  A    between atoms: _15  and  _20
REMARK    8  A    between atoms: _16  and  _19
REMARK    9  A    between atoms: _24  and  _34
REMARK   10  A    between atoms: _26  and  _27
REMARK   11  A    between atoms: _28  and  _30
REMARK   12  A    between atoms: _30  and  _32
REMARK   13  A    between atoms: _32  and  _34
REMARK                            x       y       z     vdW  Elec       q    Type
REMARK                         _______ _______ _______ _____ _____    ______ ____
ROOT
ATOM      1  C   UNL     1      28.245  16.797  -0.697  0.00  0.00    +0.400 C 
ATOM      2  N   UNL     1      28.327  15.520  -0.194  0.00  0.00    -0.278 N 
ATOM      3  H   UNL     1      28.721  15.666   0.789  0.00  0.00    +0.152 HD
ATOM      4  O   UNL     1      28.436  17.736   0.072  0.00  0.00    -0.226 OA
ENDROOT
BRANCH   2   5
ATOM      5  C   UNL     1      28.110  14.089  -0.391  0.00  0.00    +0.152 C 
BRANCH   5   6
ATOM      6  C   UNL     1      28.015  13.234   0.890  0.00  0.00    +0.193 C 
ATOM      7  O   UNL     1      28.703  11.995   0.613  0.00  0.00    -0.219 OA
BRANCH   6   8
ATOM      8  C   UNL     1      28.697  13.778   2.165  0.00  0.00    +0.212 C 
ATOM      9  O   UNL     1      27.727  13.985   3.204  0.00  0.00    -0.218 OA
BRANCH   8  10
ATOM     10  C   UNL     1      29.832  12.834   2.716  0.00  0.00    +0.171 C 
ATOM     11  O   UNL     1      29.607  12.436   4.065  0.00  0.00    -0.343 OA
ATOM     12  C   UNL     1      30.560  11.809   4.871  0.00  0.00    +0.220 C 
ATOM     13  C   UNL     1      31.899  12.567   4.866  0.00  0.00    +0.076 C 
ATOM     14  C   UNL     1      32.317  12.757   3.398  0.00  0.00    +0.177 C 
ATOM     15  O   UNL     1      33.573  13.418   3.337  0.00  0.00    -0.221 OA
ATOM     16  C   UNL     1      31.219  13.551   2.625  0.00  0.00    +0.155 C 
BRANCH  16  17
ATOM     17  N   UNL     1      31.616  13.739   1.232  0.00  0.00    -0.202 NA
ATOM     18  C   UNL     1      31.687  14.878   0.496  0.00  0.00    +0.242 C 
ATOM     19  C   UNL     1      32.408  14.831  -0.826  0.00  0.00    +0.096 C 
ATOM     20  O   UNL     1      31.169  15.909   0.921  0.00  0.00    -0.273 OA
ENDBRANCH  16  17
BRANCH  12  21
ATOM     21  C   UNL     1      30.763  10.235   4.528  0.00  0.00    +0.391 C 
ATOM     22  O   UNL     1      31.861   9.867   5.218  0.00  0.00    -0.243 OA
ATOM     23  O   UNL     1      29.624   9.832   3.951  0.00  0.00    -0.243 OA
ENDBRANCH  12  21
ENDBRANCH   8  10
ENDBRANCH   6   8
ENDBRANCH   5   6
ENDBRANCH   2   5
BRANCH   1  24
ATOM     24  O   UNL     1      28.001  16.886  -1.963  0.00  0.00    -0.450 OA
BRANCH  24  25
ATOM     25  C   UNL     1      27.045  17.451  -2.830  0.00  0.00    +0.240 C 
BRANCH  25  26
ATOM     26  C   UNL     1      26.596  16.609  -4.040  0.00  0.00    +0.100 C 
BRANCH  26  28
ATOM     27  N   UNL     1      26.878  14.155  -3.895  0.00  0.00    -0.134 NA
ATOM     28  C   UNL     1      26.147  15.275  -3.600  0.00  0.00    +0.086 A 
ATOM     29  C   UNL     1      25.024  14.907  -2.892  0.00  0.00    +0.133 A 
ATOM     30  N   UNL     1      25.123  13.553  -2.805  0.00  0.00    -0.250 N 
ATOM     31  N   UNL     1      26.242  13.103  -3.399  0.00  0.00    -0.065 NA
BRANCH  30  32
ATOM     32  C   UNL     1      24.180  12.622  -2.226  0.00  0.00    +0.160 C 
BRANCH  32  33
ATOM     33  C   UNL     1      22.927  12.463  -3.095  0.00  0.00    +0.107 C 
BRANCH  33  34
ATOM     34  N   UNL     1      21.675  12.579  -2.327  0.00  0.00    -0.301 NA
ATOM     35  C   UNL     1      21.844  13.284  -1.053  0.00  0.00    +0.084 C 
ATOM     36  C   UNL     1      20.418  13.631  -0.678  0.00  0.00    +0.017 C 
ATOM     37  C   UNL     1      19.771  13.984  -2.005  0.00  0.00    +0.017 C 
ATOM     38  C   UNL     1      20.649  13.328  -3.067  0.00  0.00    +0.084 C 
ENDBRANCH  33  34
ENDBRANCH  32  33
ENDBRANCH  30  32
ENDBRANCH  26  28
ENDBRANCH  25  26
ENDBRANCH  24  25
ENDBRANCH   1  24
TORSDOF 13
