REMARK VINA RESULT:    -6.790      2.406      3.736
REMARK INTER + INTRA:         -13.348
REMARK INTER:                 -11.569
REMARK INTRA:                  -1.779
REMARK UNBOUND:                -2.191
REMARK  Name = lig_assembled_93.pdb
REMARK  11 active torsions:
REMARK  status: ('A' for Active; 'I' for Inactive)
REMARK    1  A    between atoms: _2  and  _8
REMARK    2  A    between atoms: _5  and  _6
REMARK    3  A    between atoms: _5  and  _13
REMARK    4  A    between atoms: _13  and  _15
REMARK    5  A    between atoms: _14  and  _19
REMARK    6  A    between atoms: _15  and  _18
REMARK    7  A    between atoms: _23  and  _33
REMARK    8  A    between atoms: _25  and  _26
REMARK    9  A    between atoms: _27  and  _29
REMARK   10  A    between atoms: _29  and  _31
REMARK   11  A    between atoms: _31  and  _33
REMARK                            x       y       z     vdW  Elec       q    Type
REMARK                         _______ _______ _______ _____ _____    ______ ____
ROOT
ATOM      1  C   UNL     1      27.707  17.334  -1.254  0.00  0.00    +0.400 C 
ATOM      2  N   UNL     1      28.060  16.066  -0.857  0.00  0.00    -0.278 N 
ATOM      3  H   UNL     1      28.362  16.200   0.159  0.00  0.00    +0.152 HD
ATOM      4  O   UNL     1      27.637  18.211  -0.397  0.00  0.00    -0.226 OA
ENDROOT
BRANCH   1   5
ATOM      5  O   UNL     1      27.510  17.489  -2.522  0.00  0.00    -0.450 OA
BRANCH   5   6
ATOM      6  C   UNL     1      26.454  17.436  -3.453  0.00  0.00    +0.240 C 
BRANCH   6   7
ATOM      7  C   UNL     1      26.344  16.175  -4.332  0.00  0.00    +0.100 C 
BRANCH   7   9
ATOM      8  N   UNL     1      24.396  14.740  -4.813  0.00  0.00    -0.134 NA
ATOM      9  C   UNL     1      25.198  15.353  -3.904  0.00  0.00    +0.086 A 
ATOM     10  C   UNL     1      24.745  15.054  -2.639  0.00  0.00    +0.139 A 
ATOM     11  N   UNL     1      23.651  14.224  -2.822  0.00  0.00    -0.219 N 
ATOM     12  N   UNL     1      23.466  14.068  -4.151  0.00  0.00    -0.061 NA
BRANCH  11  13
ATOM     13  C   UNL     1      22.836  13.603  -1.823  0.00  0.00    +0.080 A 
ATOM     14  C   UNL     1      21.476  13.991  -1.754  0.00  0.00    +0.029 A 
ATOM     15  C   UNL     1      20.605  13.455  -0.801  0.00  0.00    +0.002 A 
ATOM     16  C   UNL     1      21.067  12.520   0.110  0.00  0.00    +0.001 A 
ATOM     17  C   UNL     1      22.399  12.116   0.062  0.00  0.00    +0.016 A 
ATOM     18  C   UNL     1      23.292  12.644  -0.895  0.00  0.00    +0.039 A 
ATOM     19  I   UNL     1      25.238  11.830  -0.716  0.00  0.00    -0.042 I 
ENDBRANCH  11  13
ENDBRANCH   7   9
ENDBRANCH   6   7
ENDBRANCH   5   6
ENDBRANCH   1   5
BRANCH   2  20
ATOM     20  C   UNL     1      28.192  14.650  -1.189  0.00  0.00    +0.152 C 
BRANCH  20  21
ATOM     21  C   UNL     1      29.361  13.900  -0.519  0.00  0.00    +0.193 C 
ATOM     22  O   UNL     1      30.563  14.636  -0.836  0.00  0.00    -0.219 OA
BRANCH  21  23
ATOM     23  C   UNL     1      29.361  13.809   1.023  0.00  0.00    +0.212 C 
ATOM     24  O   UNL     1      28.139  14.343   1.558  0.00  0.00    -0.218 OA
BRANCH  23  25
ATOM     25  C   UNL     1      29.547  12.339   1.562  0.00  0.00    +0.171 C 
ATOM     26  O   UNL     1      28.357  11.814   2.142  0.00  0.00    -0.343 OA
ATOM     27  C   UNL     1      28.302  10.646   2.906  0.00  0.00    +0.220 C 
ATOM     28  C   UNL     1      29.361  10.643   4.022  0.00  0.00    +0.076 C 
ATOM     29  C   UNL     1      30.723  10.924   3.367  0.00  0.00    +0.177 C 
ATOM     30  O   UNL     1      31.746  10.893   4.352  0.00  0.00    -0.221 OA
ATOM     31  C   UNL     1      30.691  12.298   2.628  0.00  0.00    +0.155 C 
BRANCH  31  32
ATOM     32  N   UNL     1      31.986  12.572   2.010  0.00  0.00    -0.202 NA
ATOM     33  C   UNL     1      32.857  13.588   2.236  0.00  0.00    +0.242 C 
ATOM     34  C   UNL     1      34.251  13.473   1.677  0.00  0.00    +0.096 C 
ATOM     35  O   UNL     1      32.493  14.567   2.886  0.00  0.00    -0.273 OA
ENDBRANCH  31  32
BRANCH  27  36
ATOM     36  C   UNL     1      28.368   9.288   2.016  0.00  0.00    +0.391 C 
ATOM     37  O   UNL     1      28.320   9.708   0.737  0.00  0.00    -0.243 OA
ATOM     38  O   UNL     1      28.743   8.314   2.855  0.00  0.00    -0.243 OA
ENDBRANCH  27  36
ENDBRANCH  23  25
ENDBRANCH  21  23
ENDBRANCH  20  21
ENDBRANCH   2  20
TORSDOF 11
