REMARK VINA RESULT:    -7.197      1.610      2.504
REMARK INTER + INTRA:         -13.493
REMARK INTER:                 -12.087
REMARK INTRA:                  -1.407
REMARK UNBOUND:                -1.669
REMARK  Name = lig_assembled_70.pdb
REMARK  11 active torsions:
REMARK  status: ('A' for Active; 'I' for Inactive)
REMARK    1  A    between atoms: _2  and  _9
REMARK    2  A    between atoms: _6  and  _7
REMARK    3  A    between atoms: _6  and  _17
REMARK    4  A    between atoms: _17  and  _19
REMARK    5  A    between atoms: _18  and  _23
REMARK    6  A    between atoms: _19  and  _22
REMARK    7  A    between atoms: _27  and  _37
REMARK    8  A    between atoms: _29  and  _30
REMARK    9  A    between atoms: _31  and  _33
REMARK   10  A    between atoms: _33  and  _35
REMARK   11  A    between atoms: _35  and  _37
REMARK                            x       y       z     vdW  Elec       q    Type
REMARK                         _______ _______ _______ _____ _____    ______ ____
ROOT
ATOM      1  C   UNL     1      27.810  17.429  -0.993  0.00  0.00    +0.400 C 
ATOM      2  N   UNL     1      28.415  16.505  -0.174  0.00  0.00    -0.278 N 
ATOM      3  H   UNL     1      28.607  17.056   0.721  0.00  0.00    +0.152 HD
ATOM      4  O   UNL     1      27.484  18.509  -0.507  0.00  0.00    -0.226 OA
ENDROOT
BRANCH   1   5
ATOM      5  O   UNL     1      27.670  17.076  -2.229  0.00  0.00    -0.450 OA
BRANCH   5   6
ATOM      6  C   UNL     1      26.849  17.365  -3.336  0.00  0.00    +0.240 C 
BRANCH   6   7
ATOM      7  C   UNL     1      26.519  16.208  -4.298  0.00  0.00    +0.100 C 
BRANCH   7   9
ATOM      8  N   UNL     1      24.399  14.939  -4.499  0.00  0.00    -0.134 NA
ATOM      9  C   UNL     1      25.451  15.359  -3.738  0.00  0.00    +0.086 A 
ATOM     10  C   UNL     1      25.308  14.863  -2.464  0.00  0.00    +0.140 A 
ATOM     11  N   UNL     1      24.147  14.126  -2.496  0.00  0.00    -0.218 N 
ATOM     12  N   UNL     1      23.608  14.196  -3.735  0.00  0.00    -0.060 NA
BRANCH  11  13
ATOM     13  C   UNL     1      23.561  13.370  -1.460  0.00  0.00    +0.086 A 
ATOM     14  C   UNL     1      22.183  13.304  -1.331  0.00  0.00    +0.139 A 
ATOM     15  N   UNL     1      21.551  12.560  -0.387  0.00  0.00    -0.253 NA
ATOM     16  C   UNL     1      22.304  11.841   0.467  0.00  0.00    +0.071 A 
ATOM     17  C   UNL     1      23.714  11.860   0.421  0.00  0.00    +0.002 A 
ATOM     18  C   UNL     1      24.466  11.095   1.330  0.00  0.00    +0.010 A 
ATOM     19  C   UNL     1      23.828  10.294   2.271  0.00  0.00    +0.001 A 
ATOM     20  C   UNL     1      22.440  10.263   2.316  0.00  0.00    +0.002 A 
ATOM     21  C   UNL     1      21.694  11.039   1.422  0.00  0.00    +0.028 A 
ATOM     22  C   UNL     1      24.337  12.647  -0.554  0.00  0.00    +0.039 A 
ENDBRANCH  11  13
ENDBRANCH   7   9
ENDBRANCH   6   7
ENDBRANCH   5   6
ENDBRANCH   1   5
BRANCH   2  23
ATOM     23  C   UNL     1      28.887  15.137   0.022  0.00  0.00    +0.152 C 
BRANCH  23  24
ATOM     24  C   UNL     1      30.383  14.888  -0.256  0.00  0.00    +0.193 C 
ATOM     25  O   UNL     1      30.995  16.185  -0.430  0.00  0.00    -0.219 OA
BRANCH  24  26
ATOM     26  C   UNL     1      31.215  14.217   0.859  0.00  0.00    +0.212 C 
ATOM     27  O   UNL     1      30.401  13.305   1.613  0.00  0.00    -0.218 OA
BRANCH  26  28
ATOM     28  C   UNL     1      32.473  13.437   0.316  0.00  0.00    +0.171 C 
ATOM     29  O   UNL     1      33.639  14.253   0.255  0.00  0.00    -0.343 OA
ATOM     30  C   UNL     1      34.817  13.897  -0.405  0.00  0.00    +0.220 C 
ATOM     31  C   UNL     1      34.544  13.431  -1.846  0.00  0.00    +0.076 C 
ATOM     32  C   UNL     1      33.478  12.325  -1.781  0.00  0.00    +0.177 C 
ATOM     33  O   UNL     1      33.217  11.830  -3.087  0.00  0.00    -0.221 OA
ATOM     34  C   UNL     1      32.179  12.869  -1.111  0.00  0.00    +0.155 C 
BRANCH  34  35
ATOM     35  N   UNL     1      31.161  11.823  -1.054  0.00  0.00    -0.202 NA
ATOM     36  C   UNL     1      30.112  11.586  -1.882  0.00  0.00    +0.242 C 
ATOM     37  C   UNL     1      29.392  10.268  -1.765  0.00  0.00    +0.096 C 
ATOM     38  O   UNL     1      29.780  12.441  -2.701  0.00  0.00    -0.273 OA
ENDBRANCH  34  35
BRANCH  30  39
ATOM     39  C   UNL     1      35.715  12.817   0.411  0.00  0.00    +0.391 C 
ATOM     40  O   UNL     1      36.615  12.366  -0.485  0.00  0.00    -0.243 OA
ATOM     41  O   UNL     1      35.430  13.001   1.705  0.00  0.00    -0.243 OA
ENDBRANCH  30  39
ENDBRANCH  26  28
ENDBRANCH  24  26
ENDBRANCH  23  24
ENDBRANCH   2  23
TORSDOF 11
