REMARK VINA RESULT:    -6.203     23.207     25.604
REMARK INTER + INTRA:         -11.881
REMARK INTER:                  -9.905
REMARK INTRA:                  -1.976
REMARK UNBOUND:                -1.689
REMARK  Name = lig_assembled_49.pdb
REMARK  11 active torsions:
REMARK  status: ('A' for Active; 'I' for Inactive)
REMARK    1  A    between atoms: _2  and  _8
REMARK    2  A    between atoms: _5  and  _6
REMARK    3  A    between atoms: _5  and  _12
REMARK    4  A    between atoms: _12  and  _14
REMARK    5  A    between atoms: _13  and  _18
REMARK    6  A    between atoms: _14  and  _17
REMARK    7  A    between atoms: _22  and  _32
REMARK    8  A    between atoms: _24  and  _25
REMARK    9  A    between atoms: _26  and  _28
REMARK   10  A    between atoms: _28  and  _30
REMARK   11  A    between atoms: _30  and  _32
REMARK                            x       y       z     vdW  Elec       q    Type
REMARK                         _______ _______ _______ _____ _____    ______ ____
ROOT
ATOM      1  C   UNL     1      35.431  41.336   5.692  0.00  0.00    +0.152 C 
ENDROOT
BRANCH   1   3
ATOM      2  C   UNL     1      32.904  40.522   5.062  0.00  0.00    +0.400 C 
ATOM      3  N   UNL     1      34.248  40.807   5.018  0.00  0.00    -0.278 N 
ATOM      4  H   UNL     1      34.532  40.508   4.032  0.00  0.00    +0.152 HD
ATOM      5  O   UNL     1      32.344  40.204   4.016  0.00  0.00    -0.226 OA
BRANCH   2   6
ATOM      6  O   UNL     1      32.356  40.589   6.231  0.00  0.00    -0.450 OA
BRANCH   6   7
ATOM      7  C   UNL     1      32.206  39.799   7.387  0.00  0.00    +0.240 C 
BRANCH   7   8
ATOM      8  C   UNL     1      30.805  39.727   8.023  0.00  0.00    +0.100 C 
BRANCH   8  10
ATOM      9  N   UNL     1      29.862  38.183   6.336  0.00  0.00    -0.134 NA
ATOM     10  C   UNL     1      30.135  38.468   7.648  0.00  0.00    +0.086 A 
ATOM     11  C   UNL     1      29.684  37.434   8.437  0.00  0.00    +0.134 A 
ATOM     12  N   UNL     1      29.141  36.553   7.546  0.00  0.00    -0.248 N 
ATOM     13  N   UNL     1      29.252  37.007   6.286  0.00  0.00    -0.065 NA
BRANCH  12  14
ATOM     14  C   UNL     1      28.492  35.297   7.833  0.00  0.00    +0.109 C 
ATOM     15  C   UNL     1      28.835  34.722   9.208  0.00  0.00    +0.027 C 
ATOM     16  C   UNL     1      27.733  33.700   9.433  0.00  0.00    +0.002 C 
ATOM     17  C   UNL     1      26.482  34.374   8.885  0.00  0.00    +0.002 C 
ATOM     18  C   UNL     1      26.958  35.354   7.810  0.00  0.00    +0.027 C 
ENDBRANCH  12  14
ENDBRANCH   8  10
ENDBRANCH   7   8
ENDBRANCH   6   7
ENDBRANCH   2   6
ENDBRANCH   1   3
BRANCH   1  19
ATOM     19  C   UNL     1      36.345  40.298   6.375  0.00  0.00    +0.193 C 
ATOM     20  O   UNL     1      35.713  39.946   7.625  0.00  0.00    -0.219 OA
BRANCH  19  21
ATOM     21  C   UNL     1      36.555  38.947   5.656  0.00  0.00    +0.212 C 
ATOM     22  O   UNL     1      35.467  38.053   5.942  0.00  0.00    -0.218 OA
BRANCH  21  23
ATOM     23  C   UNL     1      36.694  39.088   4.092  0.00  0.00    +0.171 C 
ATOM     24  O   UNL     1      35.477  38.809   3.406  0.00  0.00    -0.343 OA
ATOM     25  C   UNL     1      35.375  38.622   2.026  0.00  0.00    +0.220 C 
ATOM     26  C   UNL     1      36.400  37.596   1.512  0.00  0.00    +0.076 C 
ATOM     27  C   UNL     1      37.787  38.043   2.004  0.00  0.00    +0.177 C 
ATOM     28  O   UNL     1      38.780  37.148   1.522  0.00  0.00    -0.221 OA
ATOM     29  C   UNL     1      37.805  38.123   3.562  0.00  0.00    +0.155 C 
BRANCH  29  30
ATOM     30  N   UNL     1      39.123  38.540   4.034  0.00  0.00    -0.202 NA
ATOM     31  C   UNL     1      40.166  37.789   4.470  0.00  0.00    +0.242 C 
ATOM     32  C   UNL     1      41.511  38.451   4.618  0.00  0.00    +0.096 C 
ATOM     33  O   UNL     1      39.992  36.600   4.729  0.00  0.00    -0.273 OA
ENDBRANCH  29  30
BRANCH  25  34
ATOM     34  C   UNL     1      35.439  40.006   1.178  0.00  0.00    +0.391 C 
ATOM     35  O   UNL     1      35.738  39.630  -0.080  0.00  0.00    -0.243 OA
ATOM     36  O   UNL     1      34.886  40.944   1.959  0.00  0.00    -0.243 OA
ENDBRANCH  25  34
ENDBRANCH  21  23
ENDBRANCH  19  21
ENDBRANCH   1  19
TORSDOF 11
