REMARK VINA RESULT:    -6.961      1.829      3.607
REMARK INTER + INTRA:         -14.453
REMARK INTER:                 -12.741
REMARK INTRA:                  -1.712
REMARK UNBOUND:                -1.794
REMARK  Name = lig_assembled_18.pdb
REMARK  14 active torsions:
REMARK  status: ('A' for Active; 'I' for Inactive)
REMARK    1  A    between atoms: _2  and  _9
REMARK    2  A    between atoms: _3  and  _11
REMARK    3  A    between atoms: _6  and  _7
REMARK    4  A    between atoms: _6  and  _16
REMARK    5  A    between atoms: _9  and  _10
REMARK    6  A    between atoms: _11  and  _12
REMARK    7  A    between atoms: _16  and  _18
REMARK    8  A    between atoms: _17  and  _22
REMARK    9  A    between atoms: _18  and  _21
REMARK   10  A    between atoms: _26  and  _36
REMARK   11  A    between atoms: _28  and  _29
REMARK   12  A    between atoms: _30  and  _32
REMARK   13  A    between atoms: _32  and  _34
REMARK   14  A    between atoms: _34  and  _36
REMARK                            x       y       z     vdW  Elec       q    Type
REMARK                         _______ _______ _______ _____ _____    ______ ____
ROOT
ATOM      1  C   UNL     1      28.483  17.196  -0.473  0.00  0.00    +0.400 C 
ATOM      2  N   UNL     1      29.620  16.757   0.164  0.00  0.00    -0.278 N 
ATOM      3  H   UNL     1      29.764  17.478   0.939  0.00  0.00    +0.152 HD
ATOM      4  O   UNL     1      27.843  18.105   0.048  0.00  0.00    -0.226 OA
ENDROOT
BRANCH   2   5
ATOM      5  C   UNL     1      30.686  15.763   0.261  0.00  0.00    +0.152 C 
BRANCH   5   6
ATOM      6  C   UNL     1      30.422  14.575   1.209  0.00  0.00    +0.193 C 
ATOM      7  O   UNL     1      28.989  14.414   1.284  0.00  0.00    -0.219 OA
BRANCH   6   8
ATOM      8  C   UNL     1      30.944  13.186   0.777  0.00  0.00    +0.212 C 
ATOM      9  O   UNL     1      29.972  12.518  -0.044  0.00  0.00    -0.218 OA
BRANCH   8  10
ATOM     10  C   UNL     1      32.309  13.249  -0.009  0.00  0.00    +0.171 C 
ATOM     11  O   UNL     1      32.308  12.432  -1.175  0.00  0.00    -0.343 OA
ATOM     12  C   UNL     1      33.449  12.111  -1.914  0.00  0.00    +0.220 C 
ATOM     13  C   UNL     1      34.578  11.575  -1.016  0.00  0.00    +0.076 C 
ATOM     14  C   UNL     1      34.801  12.600   0.109  0.00  0.00    +0.177 C 
ATOM     15  O   UNL     1      35.865  12.171   0.947  0.00  0.00    -0.221 OA
ATOM     16  C   UNL     1      33.485  12.802   0.921  0.00  0.00    +0.155 C 
BRANCH  16  17
ATOM     17  N   UNL     1      33.694  13.770   1.995  0.00  0.00    -0.202 NA
ATOM     18  C   UNL     1      33.586  13.613   3.338  0.00  0.00    +0.242 C 
ATOM     19  C   UNL     1      34.144  14.690   4.232  0.00  0.00    +0.096 C 
ATOM     20  O   UNL     1      33.043  12.607   3.791  0.00  0.00    -0.273 OA
ENDBRANCH  16  17
BRANCH  12  21
ATOM     21  C   UNL     1      33.967  13.323  -2.863  0.00  0.00    +0.391 C 
ATOM     22  O   UNL     1      35.271  13.063  -3.080  0.00  0.00    -0.243 OA
ATOM     23  O   UNL     1      32.866  13.939  -3.311  0.00  0.00    -0.243 OA
ENDBRANCH  12  21
ENDBRANCH   8  10
ENDBRANCH   6   8
ENDBRANCH   5   6
ENDBRANCH   2   5
BRANCH   1  24
ATOM     24  O   UNL     1      28.211  16.617  -1.596  0.00  0.00    -0.450 OA
BRANCH  24  25
ATOM     25  C   UNL     1      27.109  16.399  -2.446  0.00  0.00    +0.240 C 
BRANCH  25  26
ATOM     26  C   UNL     1      26.759  14.940  -2.796  0.00  0.00    +0.100 C 
BRANCH  26  28
ATOM     27  N   UNL     1      24.740  13.582  -3.274  0.00  0.00    -0.134 NA
ATOM     28  C   UNL     1      25.311  14.807  -3.046  0.00  0.00    +0.086 A 
ATOM     29  C   UNL     1      24.334  15.774  -3.101  0.00  0.00    +0.134 A 
ATOM     30  N   UNL     1      23.188  15.075  -3.336  0.00  0.00    -0.243 N 
ATOM     31  N   UNL     1      23.438  13.759  -3.462  0.00  0.00    -0.065 NA
BRANCH  30  32
ATOM     32  C   UNL     1      21.855  15.580  -3.571  0.00  0.00    +0.240 C 
BRANCH  32  33
ATOM     33  C   UNL     1      20.812  14.834  -2.773  0.00  0.00    +0.235 C 
ATOM     34  O   UNL     1      19.694  14.587  -3.223  0.00  0.00    -0.274 OA
ATOM     35  N   UNL     1      21.224  14.401  -1.528  0.00  0.00    -0.309 N 
ATOM     36  H   UNL     1      22.078  14.758  -1.122  0.00  0.00    +0.149 HD
BRANCH  35  37
ATOM     37  C   UNL     1      20.339  13.659  -0.654  0.00  0.00    +0.146 C 
BRANCH  37  38
ATOM     38  C   UNL     1      21.042  12.445  -0.140  0.00  0.00    +0.007 A 
ATOM     39  S   UNL     1      21.614  11.244  -1.219  0.00  0.00    -0.100 S 
ATOM     40  C   UNL     1      22.175  10.264   0.066  0.00  0.00    +0.045 A 
ATOM     41  C   UNL     1      21.947  10.842   1.296  0.00  0.00    +0.008 A 
ATOM     42  C   UNL     1      21.299  12.106   1.176  0.00  0.00    +0.013 A 
ENDBRANCH  37  38
ENDBRANCH  35  37
ENDBRANCH  32  33
ENDBRANCH  30  32
ENDBRANCH  26  28
ENDBRANCH  25  26
ENDBRANCH  24  25
ENDBRANCH   1  24
TORSDOF 14
