REMARK VINA RESULT:    -6.684      1.020      2.326
REMARK INTER + INTRA:         -14.902
REMARK INTER:                 -13.107
REMARK INTRA:                  -1.795
REMARK UNBOUND:                -1.965
REMARK  Name = lig_assembled_11.pdb
REMARK  17 active torsions:
REMARK  status: ('A' for Active; 'I' for Inactive)
REMARK    1  A    between atoms: _2  and  _8
REMARK    2  A    between atoms: _4  and  _8
REMARK    3  A    between atoms: _4  and  _12
REMARK    4  A    between atoms: _5  and  _6
REMARK    5  A    between atoms: _5  and  _16
REMARK    6  A    between atoms: _8  and  _9
REMARK    7  A    between atoms: _9  and  _10
REMARK    8  A    between atoms: _10  and  _11
REMARK    9  A    between atoms: _11  and  _14
REMARK   10  A    between atoms: _16  and  _18
REMARK   11  A    between atoms: _17  and  _22
REMARK   12  A    between atoms: _18  and  _21
REMARK   13  A    between atoms: _26  and  _36
REMARK   14  A    between atoms: _28  and  _29
REMARK   15  A    between atoms: _30  and  _32
REMARK   16  A    between atoms: _32  and  _34
REMARK   17  A    between atoms: _34  and  _36
REMARK                            x       y       z     vdW  Elec       q    Type
REMARK                         _______ _______ _______ _____ _____    ______ ____
ROOT
ATOM      1  C   UNL     1      28.061  17.082  -0.608  0.00  0.00    +0.400 C 
ATOM      2  N   UNL     1      28.567  16.129   0.244  0.00  0.00    -0.278 N 
ATOM      3  H   UNL     1      29.014  16.707   1.024  0.00  0.00    +0.152 HD
ATOM      4  O   UNL     1      28.061  18.252  -0.234  0.00  0.00    -0.226 OA
ENDROOT
BRANCH   1   5
ATOM      5  O   UNL     1      27.655  16.647  -1.756  0.00  0.00    -0.450 OA
BRANCH   5   6
ATOM      6  C   UNL     1      26.911  17.095  -2.865  0.00  0.00    +0.240 C 
BRANCH   6   7
ATOM      7  C   UNL     1      26.644  16.084  -3.996  0.00  0.00    +0.100 C 
BRANCH   7   9
ATOM      8  N   UNL     1      24.723  14.816  -4.907  0.00  0.00    -0.134 NA
ATOM      9  C   UNL     1      25.276  15.543  -3.890  0.00  0.00    +0.086 A 
ATOM     10  C   UNL     1      24.368  15.634  -2.859  0.00  0.00    +0.134 A 
ATOM     11  N   UNL     1      23.264  14.982  -3.324  0.00  0.00    -0.238 N 
ATOM     12  N   UNL     1      23.496  14.466  -4.546  0.00  0.00    -0.065 NA
BRANCH  11  13
ATOM     13  C   UNL     1      22.003  14.664  -2.660  0.00  0.00    +0.217 C 
BRANCH  13  14
ATOM     14  C   UNL     1      22.053  13.393  -1.825  0.00  0.00    +0.330 C 
ATOM     15  O   UNL     1      23.066  12.816  -1.460  0.00  0.00    -0.249 OA
BRANCH  14  16
ATOM     16  O   UNL     1      20.832  12.902  -1.495  0.00  0.00    -0.479 OA
ATOM     17  H   UNL     1      20.179  13.535  -1.137  0.00  0.00    +0.295 HD
ENDBRANCH  14  16
ENDBRANCH  13  14
BRANCH  13  18
ATOM     18  C   UNL     1      20.817  14.682  -3.642  0.00  0.00    +0.049 C 
BRANCH  18  19
ATOM     19  C   UNL     1      19.862  15.871  -3.478  0.00  0.00    +0.123 C 
BRANCH  19  20
ATOM     20  C   UNL     1      20.369  17.081  -4.229  0.00  0.00    +0.305 C 
ATOM     21  O   UNL     1      20.032  17.389  -5.361  0.00  0.00    -0.251 OA
BRANCH  20  22
ATOM     22  O   UNL     1      21.272  17.793  -3.520  0.00  0.00    -0.481 OA
ATOM     23  H   UNL     1      21.582  17.356  -2.704  0.00  0.00    +0.295 HD
ENDBRANCH  20  22
ENDBRANCH  19  20
ENDBRANCH  18  19
ENDBRANCH  13  18
ENDBRANCH  11  13
ENDBRANCH   7   9
ENDBRANCH   6   7
ENDBRANCH   5   6
ENDBRANCH   1   5
BRANCH   2  24
ATOM     24  C   UNL     1      28.751  14.715   0.562  0.00  0.00    +0.152 C 
BRANCH  24  25
ATOM     25  C   UNL     1      30.118  14.106   0.187  0.00  0.00    +0.193 C 
ATOM     26  O   UNL     1      30.195  14.116  -1.256  0.00  0.00    -0.219 OA
BRANCH  25  27
ATOM     27  C   UNL     1      31.386  14.859   0.646  0.00  0.00    +0.212 C 
ATOM     28  O   UNL     1      31.037  15.941   1.525  0.00  0.00    -0.218 OA
BRANCH  27  29
ATOM     29  C   UNL     1      32.432  13.933   1.376  0.00  0.00    +0.171 C 
ATOM     30  O   UNL     1      32.777  14.412   2.672  0.00  0.00    -0.343 OA
ATOM     31  C   UNL     1      33.846  13.931   3.431  0.00  0.00    +0.220 C 
ATOM     32  C   UNL     1      35.154  13.903   2.622  0.00  0.00    +0.076 C 
ATOM     33  C   UNL     1      34.879  13.124   1.325  0.00  0.00    +0.177 C 
ATOM     34  O   UNL     1      36.069  13.034   0.555  0.00  0.00    -0.221 OA
ATOM     35  C   UNL     1      33.733  13.811   0.518  0.00  0.00    +0.155 C 
BRANCH  35  36
ATOM     36  N   UNL     1      33.473  13.078  -0.718  0.00  0.00    -0.202 NA
ATOM     37  C   UNL     1      33.423  13.526  -1.999  0.00  0.00    +0.242 C 
ATOM     38  C   UNL     1      33.430  12.511  -3.112  0.00  0.00    +0.096 C 
ATOM     39  O   UNL     1      33.376  14.735  -2.218  0.00  0.00    -0.273 OA
ENDBRANCH  35  36
BRANCH  31  40
ATOM     40  C   UNL     1      33.547  12.496   4.133  0.00  0.00    +0.391 C 
ATOM     41  O   UNL     1      34.747  12.066   4.569  0.00  0.00    -0.243 OA
ATOM     42  O   UNL     1      32.218  12.426   4.280  0.00  0.00    -0.243 OA
ENDBRANCH  31  40
ENDBRANCH  27  29
ENDBRANCH  25  27
ENDBRANCH  24  25
ENDBRANCH   2  24
TORSDOF 17
