REMARK VINA RESULT:    -5.774      2.567     10.116
REMARK INTER + INTRA:         -14.300
REMARK INTER:                 -12.716
REMARK INTRA:                  -1.584
REMARK UNBOUND:                -2.957
REMARK  Name = lig_assembled_74.pdb
REMARK  19 active torsions:
REMARK  status: ('A' for Active; 'I' for Inactive)
REMARK    1  A    between atoms: _2  and  _8
REMARK    2  A    between atoms: _4  and  _13
REMARK    3  A    between atoms: _5  and  _6
REMARK    4  A    between atoms: _5  and  _17
REMARK    5  A    between atoms: _8  and  _9
REMARK    6  A    between atoms: _9  and  _10
REMARK    7  A    between atoms: _9  and  _12
REMARK    8  A    between atoms: _10  and  _11
REMARK    9  A    between atoms: _11  and  _15
REMARK   10  A    between atoms: _12  and  _13
REMARK   11  A    between atoms: _13  and  _14
REMARK   12  A    between atoms: _17  and  _19
REMARK   13  A    between atoms: _18  and  _23
REMARK   14  A    between atoms: _19  and  _22
REMARK   15  A    between atoms: _27  and  _37
REMARK   16  A    between atoms: _29  and  _30
REMARK   17  A    between atoms: _31  and  _33
REMARK   18  A    between atoms: _33  and  _35
REMARK   19  A    between atoms: _35  and  _37
REMARK                            x       y       z     vdW  Elec       q    Type
REMARK                         _______ _______ _______ _____ _____    ______ ____
ROOT
ATOM      1  C   UNL     1      27.865  17.441  -0.967  0.00  0.00    +0.400 C 
ATOM      2  N   UNL     1      26.973  16.691  -1.697  0.00  0.00    -0.278 N 
ATOM      3  H   UNL     1      26.037  17.175  -1.517  0.00  0.00    +0.152 HD
ATOM      4  O   UNL     1      27.471  18.497  -0.479  0.00  0.00    -0.226 OA
ENDROOT
BRANCH   1   5
ATOM      5  O   UNL     1      29.047  16.934  -0.837  0.00  0.00    -0.450 OA
BRANCH   5   6
ATOM      6  C   UNL     1      30.138  16.983   0.052  0.00  0.00    +0.240 C 
BRANCH   6   7
ATOM      7  C   UNL     1      31.167  15.839  -0.021  0.00  0.00    +0.100 C 
BRANCH   7   9
ATOM      8  N   UNL     1      30.048  13.929   1.104  0.00  0.00    -0.134 NA
ATOM      9  C   UNL     1      31.000  14.914   1.116  0.00  0.00    +0.086 A 
ATOM     10  C   UNL     1      31.749  14.799   2.268  0.00  0.00    +0.133 A 
ATOM     11  N   UNL     1      31.319  13.623   2.813  0.00  0.00    -0.251 N 
ATOM     12  N   UNL     1      30.235  13.157   2.165  0.00  0.00    -0.065 NA
BRANCH  11  13
ATOM     13  C   UNL     1      32.063  12.754   3.704  0.00  0.00    +0.149 C 
BRANCH  13  14
ATOM     14  C   UNL     1      33.409  13.315   4.213  0.00  0.00    +0.021 C 
BRANCH  14  15
ATOM     15  C   UNL     1      34.638  12.643   3.566  0.00  0.00    +0.125 C 
BRANCH  15  16
ATOM     16  C   UNL     1      35.315  13.462   2.488  0.00  0.00    +0.305 C 
ATOM     17  O   UNL     1      34.830  13.721   1.399  0.00  0.00    -0.251 OA
BRANCH  16  18
ATOM     18  O   UNL     1      36.510  13.950   2.870  0.00  0.00    -0.481 OA
ATOM     19  H   UNL     1      36.868  14.665   2.315  0.00  0.00    +0.295 HD
ENDBRANCH  16  18
ENDBRANCH  15  16
ENDBRANCH  14  15
BRANCH  14  20
ATOM     20  C   UNL     1      33.431  13.256   5.768  0.00  0.00    +0.009 C 
BRANCH  20  21
ATOM     21  C   UNL     1      32.963  11.926   6.399  0.00  0.00    -0.017 C 
ATOM     22  C   UNL     1      34.128  11.121   6.980  0.00  0.00    +0.007 C 
ATOM     23  C   UNL     1      31.936  12.189   7.507  0.00  0.00    +0.007 C 
ENDBRANCH  20  21
ENDBRANCH  14  20
ENDBRANCH  13  14
ENDBRANCH  11  13
ENDBRANCH   7   9
ENDBRANCH   6   7
ENDBRANCH   5   6
ENDBRANCH   1   5
BRANCH   2  24
ATOM     24  C   UNL     1      26.739  15.566  -2.599  0.00  0.00    +0.152 C 
BRANCH  24  25
ATOM     25  C   UNL     1      25.713  15.801  -3.726  0.00  0.00    +0.193 C 
ATOM     26  O   UNL     1      26.469  16.080  -4.925  0.00  0.00    -0.219 OA
BRANCH  25  27
ATOM     27  C   UNL     1      24.796  14.620  -4.116  0.00  0.00    +0.212 C 
ATOM     28  O   UNL     1      25.536  13.630  -4.847  0.00  0.00    -0.218 OA
BRANCH  27  29
ATOM     29  C   UNL     1      24.112  13.925  -2.877  0.00  0.00    +0.171 C 
ATOM     30  O   UNL     1      24.733  12.692  -2.529  0.00  0.00    -0.343 OA
ATOM     31  C   UNL     1      24.192  11.760  -1.640  0.00  0.00    +0.220 C 
ATOM     32  C   UNL     1      22.732  11.422  -1.988  0.00  0.00    +0.076 C 
ATOM     33  C   UNL     1      21.960  12.748  -2.085  0.00  0.00    +0.177 C 
ATOM     34  O   UNL     1      20.592  12.489  -2.366  0.00  0.00    -0.221 OA
ATOM     35  C   UNL     1      22.599  13.664  -3.175  0.00  0.00    +0.155 C 
BRANCH  35  36
ATOM     36  N   UNL     1      21.864  14.922  -3.275  0.00  0.00    -0.202 NA
ATOM     37  C   UNL     1      21.165  15.438  -4.317  0.00  0.00    +0.242 C 
ATOM     38  C   UNL     1      20.258  16.613  -4.059  0.00  0.00    +0.096 C 
ATOM     39  O   UNL     1      21.286  14.941  -5.435  0.00  0.00    -0.273 OA
ENDBRANCH  35  36
BRANCH  31  40
ATOM     40  C   UNL     1      24.351  12.185  -0.080  0.00  0.00    +0.391 C 
ATOM     41  O   UNL     1      23.271  11.665   0.533  0.00  0.00    -0.243 OA
ATOM     42  O   UNL     1      25.611  12.617   0.059  0.00  0.00    -0.243 OA
ENDBRANCH  31  40
ENDBRANCH  27  29
ENDBRANCH  25  27
ENDBRANCH  24  25
ENDBRANCH   2  24
TORSDOF 17
