REMARK VINA RESULT:    -6.608      3.501      9.487
REMARK INTER + INTRA:         -13.387
REMARK INTER:                 -11.331
REMARK INTRA:                  -2.056
REMARK UNBOUND:                -2.144
REMARK  Name = lig_assembled_63.pdb
REMARK  12 active torsions:
REMARK  status: ('A' for Active; 'I' for Inactive)
REMARK    1  A    between atoms: _2  and  _10
REMARK    2  A    between atoms: _6  and  _14
REMARK    3  A    between atoms: _7  and  _8
REMARK    4  A    between atoms: _7  and  _15
REMARK    5  A    between atoms: _15  and  _17
REMARK    6  A    between atoms: _16  and  _21
REMARK    7  A    between atoms: _17  and  _20
REMARK    8  A    between atoms: _25  and  _35
REMARK    9  A    between atoms: _27  and  _28
REMARK   10  A    between atoms: _29  and  _31
REMARK   11  A    between atoms: _31  and  _33
REMARK   12  A    between atoms: _33  and  _35
REMARK                            x       y       z     vdW  Elec       q    Type
REMARK                         _______ _______ _______ _____ _____    ______ ____
ROOT
ATOM      1  C   UNL     1      27.988  17.848  -1.043  0.00  0.00    +0.400 C 
ATOM      2  N   UNL     1      27.200  17.666  -2.154  0.00  0.00    -0.278 N 
ATOM      3  H   UNL     1      26.240  18.009  -1.835  0.00  0.00    +0.152 HD
ATOM      4  O   UNL     1      27.519  18.476  -0.096  0.00  0.00    -0.226 OA
ENDROOT
BRANCH   2   5
ATOM      5  C   UNL     1      27.092  17.236  -3.546  0.00  0.00    +0.152 C 
BRANCH   5   6
ATOM      6  C   UNL     1      26.060  16.128  -3.837  0.00  0.00    +0.193 C 
ATOM      7  O   UNL     1      26.067  15.919  -5.267  0.00  0.00    -0.219 OA
BRANCH   6   8
ATOM      8  C   UNL     1      26.327  14.728  -3.242  0.00  0.00    +0.212 C 
ATOM      9  O   UNL     1      27.090  14.835  -2.029  0.00  0.00    -0.218 OA
BRANCH   8  10
ATOM     10  C   UNL     1      25.009  13.917  -2.938  0.00  0.00    +0.171 C 
ATOM     11  O   UNL     1      24.107  14.632  -2.101  0.00  0.00    -0.343 OA
ATOM     12  C   UNL     1      22.990  14.067  -1.482  0.00  0.00    +0.220 C 
ATOM     13  C   UNL     1      23.349  12.778  -0.723  0.00  0.00    +0.076 C 
ATOM     14  C   UNL     1      24.083  11.851  -1.706  0.00  0.00    +0.177 C 
ATOM     15  O   UNL     1      24.404  10.625  -1.065  0.00  0.00    -0.221 OA
ATOM     16  C   UNL     1      25.362  12.555  -2.256  0.00  0.00    +0.155 C 
BRANCH  16  17
ATOM     17  N   UNL     1      26.066  11.675  -3.185  0.00  0.00    -0.202 NA
ATOM     18  C   UNL     1      27.308  11.134  -3.096  0.00  0.00    +0.242 C 
ATOM     19  C   UNL     1      27.675  10.026  -4.050  0.00  0.00    +0.096 C 
ATOM     20  O   UNL     1      28.094  11.553  -2.249  0.00  0.00    -0.273 OA
ENDBRANCH  16  17
BRANCH  12  21
ATOM     21  C   UNL     1      21.738  13.835  -2.492  0.00  0.00    +0.391 C 
ATOM     22  O   UNL     1      20.902  13.014  -1.828  0.00  0.00    -0.243 OA
ATOM     23  O   UNL     1      21.860  14.762  -3.450  0.00  0.00    -0.243 OA
ENDBRANCH  12  21
ENDBRANCH   8  10
ENDBRANCH   6   8
ENDBRANCH   5   6
ENDBRANCH   2   5
BRANCH   1  24
ATOM     24  O   UNL     1      29.160  17.304  -1.091  0.00  0.00    -0.450 OA
BRANCH  24  25
ATOM     25  C   UNL     1      30.112  16.739  -0.221  0.00  0.00    +0.240 C 
BRANCH  25  26
ATOM     26  C   UNL     1      29.877  15.289   0.244  0.00  0.00    +0.100 C 
BRANCH  26  28
ATOM     27  N   UNL     1      30.685  13.065  -0.472  0.00  0.00    -0.134 NA
ATOM     28  C   UNL     1      30.920  14.399  -0.299  0.00  0.00    +0.087 A 
ATOM     29  C   UNL     1      32.209  14.677  -0.688  0.00  0.00    +0.141 A 
ATOM     30  N   UNL     1      32.741  13.459  -1.061  0.00  0.00    -0.201 N 
ATOM     31  N   UNL     1      31.792  12.507  -0.940  0.00  0.00    -0.059 NA
BRANCH  30  32
ATOM     32  C   UNL     1      34.090  13.208  -1.452  0.00  0.00    +0.173 A 
ATOM     33  C   UNL     1      34.486  13.175  -2.792  0.00  0.00    +0.096 A 
ATOM     34  C   UNL     1      35.817  12.823  -3.067  0.00  0.00    +0.024 A 
ATOM     35  C   UNL     1      36.706  12.545  -2.033  0.00  0.00    +0.021 A 
ATOM     36  C   UNL     1      36.241  12.639  -0.737  0.00  0.00    +0.113 A 
ATOM     37  N   UNL     1      34.967  12.957  -0.427  0.00  0.00    -0.235 NA
BRANCH  33  38
ATOM     38  C   UNL     1      33.653  13.490  -3.915  0.00  0.00    +0.103 C 
ATOM     39  N   UNL     1      32.991  13.846  -4.800  0.00  0.00    -0.191 NA
ENDBRANCH  33  38
ENDBRANCH  30  32
ENDBRANCH  26  28
ENDBRANCH  25  26
ENDBRANCH  24  25
ENDBRANCH   1  24
TORSDOF 12
