REMARK VINA RESULT:    -7.253      1.966      3.211
REMARK INTER + INTRA:         -14.260
REMARK INTER:                 -12.533
REMARK INTRA:                  -1.726
REMARK UNBOUND:                -1.919
REMARK  Name = lig_assembled_41.pdb
REMARK  13 active torsions:
REMARK  status: ('A' for Active; 'I' for Inactive)
REMARK    1  A    between atoms: _2  and  _8
REMARK    2  A    between atoms: _5  and  _6
REMARK    3  A    between atoms: _5  and  _16
REMARK    4  A    between atoms: _9  and  _10
REMARK    5  A    between atoms: _10  and  _11
REMARK    6  A    between atoms: _16  and  _18
REMARK    7  A    between atoms: _17  and  _22
REMARK    8  A    between atoms: _18  and  _21
REMARK    9  A    between atoms: _26  and  _36
REMARK   10  A    between atoms: _28  and  _29
REMARK   11  A    between atoms: _30  and  _32
REMARK   12  A    between atoms: _32  and  _34
REMARK   13  A    between atoms: _34  and  _36
REMARK                            x       y       z     vdW  Elec       q    Type
REMARK                         _______ _______ _______ _____ _____    ______ ____
ROOT
ATOM      1  C   UNL     1      27.848  17.495  -1.010  0.00  0.00    +0.400 C 
ATOM      2  N   UNL     1      28.504  16.560  -0.245  0.00  0.00    -0.278 N 
ATOM      3  H   UNL     1      28.738  17.093   0.651  0.00  0.00    +0.152 HD
ATOM      4  O   UNL     1      27.537  18.560  -0.482  0.00  0.00    -0.226 OA
ENDROOT
BRANCH   2   5
ATOM      5  C   UNL     1      28.999  15.193  -0.105  0.00  0.00    +0.152 C 
BRANCH   5   6
ATOM      6  C   UNL     1      30.531  15.016  -0.158  0.00  0.00    +0.193 C 
ATOM      7  O   UNL     1      31.088  16.312  -0.469  0.00  0.00    -0.219 OA
BRANCH   6   8
ATOM      8  C   UNL     1      31.247  14.591   1.143  0.00  0.00    +0.212 C 
ATOM      9  O   UNL     1      31.258  15.675   2.087  0.00  0.00    -0.218 OA
BRANCH   8  10
ATOM     10  C   UNL     1      30.596  13.331   1.830  0.00  0.00    +0.171 C 
ATOM     11  O   UNL     1      29.650  13.682   2.834  0.00  0.00    -0.343 OA
ATOM     12  C   UNL     1      29.110  12.783   3.758  0.00  0.00    +0.220 C 
ATOM     13  C   UNL     1      30.206  11.969   4.468  0.00  0.00    +0.076 C 
ATOM     14  C   UNL     1      31.085  11.329   3.380  0.00  0.00    +0.177 C 
ATOM     15  O   UNL     1      32.093  10.530   3.983  0.00  0.00    -0.221 OA
ATOM     16  C   UNL     1      31.707  12.436   2.472  0.00  0.00    +0.155 C 
BRANCH  16  17
ATOM     17  N   UNL     1      32.548  11.833   1.442  0.00  0.00    -0.202 NA
ATOM     18  C   UNL     1      33.857  12.050   1.154  0.00  0.00    +0.242 C 
ATOM     19  C   UNL     1      34.557  11.083   0.235  0.00  0.00    +0.096 C 
ATOM     20  O   UNL     1      34.435  13.018   1.644  0.00  0.00    -0.273 OA
ENDBRANCH  16  17
BRANCH  12  21
ATOM     21  C   UNL     1      27.963  11.820   3.130  0.00  0.00    +0.391 C 
ATOM     22  O   UNL     1      27.835  10.810   4.012  0.00  0.00    -0.243 OA
ATOM     23  O   UNL     1      27.378  12.529   2.156  0.00  0.00    -0.243 OA
ENDBRANCH  12  21
ENDBRANCH   8  10
ENDBRANCH   6   8
ENDBRANCH   5   6
ENDBRANCH   2   5
BRANCH   1  24
ATOM     24  O   UNL     1      27.646  17.168  -2.244  0.00  0.00    -0.450 OA
BRANCH  24  25
ATOM     25  C   UNL     1      26.690  17.366  -3.259  0.00  0.00    +0.240 C 
BRANCH  25  26
ATOM     26  C   UNL     1      26.493  16.231  -4.282  0.00  0.00    +0.100 C 
BRANCH  26  28
ATOM     27  N   UNL     1      24.768  14.533  -4.757  0.00  0.00    -0.134 NA
ATOM     28  C   UNL     1      25.398  15.341  -3.859  0.00  0.00    +0.086 A 
ATOM     29  C   UNL     1      24.851  15.137  -2.610  0.00  0.00    +0.139 A 
ATOM     30  N   UNL     1      23.806  14.266  -2.815  0.00  0.00    -0.219 N 
ATOM     31  N   UNL     1      23.841  13.845  -4.110  0.00  0.00    -0.061 NA
BRANCH  30  32
ATOM     32  C   UNL     1      22.860  13.715  -1.902  0.00  0.00    +0.077 A 
ATOM     33  C   UNL     1      23.098  12.595  -1.077  0.00  0.00    +0.043 A 
ATOM     34  C   UNL     1      22.053  12.124  -0.255  0.00  0.00    +0.013 A 
ATOM     35  C   UNL     1      20.799  12.739  -0.251  0.00  0.00    +0.001 A 
ATOM     36  C   UNL     1      20.573  13.855  -1.043  0.00  0.00    +0.002 A 
ATOM     37  C   UNL     1      21.597  14.345  -1.852  0.00  0.00    +0.028 A 
BRANCH  33  38
ATOM     38  C   UNL     1      24.449  11.994  -0.856  0.00  0.00    +0.162 C 
ATOM     39  O   UNL     1      25.270  12.597  -0.167  0.00  0.00    -0.292 OA
ATOM     40  C   UNL     1      24.798  10.660  -1.469  0.00  0.00    +0.091 C 
ENDBRANCH  33  38
ENDBRANCH  30  32
ENDBRANCH  26  28
ENDBRANCH  25  26
ENDBRANCH  24  25
ENDBRANCH   1  24
TORSDOF 12
