REMARK VINA RESULT:    -7.488      1.977      3.731
REMARK INTER + INTRA:         -13.943
REMARK INTER:                 -12.511
REMARK INTRA:                  -1.432
REMARK UNBOUND:                -1.202
REMARK  Name = lig_assembled_38.pdb
REMARK  12 active torsions:
REMARK  status: ('A' for Active; 'I' for Inactive)
REMARK    1  A    between atoms: _2  and  _8
REMARK    2  A    between atoms: _5  and  _6
REMARK    3  A    between atoms: _5  and  _14
REMARK    4  A    between atoms: _8  and  _9
REMARK    5  A    between atoms: _14  and  _16
REMARK    6  A    between atoms: _15  and  _20
REMARK    7  A    between atoms: _16  and  _19
REMARK    8  A    between atoms: _24  and  _34
REMARK    9  A    between atoms: _26  and  _27
REMARK   10  A    between atoms: _28  and  _30
REMARK   11  A    between atoms: _30  and  _32
REMARK   12  A    between atoms: _32  and  _34
REMARK                            x       y       z     vdW  Elec       q    Type
REMARK                         _______ _______ _______ _____ _____    ______ ____
ROOT
ATOM      1  C   UNL     1      28.696  16.794  -0.546  0.00  0.00    +0.400 C 
ATOM      2  N   UNL     1      28.909  15.706   0.268  0.00  0.00    -0.278 N 
ATOM      3  H   UNL     1      29.782  15.979   0.822  0.00  0.00    +0.152 HD
ATOM      4  O   UNL     1      29.361  17.807  -0.345  0.00  0.00    -0.226 OA
ENDROOT
BRANCH   2   5
ATOM      5  C   UNL     1      28.481  14.383   0.714  0.00  0.00    +0.152 C 
BRANCH   5   6
ATOM      6  C   UNL     1      28.857  13.999   2.160  0.00  0.00    +0.193 C 
ATOM      7  O   UNL     1      27.683  13.395   2.748  0.00  0.00    -0.219 OA
BRANCH   6   8
ATOM      8  C   UNL     1      29.970  12.946   2.354  0.00  0.00    +0.212 C 
ATOM      9  O   UNL     1      29.562  11.679   1.814  0.00  0.00    -0.218 OA
BRANCH   8  10
ATOM     10  C   UNL     1      31.341  13.358   1.693  0.00  0.00    +0.171 C 
ATOM     11  O   UNL     1      31.355  13.145   0.285  0.00  0.00    -0.343 OA
ATOM     12  C   UNL     1      32.505  13.192  -0.507  0.00  0.00    +0.220 C 
ATOM     13  C   UNL     1      33.632  12.318   0.071  0.00  0.00    +0.076 C 
ATOM     14  C   UNL     1      33.838  12.737   1.536  0.00  0.00    +0.177 C 
ATOM     15  O   UNL     1      34.898  11.985   2.108  0.00  0.00    -0.221 OA
ATOM     16  C   UNL     1      32.513  12.550   2.340  0.00  0.00    +0.155 C 
BRANCH  16  17
ATOM     17  N   UNL     1      32.706  12.941   3.734  0.00  0.00    -0.202 NA
ATOM     18  C   UNL     1      32.596  12.200   4.866  0.00  0.00    +0.242 C 
ATOM     19  C   UNL     1      33.136  12.772   6.151  0.00  0.00    +0.096 C 
ATOM     20  O   UNL     1      32.066  11.092   4.818  0.00  0.00    -0.273 OA
ENDBRANCH  16  17
BRANCH  12  21
ATOM     21  C   UNL     1      33.019  14.702  -0.813  0.00  0.00    +0.391 C 
ATOM     22  O   UNL     1      34.287  14.557  -1.243  0.00  0.00    -0.243 OA
ATOM     23  O   UNL     1      31.924  15.472  -0.815  0.00  0.00    -0.243 OA
ENDBRANCH  12  21
ENDBRANCH   8  10
ENDBRANCH   6   8
ENDBRANCH   5   6
ENDBRANCH   2   5
BRANCH   1  24
ATOM     24  O   UNL     1      27.819  16.629  -1.481  0.00  0.00    -0.450 OA
BRANCH  24  25
ATOM     25  C   UNL     1      26.873  17.383  -2.203  0.00  0.00    +0.240 C 
BRANCH  25  26
ATOM     26  C   UNL     1      26.901  17.274  -3.740  0.00  0.00    +0.100 C 
BRANCH  26  28
ATOM     27  N   UNL     1      26.167  15.638  -5.448  0.00  0.00    -0.134 NA
ATOM     28  C   UNL     1      26.033  16.168  -4.193  0.00  0.00    +0.086 A 
ATOM     29  C   UNL     1      25.047  15.486  -3.517  0.00  0.00    +0.134 A 
ATOM     30  N   UNL     1      24.657  14.515  -4.395  0.00  0.00    -0.247 N 
ATOM     31  N   UNL     1      25.324  14.620  -5.559  0.00  0.00    -0.065 NA
BRANCH  30  32
ATOM     32  C   UNL     1      23.850  13.342  -4.116  0.00  0.00    +0.180 C 
BRANCH  32  33
ATOM     33  C   UNL     1      22.760  13.588  -3.103  0.00  0.00    -0.025 A 
ATOM     34  C   UNL     1      21.759  14.543  -3.337  0.00  0.00    +0.005 A 
ATOM     35  C   UNL     1      20.702  14.703  -2.437  0.00  0.00    +0.001 A 
ATOM     36  C   UNL     1      20.632  13.912  -1.291  0.00  0.00    +0.015 A 
ATOM     37  C   UNL     1      21.627  12.969  -1.045  0.00  0.00    +0.018 A 
ATOM     38 BR   UNL     1      21.532  11.886   0.502  0.00  0.00    -0.050 Br
ATOM     39  C   UNL     1      22.685  12.802  -1.940  0.00  0.00    +0.020 A 
ENDBRANCH  32  33
ENDBRANCH  30  32
ENDBRANCH  26  28
ENDBRANCH  25  26
ENDBRANCH  24  25
ENDBRANCH   1  24
TORSDOF 12
