REMARK VINA RESULT:    -6.627      2.375      3.296
REMARK INTER + INTRA:         -14.479
REMARK INTER:                 -11.276
REMARK INTRA:                  -3.203
REMARK UNBOUND:                -2.234
REMARK  Name = lig_assembled_83.pdb
REMARK  15 active torsions:
REMARK  status: ('A' for Active; 'I' for Inactive)
REMARK    1  A    between atoms: _2  and  _11
REMARK    2  A    between atoms: _3  and  _13
REMARK    3  A    between atoms: _8  and  _9
REMARK    4  A    between atoms: _8  and  _19
REMARK    5  A    between atoms: _11  and  _12
REMARK    6  A    between atoms: _12  and  _13
REMARK    7  A    between atoms: _12  and  _17
REMARK    8  A    between atoms: _19  and  _21
REMARK    9  A    between atoms: _20  and  _25
REMARK   10  A    between atoms: _21  and  _24
REMARK   11  A    between atoms: _29  and  _39
REMARK   12  A    between atoms: _31  and  _32
REMARK   13  A    between atoms: _33  and  _35
REMARK   14  A    between atoms: _35  and  _37
REMARK   15  A    between atoms: _37  and  _39
REMARK                            x       y       z     vdW  Elec       q    Type
REMARK                         _______ _______ _______ _____ _____    ______ ____
ROOT
ATOM      1  C   UNL     1      28.105  17.299  -0.829  0.00  0.00    +0.400 C 
ATOM      2  N   UNL     1      28.602  16.327   0.006  0.00  0.00    -0.278 N 
ATOM      3  H   UNL     1      29.244  16.872   0.665  0.00  0.00    +0.152 HD
ATOM      4  O   UNL     1      28.328  18.474  -0.549  0.00  0.00    -0.226 OA
ENDROOT
BRANCH   2   5
ATOM      5  C   UNL     1      28.634  14.920   0.398  0.00  0.00    +0.152 C 
BRANCH   5   6
ATOM      6  C   UNL     1      29.962  14.175   0.148  0.00  0.00    +0.193 C 
ATOM      7  O   UNL     1      30.064  13.977  -1.279  0.00  0.00    -0.219 OA
BRANCH   6   8
ATOM      8  C   UNL     1      31.271  14.900   0.531  0.00  0.00    +0.212 C 
ATOM      9  O   UNL     1      30.989  16.051   1.344  0.00  0.00    -0.218 OA
BRANCH   8  10
ATOM     10  C   UNL     1      32.292  13.978   1.301  0.00  0.00    +0.171 C 
ATOM     11  O   UNL     1      32.635  14.492   2.583  0.00  0.00    -0.343 OA
ATOM     12  C   UNL     1      33.688  14.015   3.368  0.00  0.00    +0.220 C 
ATOM     13  C   UNL     1      35.003  13.937   2.572  0.00  0.00    +0.076 C 
ATOM     14  C   UNL     1      34.724  13.122   1.298  0.00  0.00    +0.177 C 
ATOM     15  O   UNL     1      35.920  12.985   0.543  0.00  0.00    -0.221 OA
ATOM     16  C   UNL     1      33.599  13.804   0.459  0.00  0.00    +0.155 C 
BRANCH  16  17
ATOM     17  N   UNL     1      33.336  13.037  -0.756  0.00  0.00    -0.202 NA
ATOM     18  C   UNL     1      33.356  13.433  -2.054  0.00  0.00    +0.242 C 
ATOM     19  C   UNL     1      33.338  12.375  -3.125  0.00  0.00    +0.096 C 
ATOM     20  O   UNL     1      33.390  14.633  -2.323  0.00  0.00    -0.273 OA
ENDBRANCH  16  17
BRANCH  12  21
ATOM     21  C   UNL     1      33.356  12.610   4.112  0.00  0.00    +0.391 C 
ATOM     22  O   UNL     1      34.552  12.140   4.516  0.00  0.00    -0.243 OA
ATOM     23  O   UNL     1      32.032  12.599   4.306  0.00  0.00    -0.243 OA
ENDBRANCH  12  21
ENDBRANCH   8  10
ENDBRANCH   6   8
ENDBRANCH   5   6
ENDBRANCH   2   5
BRANCH   1  24
ATOM     24  O   UNL     1      27.464  16.870  -1.867  0.00  0.00    -0.450 OA
BRANCH  24  25
ATOM     25  C   UNL     1      27.096  17.312  -3.153  0.00  0.00    +0.240 C 
BRANCH  25  26
ATOM     26  C   UNL     1      25.977  16.540  -3.877  0.00  0.00    +0.100 C 
BRANCH  26  28
ATOM     27  N   UNL     1      24.459  14.975  -2.688  0.00  0.00    -0.134 NA
ATOM     28  C   UNL     1      25.703  15.264  -3.191  0.00  0.00    +0.086 A 
ATOM     29  C   UNL     1      26.545  14.205  -2.938  0.00  0.00    +0.133 A 
ATOM     30  N   UNL     1      25.754  13.304  -2.295  0.00  0.00    -0.249 N 
ATOM     31  N   UNL     1      24.505  13.769  -2.134  0.00  0.00    -0.065 NA
BRANCH  30  32
ATOM     32  C   UNL     1      26.130  12.006  -1.777  0.00  0.00    +0.178 C 
BRANCH  32  33
ATOM     33  C   UNL     1      26.768  12.108  -0.388  0.00  0.00    +0.156 C 
BRANCH  33  34
ATOM     34  O   UNL     1      25.867  12.760   0.515  0.00  0.00    -0.388 OA
ATOM     35  H   UNL     1      26.362  13.094   1.291  0.00  0.00    +0.210 HD
ENDBRANCH  33  34
BRANCH  33  36
ATOM     36  C   UNL     1      27.136  10.713   0.140  0.00  0.00    +0.162 C 
BRANCH  36  37
ATOM     37  N   UNL     1      28.398  10.704   0.863  0.00  0.00    -0.269 N 
ATOM     38  C   UNL     1      29.613  10.465   0.263  0.00  0.00    +0.113 A 
ATOM     39  C   UNL     1      30.548  10.573   1.265  0.00  0.00    +0.137 A 
ATOM     40  N   UNL     1      29.945  10.841   2.464  0.00  0.00    -0.172 NA
ATOM     41  C   UNL     1      28.655  10.920   2.196  0.00  0.00    +0.450 A 
ATOM     42  N   UNL     1      27.667  11.205   3.211  0.00  0.00    +0.120 N 
ATOM     43  O   UNL     1      26.477  11.261   2.859  0.00  0.00    +0.045 OA
ATOM     44  O   UNL     1      28.069  11.365   4.370  0.00  0.00    -0.573 OA
ENDBRANCH  36  37
ENDBRANCH  33  36
ENDBRANCH  32  33
ENDBRANCH  30  32
ENDBRANCH  26  28
ENDBRANCH  25  26
ENDBRANCH  24  25
ENDBRANCH   1  24
TORSDOF 15
