REMARK VINA RESULT:    -6.680      2.278      3.608
REMARK INTER + INTRA:         -13.188
REMARK INTER:                 -11.158
REMARK INTRA:                  -2.030
REMARK UNBOUND:                -1.431
REMARK  Name = lig_assembled_36.pdb
REMARK  13 active torsions:
REMARK  status: ('A' for Active; 'I' for Inactive)
REMARK    1  A    between atoms: _2  and  _9
REMARK    2  A    between atoms: _6  and  _7
REMARK    3  A    between atoms: _6  and  _16
REMARK    4  A    between atoms: _9  and  _10
REMARK    5  A    between atoms: _13  and  _14
REMARK    6  A    between atoms: _16  and  _18
REMARK    7  A    between atoms: _17  and  _22
REMARK    8  A    between atoms: _18  and  _21
REMARK    9  A    between atoms: _26  and  _36
REMARK   10  A    between atoms: _28  and  _29
REMARK   11  A    between atoms: _30  and  _32
REMARK   12  A    between atoms: _32  and  _34
REMARK   13  A    between atoms: _34  and  _36
REMARK                            x       y       z     vdW  Elec       q    Type
REMARK                         _______ _______ _______ _____ _____    ______ ____
ROOT
ATOM      1  C   UNL     1      27.245  13.070  -4.251  0.00  0.00    +0.400 C 
ATOM      2  N   UNL     1      26.979  13.323  -2.926  0.00  0.00    -0.278 N 
ATOM      3  H   UNL     1      26.886  12.346  -2.502  0.00  0.00    +0.152 HD
ATOM      4  O   UNL     1      27.485  11.912  -4.584  0.00  0.00    -0.226 OA
ENDROOT
BRANCH   1   5
ATOM      5  O   UNL     1      27.186  14.094  -5.039  0.00  0.00    -0.450 OA
BRANCH   5   6
ATOM      6  C   UNL     1      26.234  15.001  -5.542  0.00  0.00    +0.240 C 
BRANCH   6   7
ATOM      7  C   UNL     1      24.794  14.487  -5.733  0.00  0.00    +0.100 C 
BRANCH   7   9
ATOM      8  N   UNL     1      24.280  15.721  -3.647  0.00  0.00    -0.134 NA
ATOM      9  C   UNL     1      24.015  14.678  -4.496  0.00  0.00    +0.086 A 
ATOM     10  C   UNL     1      22.957  13.950  -3.998  0.00  0.00    +0.134 A 
ATOM     11  N   UNL     1      22.566  14.655  -2.899  0.00  0.00    -0.247 N 
ATOM     12  N   UNL     1      23.397  15.686  -2.659  0.00  0.00    -0.065 NA
BRANCH  11  13
ATOM     13  C   UNL     1      21.415  14.420  -2.051  0.00  0.00    +0.180 C 
BRANCH  13  14
ATOM     14  C   UNL     1      21.720  13.393  -0.984  0.00  0.00    -0.026 A 
ATOM     15  C   UNL     1      20.783  13.093   0.017  0.00  0.00    +0.007 A 
ATOM     16  C   UNL     1      21.072  12.138   0.997  0.00  0.00    +0.019 A 
ATOM     17  C   UNL     1      22.302  11.475   0.994  0.00  0.00    +0.052 A 
ATOM     18  C   UNL     1      23.250  11.785   0.016  0.00  0.00    +0.019 A 
ATOM     19  C   UNL     1      22.963  12.741  -0.964  0.00  0.00    +0.007 A 
BRANCH  17  20
ATOM     20  C   UNL     1      22.588  10.480   1.988  0.00  0.00    +0.099 C 
ATOM     21  N   UNL     1      22.815   9.683   2.799  0.00  0.00    -0.191 NA
ENDBRANCH  17  20
ENDBRANCH  13  14
ENDBRANCH  11  13
ENDBRANCH   7   9
ENDBRANCH   6   7
ENDBRANCH   5   6
ENDBRANCH   1   5
BRANCH   2  22
ATOM     22  C   UNL     1      26.785  14.303  -1.861  0.00  0.00    +0.152 C 
BRANCH  22  23
ATOM     23  C   UNL     1      27.752  15.505  -1.859  0.00  0.00    +0.193 C 
ATOM     24  O   UNL     1      26.939  16.692  -1.733  0.00  0.00    -0.219 OA
BRANCH  23  25
ATOM     25  C   UNL     1      28.765  15.606  -0.697  0.00  0.00    +0.212 C 
ATOM     26  O   UNL     1      28.417  16.691   0.178  0.00  0.00    -0.218 OA
BRANCH  25  27
ATOM     27  C   UNL     1      28.870  14.285   0.157  0.00  0.00    +0.171 C 
ATOM     28  O   UNL     1      28.160  14.370   1.388  0.00  0.00    -0.343 OA
ATOM     29  C   UNL     1      28.282  13.451   2.433  0.00  0.00    +0.220 C 
ATOM     30  C   UNL     1      29.754  13.200   2.803  0.00  0.00    +0.076 C 
ATOM     31  C   UNL     1      30.497  12.816   1.513  0.00  0.00    +0.177 C 
ATOM     32  O   UNL     1      31.858  12.534   1.807  0.00  0.00    -0.221 OA
ATOM     33  C   UNL     1      30.369  13.958   0.458  0.00  0.00    +0.155 C 
BRANCH  33  34
ATOM     34  N   UNL     1      31.080  13.599  -0.766  0.00  0.00    -0.202 NA
ATOM     35  C   UNL     1      32.115  14.223  -1.383  0.00  0.00    +0.242 C 
ATOM     36  C   UNL     1      32.852  13.483  -2.470  0.00  0.00    +0.096 C 
ATOM     37  O   UNL     1      32.426  15.364  -1.045  0.00  0.00    -0.273 OA
ENDBRANCH  33  34
BRANCH  29  38
ATOM     38  C   UNL     1      27.488  12.059   2.166  0.00  0.00    +0.391 C 
ATOM     39  O   UNL     1      28.174  11.129   2.860  0.00  0.00    -0.243 OA
ATOM     40  O   UNL     1      26.313  12.401   1.625  0.00  0.00    -0.243 OA
ENDBRANCH  29  38
ENDBRANCH  25  27
ENDBRANCH  23  25
ENDBRANCH  22  23
ENDBRANCH   2  22
TORSDOF 13
