REMARK VINA RESULT:    -5.913      2.647      3.833
REMARK INTER + INTRA:         -12.602
REMARK INTER:                 -10.760
REMARK INTRA:                  -1.842
REMARK UNBOUND:                -2.194
REMARK  Name = lig_assembled_14.pdb
REMARK  13 active torsions:
REMARK  status: ('A' for Active; 'I' for Inactive)
REMARK    1  A    between atoms: _2  and  _9
REMARK    2  A    between atoms: _3  and  _10
REMARK    3  A    between atoms: _6  and  _7
REMARK    4  A    between atoms: _6  and  _14
REMARK    5  A    between atoms: _9  and  _10
REMARK    6  A    between atoms: _14  and  _16
REMARK    7  A    between atoms: _15  and  _20
REMARK    8  A    between atoms: _16  and  _19
REMARK    9  A    between atoms: _24  and  _34
REMARK   10  A    between atoms: _26  and  _27
REMARK   11  A    between atoms: _28  and  _30
REMARK   12  A    between atoms: _30  and  _32
REMARK   13  A    between atoms: _32  and  _34
REMARK                            x       y       z     vdW  Elec       q    Type
REMARK                         _______ _______ _______ _____ _____    ______ ____
ROOT
ATOM      1  C   UNL     1      28.508  17.379  -0.473  0.00  0.00    +0.400 C 
ATOM      2  N   UNL     1      29.635  17.141   0.277  0.00  0.00    -0.278 N 
ATOM      3  H   UNL     1      29.693  17.996   0.916  0.00  0.00    +0.152 HD
ATOM      4  O   UNL     1      27.785  18.319  -0.150  0.00  0.00    -0.226 OA
ENDROOT
BRANCH   2   5
ATOM      5  C   UNL     1      30.754  16.258   0.595  0.00  0.00    +0.152 C 
BRANCH   5   6
ATOM      6  C   UNL     1      31.043  15.134  -0.421  0.00  0.00    +0.193 C 
ATOM      7  O   UNL     1      32.336  15.420  -1.000  0.00  0.00    -0.219 OA
BRANCH   6   8
ATOM      8  C   UNL     1      31.175  13.695   0.123  0.00  0.00    +0.212 C 
ATOM      9  O   UNL     1      32.087  13.659   1.233  0.00  0.00    -0.218 OA
BRANCH   8  10
ATOM     10  C   UNL     1      29.801  13.072   0.580  0.00  0.00    +0.171 C 
ATOM     11  O   UNL     1      29.801  12.692   1.952  0.00  0.00    -0.343 OA
ATOM     12  C   UNL     1      28.816  11.903   2.551  0.00  0.00    +0.220 C 
ATOM     13  C   UNL     1      28.549  10.617   1.750  0.00  0.00    +0.076 C 
ATOM     14  C   UNL     1      28.254  11.029   0.299  0.00  0.00    +0.177 C 
ATOM     15  O   UNL     1      27.960   9.877  -0.479  0.00  0.00    -0.221 OA
ATOM     16  C   UNL     1      29.463  11.818  -0.293  0.00  0.00    +0.155 C 
BRANCH  16  17
ATOM     17  N   UNL     1      29.189  12.206  -1.674  0.00  0.00    -0.202 NA
ATOM     18  C   UNL     1      29.818  11.837  -2.819  0.00  0.00    +0.242 C 
ATOM     19  C   UNL     1      29.150  12.148  -4.134  0.00  0.00    +0.096 C 
ATOM     20  O   UNL     1      30.903  11.264  -2.759  0.00  0.00    -0.273 OA
ENDBRANCH  16  17
BRANCH  12  21
ATOM     21  C   UNL     1      27.441  12.710   2.860  0.00  0.00    +0.391 C 
ATOM     22  O   UNL     1      26.481  11.765   2.884  0.00  0.00    -0.243 OA
ATOM     23  O   UNL     1      27.811  13.931   3.267  0.00  0.00    -0.243 OA
ENDBRANCH  12  21
ENDBRANCH   8  10
ENDBRANCH   6   8
ENDBRANCH   5   6
ENDBRANCH   2   5
BRANCH   1  24
ATOM     24  O   UNL     1      28.331  16.593  -1.483  0.00  0.00    -0.450 OA
BRANCH  24  25
ATOM     25  C   UNL     1      27.303  16.193  -2.358  0.00  0.00    +0.240 C 
BRANCH  25  26
ATOM     26  C   UNL     1      26.822  14.732  -2.270  0.00  0.00    +0.100 C 
BRANCH  26  28
ATOM     27  N   UNL     1      24.579  15.686  -2.691  0.00  0.00    -0.134 NA
ATOM     28  C   UNL     1      25.432  14.617  -2.748  0.00  0.00    +0.086 A 
ATOM     29  C   UNL     1      24.766  13.536  -3.283  0.00  0.00    +0.133 A 
ATOM     30  N   UNL     1      23.511  14.010  -3.514  0.00  0.00    -0.250 N 
ATOM     31  N   UNL     1      23.403  15.304  -3.167  0.00  0.00    -0.065 NA
BRANCH  30  32
ATOM     32  C   UNL     1      22.358  13.288  -4.006  0.00  0.00    +0.160 C 
BRANCH  32  33
ATOM     33  C   UNL     1      22.219  11.912  -3.343  0.00  0.00    +0.107 C 
BRANCH  33  34
ATOM     34  N   UNL     1      21.395  11.941  -2.122  0.00  0.00    -0.301 NA
ATOM     35  C   UNL     1      22.189  11.881  -0.891  0.00  0.00    +0.084 C 
ATOM     36  C   UNL     1      21.198  12.336   0.161  0.00  0.00    +0.017 C 
ATOM     37  C   UNL     1      20.406  13.427  -0.536  0.00  0.00    +0.017 C 
ATOM     38  C   UNL     1      20.602  13.175  -2.029  0.00  0.00    +0.084 C 
ENDBRANCH  33  34
ENDBRANCH  32  33
ENDBRANCH  30  32
ENDBRANCH  26  28
ENDBRANCH  25  26
ENDBRANCH  24  25
ENDBRANCH   1  24
TORSDOF 13
