REMARK VINA RESULT:    -7.274      1.898      2.577
REMARK INTER + INTRA:         -13.726
REMARK INTER:                 -12.083
REMARK INTRA:                  -1.643
REMARK UNBOUND:                -1.775
REMARK  Name = lig_assembled_42.pdb
REMARK  11 active torsions:
REMARK  status: ('A' for Active; 'I' for Inactive)
REMARK    1  A    between atoms: _2  and  _8
REMARK    2  A    between atoms: _5  and  _6
REMARK    3  A    between atoms: _5  and  _16
REMARK    4  A    between atoms: _16  and  _18
REMARK    5  A    between atoms: _17  and  _22
REMARK    6  A    between atoms: _18  and  _21
REMARK    7  A    between atoms: _26  and  _36
REMARK    8  A    between atoms: _28  and  _29
REMARK    9  A    between atoms: _30  and  _32
REMARK   10  A    between atoms: _32  and  _34
REMARK   11  A    between atoms: _34  and  _36
REMARK                            x       y       z     vdW  Elec       q    Type
REMARK                         _______ _______ _______ _____ _____    ______ ____
ROOT
ATOM      1  C   UNL     1      27.638  17.346  -1.467  0.00  0.00    +0.400 C 
ATOM      2  N   UNL     1      28.435  16.625  -0.610  0.00  0.00    -0.278 N 
ATOM      3  H   UNL     1      28.891  17.378  -0.004  0.00  0.00    +0.152 HD
ATOM      4  O   UNL     1      27.489  18.545  -1.249  0.00  0.00    -0.226 OA
ENDROOT
BRANCH   1   5
ATOM      5  O   UNL     1      27.137  16.682  -2.457  0.00  0.00    -0.450 OA
BRANCH   5   6
ATOM      6  C   UNL     1      26.579  16.919  -3.729  0.00  0.00    +0.240 C 
BRANCH   6   7
ATOM      7  C   UNL     1      25.788  15.770  -4.383  0.00  0.00    +0.100 C 
BRANCH   7   9
ATOM      8  N   UNL     1      23.603  15.927  -3.218  0.00  0.00    -0.134 NA
ATOM      9  C   UNL     1      24.766  15.252  -3.456  0.00  0.00    +0.086 A 
ATOM     10  C   UNL     1      24.773  14.097  -2.713  0.00  0.00    +0.139 A 
ATOM     11  N   UNL     1      23.582  14.104  -2.027  0.00  0.00    -0.220 N 
ATOM     12  N   UNL     1      22.888  15.223  -2.348  0.00  0.00    -0.061 NA
BRANCH  11  13
ATOM     13  C   UNL     1      23.089  13.138  -1.111  0.00  0.00    +0.071 A 
ATOM     14  C   UNL     1      23.983  12.411  -0.310  0.00  0.00    +0.077 A 
ATOM     15  C   UNL     1      23.455  11.484   0.563  0.00  0.00    +0.168 A 
ATOM     16  O   UNL     1      24.179  10.704   1.408  0.00  0.00    -0.453 OA
ATOM     17  C   UNL     1      23.126   9.964   2.059  0.00  0.00    +0.466 C 
ATOM     18  O   UNL     1      21.806  10.309   1.587  0.00  0.00    -0.453 OA
ATOM     19  C   UNL     1      22.103  11.262   0.663  0.00  0.00    +0.166 A 
ATOM     20  C   UNL     1      21.197  11.956  -0.109  0.00  0.00    +0.051 A 
ATOM     21  C   UNL     1      21.697  12.907  -1.008  0.00  0.00    +0.031 A 
ENDBRANCH  11  13
ENDBRANCH   7   9
ENDBRANCH   6   7
ENDBRANCH   5   6
ENDBRANCH   1   5
BRANCH   2  22
ATOM     22  C   UNL     1      28.916  15.322  -0.157  0.00  0.00    +0.152 C 
BRANCH  22  23
ATOM     23  C   UNL     1      30.444  15.113  -0.190  0.00  0.00    +0.193 C 
ATOM     24  O   UNL     1      31.040  16.424  -0.308  0.00  0.00    -0.219 OA
BRANCH  23  25
ATOM     25  C   UNL     1      31.109  14.499   1.062  0.00  0.00    +0.212 C 
ATOM     26  O   UNL     1      31.324  15.508   2.062  0.00  0.00    -0.218 OA
BRANCH  25  27
ATOM     27  C   UNL     1      30.272  13.326   1.701  0.00  0.00    +0.171 C 
ATOM     28  O   UNL     1      30.094  13.482   3.105  0.00  0.00    -0.343 OA
ATOM     29  C   UNL     1      29.610  12.483   3.953  0.00  0.00    +0.220 C 
ATOM     30  C   UNL     1      30.365  11.156   3.762  0.00  0.00    +0.076 C 
ATOM     31  C   UNL     1      30.321  10.811   2.264  0.00  0.00    +0.177 C 
ATOM     32  O   UNL     1      30.972   9.569   2.037  0.00  0.00    -0.221 OA
ATOM     33  C   UNL     1      30.974  11.955   1.428  0.00  0.00    +0.155 C 
BRANCH  33  34
ATOM     34  N   UNL     1      30.940  11.627   0.006  0.00  0.00    -0.202 NA
ATOM     35  C   UNL     1      31.955  11.553  -0.892  0.00  0.00    +0.242 C 
ATOM     36  C   UNL     1      31.684  10.906  -2.226  0.00  0.00    +0.096 C 
ATOM     37  O   UNL     1      33.059  12.007  -0.600  0.00  0.00    -0.273 OA
ENDBRANCH  33  34
BRANCH  29  38
ATOM     38  C   UNL     1      28.002  12.274   3.856  0.00  0.00    +0.391 C 
ATOM     39  O   UNL     1      27.785  11.028   4.320  0.00  0.00    -0.243 OA
ATOM     40  O   UNL     1      27.483  13.490   3.646  0.00  0.00    -0.243 OA
ENDBRANCH  29  38
ENDBRANCH  25  27
ENDBRANCH  23  25
ENDBRANCH  22  23
ENDBRANCH   2  22
TORSDOF 11
