REMARK VINA RESULT:    -7.681      1.550      2.739
REMARK INTER + INTRA:         -15.197
REMARK INTER:                 -13.851
REMARK INTRA:                  -1.346
REMARK UNBOUND:                -2.128
REMARK  Name = lig_assembled_0.pdb
REMARK  12 active torsions:
REMARK  status: ('A' for Active; 'I' for Inactive)
REMARK    1  A    between atoms: _2  and  _9
REMARK    2  A    between atoms: _6  and  _7
REMARK    3  A    between atoms: _6  and  _16
REMARK    4  A    between atoms: _10  and  _11
REMARK    5  A    between atoms: _16  and  _18
REMARK    6  A    between atoms: _17  and  _22
REMARK    7  A    between atoms: _18  and  _21
REMARK    8  A    between atoms: _26  and  _36
REMARK    9  A    between atoms: _28  and  _29
REMARK   10  A    between atoms: _30  and  _32
REMARK   11  A    between atoms: _32  and  _34
REMARK   12  A    between atoms: _34  and  _36
REMARK                            x       y       z     vdW  Elec       q    Type
REMARK                         _______ _______ _______ _____ _____    ______ ____
ROOT
ATOM      1  C   UNL     1      28.297  17.196  -0.612  0.00  0.00    +0.400 C 
ATOM      2  N   UNL     1      29.044  16.174  -0.075  0.00  0.00    -0.278 N 
ATOM      3  H   UNL     1      29.263  16.520   0.912  0.00  0.00    +0.152 HD
ATOM      4  O   UNL     1      27.922  18.095   0.137  0.00  0.00    -0.226 OA
ENDROOT
BRANCH   2   5
ATOM      5  C   UNL     1      29.645  14.853  -0.239  0.00  0.00    +0.152 C 
BRANCH   5   6
ATOM      6  C   UNL     1      31.178  14.780  -0.090  0.00  0.00    +0.193 C 
ATOM      7  O   UNL     1      31.711  15.982  -0.690  0.00  0.00    -0.219 OA
BRANCH   6   8
ATOM      8  C   UNL     1      31.758  14.775   1.342  0.00  0.00    +0.212 C 
ATOM      9  O   UNL     1      31.232  15.876   2.100  0.00  0.00    -0.218 OA
BRANCH   8  10
ATOM     10  C   UNL     1      31.469  13.439   2.127  0.00  0.00    +0.171 C 
ATOM     11  O   UNL     1      30.247  13.486   2.857  0.00  0.00    -0.343 OA
ATOM     12  C   UNL     1      29.869  12.548   3.821  0.00  0.00    +0.220 C 
ATOM     13  C   UNL     1      30.981  12.318   4.860  0.00  0.00    +0.076 C 
ATOM     14  C   UNL     1      32.267  11.974   4.092  0.00  0.00    +0.177 C 
ATOM     15  O   UNL     1      33.320  11.711   5.009  0.00  0.00    -0.221 OA
ATOM     16  C   UNL     1      32.640  13.135   3.118  0.00  0.00    +0.155 C 
BRANCH  16  17
ATOM     17  N   UNL     1      33.866  12.814   2.392  0.00  0.00    -0.202 NA
ATOM     18  C   UNL     1      35.115  13.325   2.531  0.00  0.00    +0.242 C 
ATOM     19  C   UNL     1      36.259  12.609   1.859  0.00  0.00    +0.096 C 
ATOM     20  O   UNL     1      35.284  14.346   3.194  0.00  0.00    -0.273 OA
ENDBRANCH  16  17
BRANCH  12  21
ATOM     21  C   UNL     1      29.342  11.147   3.190  0.00  0.00    +0.391 C 
ATOM     22  O   UNL     1      29.554  11.262   1.865  0.00  0.00    -0.243 OA
ATOM     23  O   UNL     1      29.185  10.312   4.224  0.00  0.00    -0.243 OA
ENDBRANCH  12  21
ENDBRANCH   8  10
ENDBRANCH   6   8
ENDBRANCH   5   6
ENDBRANCH   2   5
BRANCH   1  24
ATOM     24  O   UNL     1      28.084  17.124  -1.885  0.00  0.00    -0.450 OA
BRANCH  24  25
ATOM     25  C   UNL     1      27.165  17.598  -2.842  0.00  0.00    +0.240 C 
BRANCH  25  26
ATOM     26  C   UNL     1      26.951  16.742  -4.105  0.00  0.00    +0.100 C 
BRANCH  26  28
ATOM     27  N   UNL     1      25.283  15.168  -5.014  0.00  0.00    -0.134 NA
ATOM     28  C   UNL     1      25.714  15.948  -3.983  0.00  0.00    +0.086 A 
ATOM     29  C   UNL     1      24.845  15.816  -2.923  0.00  0.00    +0.139 A 
ATOM     30  N   UNL     1      23.832  15.010  -3.387  0.00  0.00    -0.219 N 
ATOM     31  N   UNL     1      24.170  14.562  -4.629  0.00  0.00    -0.061 NA
BRANCH  30  32
ATOM     32  C   UNL     1      22.654  14.532  -2.747  0.00  0.00    +0.079 A 
ATOM     33  C   UNL     1      21.390  15.153  -2.823  0.00  0.00    +0.062 A 
ATOM     34  C   UNL     1      20.312  14.592  -2.101  0.00  0.00    +0.015 A 
ATOM     35  C   UNL     1      20.481  13.453  -1.312  0.00  0.00    +0.001 A 
ATOM     36  C   UNL     1      21.720  12.835  -1.250  0.00  0.00    +0.002 A 
ATOM     37  C   UNL     1      22.793  13.360  -1.968  0.00  0.00    +0.028 A 
BRANCH  33  38
ATOM     38  C   UNL     1      21.058  16.260  -3.763  0.00  0.00    +0.244 C 
ATOM     39  O   UNL     1      20.492  16.065  -4.827  0.00  0.00    -0.270 OA
ATOM     40  N   UNL     1      21.376  17.535  -3.377  0.00  0.00    -0.325 N 
ATOM     41  H   UNL     1      21.100  18.286  -3.999  0.00  0.00    +0.145 HD
ATOM     42  H   UNL     1      21.829  17.780  -2.510  0.00  0.00    +0.145 HD
ENDBRANCH  33  38
ENDBRANCH  30  32
ENDBRANCH  26  28
ENDBRANCH  25  26
ENDBRANCH  24  25
ENDBRANCH   1  24
TORSDOF 12
