REMARK VINA RESULT:    -6.707      1.603      3.875
REMARK INTER + INTRA:         -12.405
REMARK INTER:                 -11.135
REMARK INTRA:                  -1.270
REMARK UNBOUND:                -1.385
REMARK  Name = lig_assembled_56.pdb
REMARK  11 active torsions:
REMARK  status: ('A' for Active; 'I' for Inactive)
REMARK    1  A    between atoms: _2  and  _9
REMARK    2  A    between atoms: _6  and  _7
REMARK    3  A    between atoms: _6  and  _13
REMARK    4  A    between atoms: _13  and  _15
REMARK    5  A    between atoms: _14  and  _19
REMARK    6  A    between atoms: _15  and  _18
REMARK    7  A    between atoms: _23  and  _33
REMARK    8  A    between atoms: _25  and  _26
REMARK    9  A    between atoms: _27  and  _29
REMARK   10  A    between atoms: _29  and  _31
REMARK   11  A    between atoms: _31  and  _33
REMARK                            x       y       z     vdW  Elec       q    Type
REMARK                         _______ _______ _______ _____ _____    ______ ____
ROOT
ATOM      1  C   UNL     1      29.044  15.092  -0.349  0.00  0.00    +0.152 C 
ENDROOT
BRANCH   1   3
ATOM      2  C   UNL     1      27.890  17.528  -0.771  0.00  0.00    +0.400 C 
ATOM      3  N   UNL     1      28.513  16.444  -0.199  0.00  0.00    -0.278 N 
ATOM      4  H   UNL     1      28.653  16.747   0.817  0.00  0.00    +0.152 HD
ATOM      5  O   UNL     1      27.498  18.428  -0.032  0.00  0.00    -0.226 OA
BRANCH   2   6
ATOM      6  O   UNL     1      27.803  17.507  -2.060  0.00  0.00    -0.450 OA
BRANCH   6   7
ATOM      7  C   UNL     1      26.872  17.170  -3.063  0.00  0.00    +0.240 C 
BRANCH   7   8
ATOM      8  C   UNL     1      26.753  15.684  -3.451  0.00  0.00    +0.100 C 
BRANCH   8  10
ATOM      9  N   UNL     1      24.826  14.955  -4.820  0.00  0.00    -0.134 NA
ATOM     10  C   UNL     1      25.335  15.306  -3.604  0.00  0.00    +0.086 A 
ATOM     11  C   UNL     1      24.337  15.230  -2.660  0.00  0.00    +0.139 A 
ATOM     12  N   UNL     1      23.226  14.808  -3.351  0.00  0.00    -0.220 N 
ATOM     13  N   UNL     1      23.543  14.657  -4.660  0.00  0.00    -0.061 NA
BRANCH  12  14
ATOM     14  C   UNL     1      21.925  14.534  -2.860  0.00  0.00    +0.070 A 
ATOM     15  C   UNL     1      20.794  14.771  -3.645  0.00  0.00    +0.047 A 
ATOM     16  C   UNL     1      19.552  14.497  -3.096  0.00  0.00    +0.113 A 
ATOM     17  N   UNL     1      19.371  14.014  -1.850  0.00  0.00    -0.263 NA
ATOM     18  C   UNL     1      20.480  13.791  -1.113  0.00  0.00    +0.113 A 
ATOM     19  C   UNL     1      21.765  14.031  -1.565  0.00  0.00    +0.047 A 
ENDBRANCH  12  14
ENDBRANCH   8  10
ENDBRANCH   7   8
ENDBRANCH   6   7
ENDBRANCH   2   6
ENDBRANCH   1   3
BRANCH   1  20
ATOM     20  C   UNL     1      30.568  14.936  -0.171  0.00  0.00    +0.193 C 
ATOM     21  O   UNL     1      30.882  15.409   1.158  0.00  0.00    -0.219 OA
BRANCH  20  22
ATOM     22  C   UNL     1      31.152  13.507  -0.219  0.00  0.00    +0.212 C 
ATOM     23  O   UNL     1      30.198  12.594  -0.785  0.00  0.00    -0.218 OA
BRANCH  22  24
ATOM     24  C   UNL     1      32.493  13.408  -1.041  0.00  0.00    +0.171 C 
ATOM     25  O   UNL     1      32.343  12.666  -2.247  0.00  0.00    -0.343 OA
ATOM     26  C   UNL     1      33.406  12.219  -3.036  0.00  0.00    +0.220 C 
ATOM     27  C   UNL     1      34.460  11.471  -2.201  0.00  0.00    +0.076 C 
ATOM     28  C   UNL     1      34.861  12.387  -1.033  0.00  0.00    +0.177 C 
ATOM     29  O   UNL     1      35.865  11.758  -0.251  0.00  0.00    -0.221 OA
ATOM     30  C   UNL     1      33.608  12.739  -0.172  0.00  0.00    +0.155 C 
BRANCH  30  31
ATOM     31  N   UNL     1      33.986  13.604   0.943  0.00  0.00    -0.202 NA
ATOM     32  C   UNL     1      33.844  13.410   2.279  0.00  0.00    +0.242 C 
ATOM     33  C   UNL     1      34.585  14.326   3.218  0.00  0.00    +0.096 C 
ATOM     34  O   UNL     1      33.124  12.501   2.687  0.00  0.00    -0.273 OA
ENDBRANCH  30  31
BRANCH  26  35
ATOM     35  C   UNL     1      34.079  13.390  -3.938  0.00  0.00    +0.391 C 
ATOM     36  O   UNL     1      35.278  12.899  -4.307  0.00  0.00    -0.243 OA
ATOM     37  O   UNL     1      33.094  14.252  -4.220  0.00  0.00    -0.243 OA
ENDBRANCH  26  35
ENDBRANCH  22  24
ENDBRANCH  20  22
ENDBRANCH   1  20
TORSDOF 11
