REMARK VINA RESULT:    -7.914      3.208      9.183
REMARK INTER + INTRA:         -15.409
REMARK INTER:                 -12.442
REMARK INTRA:                  -2.967
REMARK UNBOUND:                -1.480
REMARK  Name = lig_assembled_58.pdb
REMARK  13 active torsions:
REMARK  status: ('A' for Active; 'I' for Inactive)
REMARK    1  A    between atoms: _2  and  _8
REMARK    2  A    between atoms: _5  and  _6
REMARK    3  A    between atoms: _5  and  _20
REMARK    4  A    between atoms: _8  and  _9
REMARK    5  A    between atoms: _8  and  _15
REMARK    6  A    between atoms: _20  and  _22
REMARK    7  A    between atoms: _21  and  _26
REMARK    8  A    between atoms: _22  and  _25
REMARK    9  A    between atoms: _30  and  _40
REMARK   10  A    between atoms: _32  and  _33
REMARK   11  A    between atoms: _34  and  _36
REMARK   12  A    between atoms: _36  and  _38
REMARK   13  A    between atoms: _38  and  _40
REMARK                            x       y       z     vdW  Elec       q    Type
REMARK                         _______ _______ _______ _____ _____    ______ ____
ROOT
ATOM      1  C   UNL     1      25.758  16.255  -4.310  0.00  0.00    +0.400 C 
ATOM      2  N   UNL     1      24.510  15.806  -3.947  0.00  0.00    -0.278 N 
ATOM      3  H   UNL     1      24.208  15.213  -4.783  0.00  0.00    +0.152 HD
ATOM      4  O   UNL     1      26.276  15.776  -5.316  0.00  0.00    -0.226 OA
ENDROOT
BRANCH   2   5
ATOM      5  C   UNL     1      23.445  15.764  -2.948  0.00  0.00    +0.152 C 
BRANCH   5   6
ATOM      6  C   UNL     1      22.298  14.769  -3.220  0.00  0.00    +0.193 C 
ATOM      7  O   UNL     1      22.289  14.524  -4.644  0.00  0.00    -0.219 OA
BRANCH   6   8
ATOM      8  C   UNL     1      22.406  13.363  -2.588  0.00  0.00    +0.212 C 
ATOM      9  O   UNL     1      21.972  12.360  -3.520  0.00  0.00    -0.218 OA
BRANCH   8  10
ATOM     10  C   UNL     1      23.864  13.006  -2.105  0.00  0.00    +0.171 C 
ATOM     11  O   UNL     1      24.760  12.783  -3.189  0.00  0.00    -0.343 OA
ATOM     12  C   UNL     1      26.032  12.221  -3.056  0.00  0.00    +0.220 C 
ATOM     13  C   UNL     1      25.995  10.909  -2.253  0.00  0.00    +0.076 C 
ATOM     14  C   UNL     1      25.274  11.199  -0.927  0.00  0.00    +0.177 C 
ATOM     15  O   UNL     1      25.247  10.025  -0.127  0.00  0.00    -0.221 OA
ATOM     16  C   UNL     1      23.833  11.729  -1.203  0.00  0.00    +0.155 C 
BRANCH  16  17
ATOM     17  N   UNL     1      23.142  11.999   0.055  0.00  0.00    -0.202 NA
ATOM     18  C   UNL     1      22.052  11.396   0.594  0.00  0.00    +0.242 C 
ATOM     19  C   UNL     1      21.722  11.670   2.038  0.00  0.00    +0.096 C 
ATOM     20  O   UNL     1      21.367  10.647  -0.101  0.00  0.00    -0.273 OA
ENDBRANCH  16  17
BRANCH  12  21
ATOM     21  C   UNL     1      27.137  13.253  -2.463  0.00  0.00    +0.391 C 
ATOM     22  O   UNL     1      28.309  12.848  -2.989  0.00  0.00    -0.243 OA
ATOM     23  O   UNL     1      26.446  14.271  -1.934  0.00  0.00    -0.243 OA
ENDBRANCH  12  21
ENDBRANCH   8  10
ENDBRANCH   6   8
ENDBRANCH   5   6
ENDBRANCH   2   5
BRANCH   1  24
ATOM     24  O   UNL     1      26.260  17.180  -3.560  0.00  0.00    -0.450 OA
BRANCH  24  25
ATOM     25  C   UNL     1      27.474  17.492  -2.916  0.00  0.00    +0.240 C 
BRANCH  25  26
ATOM     26  C   UNL     1      27.418  17.803  -1.408  0.00  0.00    +0.100 C 
BRANCH  26  28
ATOM     27  N   UNL     1      29.555  18.013  -0.157  0.00  0.00    -0.134 NA
ATOM     28  C   UNL     1      28.591  17.226  -0.724  0.00  0.00    +0.086 A 
ATOM     29  C   UNL     1      28.905  15.905  -0.504  0.00  0.00    +0.134 A 
ATOM     30  N   UNL     1      29.985  15.951   0.335  0.00  0.00    -0.240 N 
ATOM     31  N   UNL     1      30.418  17.224   0.473  0.00  0.00    -0.065 NA
BRANCH  30  32
ATOM     32  C   UNL     1      30.644  14.858   1.074  0.00  0.00    +0.169 C 
BRANCH  32  33
ATOM     33  C   UNL     1      32.047  14.539   0.537  0.00  0.00    -0.019 A 
ATOM     34  C   UNL     1      32.981  13.831   1.316  0.00  0.00    +0.006 A 
ATOM     35  C   UNL     1      34.257  13.546   0.823  0.00  0.00    +0.000 A 
ATOM     36  C   UNL     1      34.615  13.940  -0.463  0.00  0.00    +0.000 A 
ATOM     37  C   UNL     1      33.691  14.591  -1.269  0.00  0.00    +0.000 A 
ATOM     38  C   UNL     1      32.415  14.870  -0.782  0.00  0.00    +0.006 A 
ENDBRANCH  32  33
BRANCH  32  39
ATOM     39  C   UNL     1      29.700  13.650   1.173  0.00  0.00    -0.019 A 
ATOM     40  C   UNL     1      28.755  13.577   2.211  0.00  0.00    +0.006 A 
ATOM     41  C   UNL     1      27.931  12.456   2.344  0.00  0.00    +0.000 A 
ATOM     42  C   UNL     1      28.026  11.401   1.440  0.00  0.00    +0.000 A 
ATOM     43  C   UNL     1      28.956  11.453   0.409  0.00  0.00    +0.000 A 
ATOM     44  C   UNL     1      29.793  12.562   0.284  0.00  0.00    +0.006 A 
ENDBRANCH  32  39
ENDBRANCH  30  32
ENDBRANCH  26  28
ENDBRANCH  25  26
ENDBRANCH  24  25
ENDBRANCH   1  24
TORSDOF 13
