REMARK VINA RESULT:    -6.994      1.707      2.494
REMARK INTER + INTRA:         -13.755
REMARK INTER:                 -11.680
REMARK INTRA:                  -2.075
REMARK UNBOUND:                -2.263
REMARK  Name = lig_assembled_52.pdb
REMARK  11 active torsions:
REMARK  status: ('A' for Active; 'I' for Inactive)
REMARK    1  A    between atoms: _2  and  _9
REMARK    2  A    between atoms: _6  and  _7
REMARK    3  A    between atoms: _6  and  _13
REMARK    4  A    between atoms: _13  and  _15
REMARK    5  A    between atoms: _14  and  _19
REMARK    6  A    between atoms: _15  and  _18
REMARK    7  A    between atoms: _23  and  _33
REMARK    8  A    between atoms: _25  and  _26
REMARK    9  A    between atoms: _27  and  _29
REMARK   10  A    between atoms: _29  and  _31
REMARK   11  A    between atoms: _31  and  _33
REMARK                            x       y       z     vdW  Elec       q    Type
REMARK                         _______ _______ _______ _____ _____    ______ ____
ROOT
ATOM      1  C   UNL     1      28.139  14.090  -0.415  0.00  0.00    +0.152 C 
ENDROOT
BRANCH   1   3
ATOM      2  C   UNL     1      28.192  16.799  -0.736  0.00  0.00    +0.400 C 
ATOM      3  N   UNL     1      28.321  15.527  -0.230  0.00  0.00    -0.278 N 
ATOM      4  H   UNL     1      28.732  15.689   0.743  0.00  0.00    +0.152 HD
ATOM      5  O   UNL     1      28.373  17.747   0.024  0.00  0.00    -0.226 OA
BRANCH   2   6
ATOM      6  O   UNL     1      27.917  16.874  -1.997  0.00  0.00    -0.450 OA
BRANCH   6   7
ATOM      7  C   UNL     1      26.994  17.506  -2.853  0.00  0.00    +0.240 C 
BRANCH   7   8
ATOM      8  C   UNL     1      26.317  16.640  -3.933  0.00  0.00    +0.100 C 
BRANCH   8  10
ATOM      9  N   UNL     1      26.068  14.293  -3.191  0.00  0.00    -0.134 NA
ATOM     10  C   UNL     1      25.547  15.550  -3.306  0.00  0.00    +0.086 A 
ATOM     11  C   UNL     1      24.285  15.564  -2.758  0.00  0.00    +0.140 A 
ATOM     12  N   UNL     1      24.083  14.282  -2.298  0.00  0.00    -0.218 N 
ATOM     13  N   UNL     1      25.173  13.529  -2.583  0.00  0.00    -0.060 NA
BRANCH  12  14
ATOM     14  C   UNL     1      22.965  13.755  -1.618  0.00  0.00    +0.085 A 
ATOM     15  C   UNL     1      21.694  14.328  -1.725  0.00  0.00    +0.031 A 
ATOM     16  C   UNL     1      20.635  13.774  -1.010  0.00  0.00    +0.022 A 
ATOM     17  C   UNL     1      20.881  12.667  -0.216  0.00  0.00    +0.111 A 
ATOM     18  N   UNL     1      22.093  12.087  -0.096  0.00  0.00    -0.261 NA
ATOM     19  C   UNL     1      23.112  12.641  -0.799  0.00  0.00    +0.138 A 
ENDBRANCH  12  14
ENDBRANCH   8  10
ENDBRANCH   7   8
ENDBRANCH   6   7
ENDBRANCH   2   6
ENDBRANCH   1   3
BRANCH   1  20
ATOM     20  C   UNL     1      28.053  13.245   0.872  0.00  0.00    +0.193 C 
ATOM     21  O   UNL     1      28.748  12.007   0.604  0.00  0.00    -0.219 OA
BRANCH  20  22
ATOM     22  C   UNL     1      28.734  13.803   2.142  0.00  0.00    +0.212 C 
ATOM     23  O   UNL     1      27.764  14.009   3.182  0.00  0.00    -0.218 OA
BRANCH  22  24
ATOM     24  C   UNL     1      29.878  12.872   2.697  0.00  0.00    +0.171 C 
ATOM     25  O   UNL     1      29.663  12.488   4.051  0.00  0.00    -0.343 OA
ATOM     26  C   UNL     1      30.625  11.876   4.859  0.00  0.00    +0.220 C 
ATOM     27  C   UNL     1      31.959  12.642   4.836  0.00  0.00    +0.076 C 
ATOM     28  C   UNL     1      32.367  12.818   3.364  0.00  0.00    +0.177 C 
ATOM     29  O   UNL     1      33.618  13.487   3.288  0.00  0.00    -0.221 OA
ATOM     30  C   UNL     1      31.260  13.597   2.589  0.00  0.00    +0.155 C 
BRANCH  30  31
ATOM     31  N   UNL     1      31.647  13.772   1.192  0.00  0.00    -0.202 NA
ATOM     32  C   UNL     1      31.711  14.903   0.445  0.00  0.00    +0.242 C 
ATOM     33  C   UNL     1      32.423  14.845  -0.882  0.00  0.00    +0.096 C 
ATOM     34  O   UNL     1      31.195  15.938   0.863  0.00  0.00    -0.273 OA
ENDBRANCH  30  31
BRANCH  26  35
ATOM     35  C   UNL     1      30.836  10.299   4.531  0.00  0.00    +0.391 C 
ATOM     36  O   UNL     1      31.965   9.957   5.183  0.00  0.00    -0.243 OA
ATOM     37  O   UNL     1      29.681   9.872   4.006  0.00  0.00    -0.243 OA
ENDBRANCH  26  35
ENDBRANCH  22  24
ENDBRANCH  20  22
ENDBRANCH   1  20
TORSDOF 11
