REMARK VINA RESULT:    -6.183      3.102      8.572
REMARK INTER + INTRA:         -13.196
REMARK INTER:                 -11.161
REMARK INTRA:                  -2.035
REMARK UNBOUND:                -1.953
REMARK  Name = lig_assembled_13.pdb
REMARK  15 active torsions:
REMARK  status: ('A' for Active; 'I' for Inactive)
REMARK    1  A    between atoms: _2  and  _8
REMARK    2  A    between atoms: _4  and  _10
REMARK    3  A    between atoms: _5  and  _6
REMARK    4  A    between atoms: _5  and  _13
REMARK    5  A    between atoms: _8  and  _9
REMARK    6  A    between atoms: _9  and  _11
REMARK    7  A    between atoms: _10  and  _11
REMARK    8  A    between atoms: _13  and  _15
REMARK    9  A    between atoms: _14  and  _19
REMARK   10  A    between atoms: _15  and  _18
REMARK   11  A    between atoms: _23  and  _33
REMARK   12  A    between atoms: _25  and  _26
REMARK   13  A    between atoms: _27  and  _29
REMARK   14  A    between atoms: _29  and  _31
REMARK   15  A    between atoms: _31  and  _33
REMARK                            x       y       z     vdW  Elec       q    Type
REMARK                         _______ _______ _______ _____ _____    ______ ____
ROOT
ATOM      1  C   UNL     1      26.721  15.599  -2.836  0.00  0.00    +0.152 C 
ENDROOT
BRANCH   1   3
ATOM      2  C   UNL     1      27.771  17.686  -1.425  0.00  0.00    +0.400 C 
ATOM      3  N   UNL     1      26.921  16.854  -2.116  0.00  0.00    -0.278 N 
ATOM      4  H   UNL     1      25.999  17.395  -2.126  0.00  0.00    +0.152 HD
ATOM      5  O   UNL     1      27.386  18.824  -1.169  0.00  0.00    -0.226 OA
BRANCH   2   6
ATOM      6  O   UNL     1      28.903  17.167  -1.080  0.00  0.00    -0.450 OA
BRANCH   6   7
ATOM      7  C   UNL     1      29.833  17.238  -0.024  0.00  0.00    +0.240 C 
BRANCH   7   8
ATOM      8  C   UNL     1      30.894  16.125   0.065  0.00  0.00    +0.100 C 
BRANCH   8  10
ATOM      9  N   UNL     1      31.086  14.632   2.029  0.00  0.00    -0.134 NA
ATOM     10  C   UNL     1      30.407  15.017   0.905  0.00  0.00    +0.086 A 
ATOM     11  C   UNL     1      29.300  14.218   0.752  0.00  0.00    +0.134 A 
ATOM     12  N   UNL     1      29.396  13.323   1.777  0.00  0.00    -0.241 N 
ATOM     13  N   UNL     1      30.444  13.603   2.569  0.00  0.00    -0.065 NA
BRANCH  12  14
ATOM     14  C   UNL     1      28.488  12.253   2.122  0.00  0.00    +0.265 C 
BRANCH  14  15
ATOM     15  C   UNL     1      27.378  12.724   3.019  0.00  0.00    +0.329 C 
ATOM     16  O   UNL     1      27.363  13.752   3.679  0.00  0.00    -0.249 OA
BRANCH  15  17
ATOM     17  O   UNL     1      26.409  11.760   3.068  0.00  0.00    -0.464 OA
BRANCH  17  18
ATOM     18  C   UNL     1      26.728  10.548   2.366  0.00  0.00    +0.229 C 
ATOM     19  C   UNL     1      26.028   9.402   3.077  0.00  0.00    +0.048 C 
ENDBRANCH  17  18
ENDBRANCH  15  17
ENDBRANCH  14  15
ENDBRANCH  12  14
ENDBRANCH   8  10
ENDBRANCH   7   8
ENDBRANCH   6   7
ENDBRANCH   2   6
ENDBRANCH   1   3
BRANCH   1  20
ATOM     20  C   UNL     1      25.778  15.659  -4.055  0.00  0.00    +0.193 C 
ATOM     21  O   UNL     1      26.619  15.704  -5.229  0.00  0.00    -0.219 OA
BRANCH  20  22
ATOM     22  C   UNL     1      24.844  14.452  -4.297  0.00  0.00    +0.212 C 
ATOM     23  O   UNL     1      25.550  13.399  -4.972  0.00  0.00    -0.218 OA
BRANCH  22  24
ATOM     24  C   UNL     1      24.220  13.871  -2.971  0.00  0.00    +0.171 C 
ATOM     25  O   UNL     1      24.768  12.605  -2.616  0.00  0.00    -0.343 OA
ATOM     26  C   UNL     1      24.234  11.761  -1.640  0.00  0.00    +0.220 C 
ATOM     27  C   UNL     1      22.727  11.533  -1.845  0.00  0.00    +0.076 C 
ATOM     28  C   UNL     1      22.059  12.915  -1.941  0.00  0.00    +0.177 C 
ATOM     29  O   UNL     1      20.654  12.761  -2.092  0.00  0.00    -0.221 OA
ATOM     30  C   UNL     1      22.670  13.726  -3.125  0.00  0.00    +0.155 C 
BRANCH  30  31
ATOM     31  N   UNL     1      22.033  15.036  -3.225  0.00  0.00    -0.202 NA
ATOM     32  C   UNL     1      21.237  15.543  -4.201  0.00  0.00    +0.242 C 
ATOM     33  C   UNL     1      20.474  16.810  -3.916  0.00  0.00    +0.096 C 
ATOM     34  O   UNL     1      21.156  14.962  -5.281  0.00  0.00    -0.273 OA
ENDBRANCH  30  31
BRANCH  26  35
ATOM     35  C   UNL     1      24.565  12.237  -0.122  0.00  0.00    +0.391 C 
ATOM     36  O   UNL     1      23.665  11.595   0.648  0.00  0.00    -0.243 OA
ATOM     37  O   UNL     1      25.764  12.830  -0.173  0.00  0.00    -0.243 OA
ENDBRANCH  26  35
ENDBRANCH  22  24
ENDBRANCH  20  22
ENDBRANCH   1  20
TORSDOF 14
