REMARK VINA RESULT:    -8.705      1.517      2.113
REMARK INTER + INTRA:         -16.071
REMARK INTER:                 -13.844
REMARK INTRA:                  -2.226
REMARK UNBOUND:                -1.768
REMARK  Name = lig_assembled_91.pdb
REMARK  11 active torsions:
REMARK  status: ('A' for Active; 'I' for Inactive)
REMARK    1  A    between atoms: _2  and  _9
REMARK    2  A    between atoms: _6  and  _7
REMARK    3  A    between atoms: _6  and  _21
REMARK    4  A    between atoms: _21  and  _23
REMARK    5  A    between atoms: _22  and  _27
REMARK    6  A    between atoms: _23  and  _26
REMARK    7  A    between atoms: _31  and  _41
REMARK    8  A    between atoms: _33  and  _34
REMARK    9  A    between atoms: _35  and  _37
REMARK   10  A    between atoms: _37  and  _39
REMARK   11  A    between atoms: _39  and  _41
REMARK                            x       y       z     vdW  Elec       q    Type
REMARK                         _______ _______ _______ _____ _____    ______ ____
ROOT
ATOM      1  C   UNL     1      28.200  16.836  -0.728  0.00  0.00    +0.400 C 
ATOM      2  N   UNL     1      28.338  15.563  -0.225  0.00  0.00    -0.278 N 
ATOM      3  H   UNL     1      28.710  15.727   0.763  0.00  0.00    +0.152 HD
ATOM      4  O   UNL     1      28.332  17.782   0.045  0.00  0.00    -0.226 OA
ENDROOT
BRANCH   1   5
ATOM      5  O   UNL     1      27.969  16.914  -1.997  0.00  0.00    -0.450 OA
BRANCH   5   6
ATOM      6  C   UNL     1      26.988  17.414  -2.876  0.00  0.00    +0.240 C 
BRANCH   6   7
ATOM      7  C   UNL     1      26.705  16.609  -4.158  0.00  0.00    +0.100 C 
BRANCH   7   9
ATOM      8  N   UNL     1      25.348  14.637  -4.764  0.00  0.00    -0.134 NA
ATOM      9  C   UNL     1      25.539  15.726  -3.969  0.00  0.00    +0.086 A 
ATOM     10  C   UNL     1      24.520  15.785  -3.045  0.00  0.00    +0.139 A 
ATOM     11  N   UNL     1      23.687  14.725  -3.344  0.00  0.00    -0.219 N 
ATOM     12  N   UNL     1      24.232  14.037  -4.380  0.00  0.00    -0.060 NA
BRANCH  11  13
ATOM     13  C   UNL     1      22.451  14.339  -2.739  0.00  0.00    +0.085 A 
ATOM     14  C   UNL     1      22.444  13.428  -1.622  0.00  0.00    +0.026 A 
ATOM     15  C   UNL     1      21.172  13.095  -1.117  0.00  0.00    +0.074 A 
ATOM     16  C   UNL     1      21.038  12.226  -0.045  0.00  0.00    +0.028 A 
ATOM     17  C   UNL     1      22.136  11.652   0.587  0.00  0.00    +0.002 A 
ATOM     18  C   UNL     1      23.404  11.978   0.150  0.00  0.00    +0.001 A 
ATOM     19  N   UNL     1      20.031  13.586  -1.597  0.00  0.00    -0.247 NA
ATOM     20  C   UNL     1      20.044  14.450  -2.611  0.00  0.00    +0.074 A 
ATOM     21  C   UNL     1      18.796  14.897  -3.033  0.00  0.00    +0.028 A 
ATOM     22  C   UNL     1      18.644  15.772  -4.104  0.00  0.00    +0.002 A 
ATOM     23  C   UNL     1      19.768  16.203  -4.781  0.00  0.00    +0.001 A 
ATOM     24  C   UNL     1      21.029  15.758  -4.372  0.00  0.00    +0.012 A 
ATOM     25  C   UNL     1      23.558  12.867  -0.920  0.00  0.00    +0.012 A 
ATOM     26  C   UNL     1      21.215  14.878  -3.257  0.00  0.00    +0.026 A 
ENDBRANCH  11  13
ENDBRANCH   7   9
ENDBRANCH   6   7
ENDBRANCH   5   6
ENDBRANCH   1   5
BRANCH   2  27
ATOM     27  C   UNL     1      28.194  14.124  -0.426  0.00  0.00    +0.152 C 
BRANCH  27  28
ATOM     28  C   UNL     1      28.097  13.266   0.852  0.00  0.00    +0.193 C 
ATOM     29  O   UNL     1      28.784  12.026   0.573  0.00  0.00    -0.219 OA
BRANCH  28  30
ATOM     30  C   UNL     1      28.779  13.805   2.129  0.00  0.00    +0.212 C 
ATOM     31  O   UNL     1      27.819  13.946   3.189  0.00  0.00    -0.218 OA
BRANCH  30  32
ATOM     32  C   UNL     1      29.961  12.895   2.638  0.00  0.00    +0.171 C 
ATOM     33  O   UNL     1      29.784  12.468   3.984  0.00  0.00    -0.343 OA
ATOM     34  C   UNL     1      30.778  11.864   4.758  0.00  0.00    +0.220 C 
ATOM     35  C   UNL     1      32.088  12.670   4.732  0.00  0.00    +0.076 C 
ATOM     36  C   UNL     1      32.463  12.898   3.259  0.00  0.00    +0.177 C 
ATOM     37  O   UNL     1      33.692  13.607   3.178  0.00  0.00    -0.221 OA
ATOM     38  C   UNL     1      31.318  13.664   2.525  0.00  0.00    +0.155 C 
BRANCH  38  39
ATOM     39  N   UNL     1      31.673  13.888   1.126  0.00  0.00    -0.202 NA
ATOM     40  C   UNL     1      31.705  15.043   0.414  0.00  0.00    +0.242 C 
ATOM     41  C   UNL     1      32.390  15.037  -0.928  0.00  0.00    +0.096 C 
ATOM     42  O   UNL     1      31.182  16.056   0.874  0.00  0.00    -0.273 OA
ENDBRANCH  38  39
BRANCH  34  43
ATOM     43  C   UNL     1      31.030  10.304   4.384  0.00  0.00    +0.391 C 
ATOM     44  O   UNL     1      32.239  10.013   4.902  0.00  0.00    -0.243 OA
ATOM     45  O   UNL     1      29.847   9.824   3.981  0.00  0.00    -0.243 OA
ENDBRANCH  34  43
ENDBRANCH  30  32
ENDBRANCH  28  30
ENDBRANCH  27  28
ENDBRANCH   2  27
TORSDOF 11
