REMARK VINA RESULT:    -6.008      1.727      2.530
REMARK INTER + INTRA:         -12.135
REMARK INTER:                 -10.453
REMARK INTRA:                  -1.683
REMARK UNBOUND:                -2.263
REMARK  Name = lig_assembled_52.pdb
REMARK  11 active torsions:
REMARK  status: ('A' for Active; 'I' for Inactive)
REMARK    1  A    between atoms: _2  and  _9
REMARK    2  A    between atoms: _6  and  _7
REMARK    3  A    between atoms: _6  and  _13
REMARK    4  A    between atoms: _13  and  _15
REMARK    5  A    between atoms: _14  and  _19
REMARK    6  A    between atoms: _15  and  _18
REMARK    7  A    between atoms: _23  and  _33
REMARK    8  A    between atoms: _25  and  _26
REMARK    9  A    between atoms: _27  and  _29
REMARK   10  A    between atoms: _29  and  _31
REMARK   11  A    between atoms: _31  and  _33
REMARK                            x       y       z     vdW  Elec       q    Type
REMARK                         _______ _______ _______ _____ _____    ______ ____
ROOT
ATOM      1  C   UNL     1      30.423  13.188  -1.975  0.00  0.00    +0.152 C 
ENDROOT
BRANCH   1   3
ATOM      2  C   UNL     1      28.929  14.770  -0.328  0.00  0.00    +0.400 C 
ATOM      3  N   UNL     1      29.738  13.776  -0.827  0.00  0.00    -0.278 N 
ATOM      4  H   UNL     1      29.931  13.162   0.027  0.00  0.00    +0.152 HD
ATOM      5  O   UNL     1      28.494  14.644   0.814  0.00  0.00    -0.226 OA
BRANCH   2   6
ATOM      6  O   UNL     1      28.726  15.774  -1.116  0.00  0.00    -0.450 OA
BRANCH   6   7
ATOM      7  C   UNL     1      27.652  16.508  -1.656  0.00  0.00    +0.240 C 
BRANCH   7   8
ATOM      8  C   UNL     1      26.991  15.963  -2.937  0.00  0.00    +0.100 C 
BRANCH   8  10
ATOM      9  N   UNL     1      25.782  14.031  -1.976  0.00  0.00    -0.134 NA
ATOM     10  C   UNL     1      25.748  15.242  -2.605  0.00  0.00    +0.086 A 
ATOM     11  C   UNL     1      24.437  15.596  -2.826  0.00  0.00    +0.140 A 
ATOM     12  N   UNL     1      23.696  14.568  -2.291  0.00  0.00    -0.218 N 
ATOM     13  N   UNL     1      24.533  13.626  -1.793  0.00  0.00    -0.060 NA
BRANCH  12  14
ATOM     14  C   UNL     1      22.293  14.438  -2.216  0.00  0.00    +0.085 A 
ATOM     15  C   UNL     1      21.673  13.653  -1.239  0.00  0.00    +0.031 A 
ATOM     16  C   UNL     1      20.284  13.548  -1.232  0.00  0.00    +0.022 A 
ATOM     17  C   UNL     1      19.563  14.232  -2.197  0.00  0.00    +0.111 A 
ATOM     18  N   UNL     1      20.132  15.003  -3.148  0.00  0.00    -0.261 NA
ATOM     19  C   UNL     1      21.485  15.092  -3.140  0.00  0.00    +0.138 A 
ENDBRANCH  12  14
ENDBRANCH   8  10
ENDBRANCH   7   8
ENDBRANCH   6   7
ENDBRANCH   2   6
ENDBRANCH   1   3
BRANCH   1  20
ATOM     20  C   UNL     1      31.863  12.695  -1.728  0.00  0.00    +0.193 C 
ATOM     21  O   UNL     1      32.475  12.532  -3.027  0.00  0.00    -0.219 OA
BRANCH  20  22
ATOM     22  C   UNL     1      32.821  13.637  -0.966  0.00  0.00    +0.212 C 
ATOM     23  O   UNL     1      32.431  15.008  -1.154  0.00  0.00    -0.218 OA
BRANCH  22  24
ATOM     24  C   UNL     1      32.889  13.341   0.580  0.00  0.00    +0.171 C 
ATOM     25  O   UNL     1      31.995  14.152   1.334  0.00  0.00    -0.343 OA
ATOM     26  C   UNL     1      32.021  14.272   2.726  0.00  0.00    +0.220 C 
ATOM     27  C   UNL     1      33.433  14.596   3.244  0.00  0.00    +0.076 C 
ATOM     28  C   UNL     1      34.391  13.540   2.666  0.00  0.00    +0.177 C 
ATOM     29  O   UNL     1      35.708  13.770   3.147  0.00  0.00    -0.221 OA
ATOM     30  C   UNL     1      34.344  13.568   1.107  0.00  0.00    +0.155 C 
BRANCH  30  31
ATOM     31  N   UNL     1      35.258  12.571   0.554  0.00  0.00    -0.202 NA
ATOM     32  C   UNL     1      36.263  12.720  -0.346  0.00  0.00    +0.242 C 
ATOM     33  C   UNL     1      37.240  11.586  -0.521  0.00  0.00    +0.096 C 
ATOM     34  O   UNL     1      36.353  13.763  -0.989  0.00  0.00    -0.273 OA
ENDBRANCH  30  31
BRANCH  26  35
ATOM     35  C   UNL     1      31.381  12.994   3.497  0.00  0.00    +0.391 C 
ATOM     36  O   UNL     1      30.521  12.449   2.614  0.00  0.00    -0.243 OA
ATOM     37  O   UNL     1      32.149  12.789   4.574  0.00  0.00    -0.243 OA
ENDBRANCH  26  35
ENDBRANCH  22  24
ENDBRANCH  20  22
ENDBRANCH   1  20
TORSDOF 11
