REMARK VINA RESULT:    -6.912      3.502      8.557
REMARK INTER + INTRA:         -14.918
REMARK INTER:                 -12.113
REMARK INTRA:                  -2.805
REMARK UNBOUND:                -2.551
REMARK  Name = lig_assembled_64.pdb
REMARK  14 active torsions:
REMARK  status: ('A' for Active; 'I' for Inactive)
REMARK    1  A    between atoms: _2  and  _9
REMARK    2  A    between atoms: _6  and  _7
REMARK    3  A    between atoms: _6  and  _22
REMARK    4  A    between atoms: _11  and  _12
REMARK    5  A    between atoms: _12  and  _20
REMARK    6  A    between atoms: _13  and  _14
REMARK    7  A    between atoms: _22  and  _24
REMARK    8  A    between atoms: _23  and  _28
REMARK    9  A    between atoms: _24  and  _27
REMARK   10  A    between atoms: _32  and  _42
REMARK   11  A    between atoms: _34  and  _35
REMARK   12  A    between atoms: _36  and  _38
REMARK   13  A    between atoms: _38  and  _40
REMARK   14  A    between atoms: _40  and  _42
REMARK                            x       y       z     vdW  Elec       q    Type
REMARK                         _______ _______ _______ _____ _____    ______ ____
ROOT
ATOM      1  O   UNL     1      34.529  13.558  -1.465  0.00  0.00    -0.450 OA
ENDROOT
BRANCH   1   2
ATOM      2  C   UNL     1      33.557  14.152  -2.076  0.00  0.00    +0.400 C 
ATOM      3  N   UNL     1      32.566  14.657  -1.267  0.00  0.00    -0.278 N 
ATOM      4  H   UNL     1      31.987  15.260  -1.933  0.00  0.00    +0.152 HD
ATOM      5  O   UNL     1      33.461  14.327  -3.288  0.00  0.00    -0.226 OA
BRANCH   3   6
ATOM      6  C   UNL     1      31.956  14.725   0.058  0.00  0.00    +0.152 C 
BRANCH   6   7
ATOM      7  C   UNL     1      30.435  14.977   0.094  0.00  0.00    +0.193 C 
ATOM      8  O   UNL     1      30.227  16.331  -0.367  0.00  0.00    -0.219 OA
BRANCH   7   9
ATOM      9  C   UNL     1      29.545  14.116  -0.830  0.00  0.00    +0.212 C 
ATOM     10  O   UNL     1      30.245  12.928  -1.234  0.00  0.00    -0.218 OA
BRANCH   9  11
ATOM     11  C   UNL     1      28.179  13.694  -0.165  0.00  0.00    +0.171 C 
ATOM     12  O   UNL     1      28.289  12.501   0.605  0.00  0.00    -0.343 OA
ATOM     13  C   UNL     1      27.201  11.777   1.095  0.00  0.00    +0.220 C 
ATOM     14  C   UNL     1      26.168  11.482  -0.007  0.00  0.00    +0.076 C 
ATOM     15  C   UNL     1      25.808  12.820  -0.673  0.00  0.00    +0.177 C 
ATOM     16  O   UNL     1      24.824  12.609  -1.675  0.00  0.00    -0.221 OA
ATOM     17  C   UNL     1      27.088  13.487  -1.266  0.00  0.00    +0.155 C 
BRANCH  17  18
ATOM     18  N   UNL     1      26.748  14.756  -1.905  0.00  0.00    -0.202 NA
ATOM     19  C   UNL     1      26.636  15.060  -3.223  0.00  0.00    +0.242 C 
ATOM     20  C   UNL     1      25.986  16.365  -3.604  0.00  0.00    +0.096 C 
ATOM     21  O   UNL     1      27.061  14.274  -4.067  0.00  0.00    -0.273 OA
ENDBRANCH  17  18
BRANCH  13  22
ATOM     22  C   UNL     1      26.506  12.455   2.398  0.00  0.00    +0.391 C 
ATOM     23  O   UNL     1      25.420  11.698   2.647  0.00  0.00    -0.243 OA
ATOM     24  O   UNL     1      27.414  13.300   2.903  0.00  0.00    -0.243 OA
ENDBRANCH  13  22
ENDBRANCH   9  11
ENDBRANCH   7   9
ENDBRANCH   6   7
ENDBRANCH   3   6
ENDBRANCH   1   2
BRANCH   1  25
ATOM     25  C   UNL     1      35.489  13.826  -0.470  0.00  0.00    +0.240 C 
BRANCH  25  26
ATOM     26  C   UNL     1      35.820  12.695   0.522  0.00  0.00    +0.100 C 
BRANCH  26  28
ATOM     27  N   UNL     1      35.362  13.906   2.638  0.00  0.00    -0.134 NA
ATOM     28  C   UNL     1      35.078  12.880   1.784  0.00  0.00    +0.086 A 
ATOM     29  C   UNL     1      34.050  12.132   2.308  0.00  0.00    +0.139 A 
ATOM     30  N   UNL     1      33.738  12.740   3.501  0.00  0.00    -0.220 N 
ATOM     31  N   UNL     1      34.542  13.816   3.679  0.00  0.00    -0.061 NA
BRANCH  30  32
ATOM     32  C   UNL     1      32.751  12.371   4.446  0.00  0.00    +0.071 A 
ATOM     33  C   UNL     1      31.501  11.933   4.020  0.00  0.00    +0.063 A 
ATOM     34  CA  UNL     1      30.583  11.588   4.991  0.00  0.00    +0.150 A 
ATOM     35  N   UNL     1      30.808  11.651   6.335  0.00  0.00    -0.240 NA
ATOM     36  C   UNL     1      32.029  12.092   6.743  0.00  0.00    +0.074 A 
ATOM     37  C   UNL     1      33.020  12.445   5.821  0.00  0.00    +0.056 A 
BRANCH  36  38
ATOM     38  C   UNL     1      32.215  12.194   8.210  0.00  0.00    +0.000 A 
ATOM     39  C   UNL     1      33.486  12.107   8.811  0.00  0.00    +0.010 A 
ATOM     40  C   UNL     1      33.654  12.241  10.195  0.00  0.00    +0.001 A 
ATOM     41  C   UNL     1      32.552  12.467  11.013  0.00  0.00    +0.000 A 
ATOM     42  C   UNL     1      31.284  12.551  10.451  0.00  0.00    +0.001 A 
ATOM     43  C   UNL     1      31.119  12.414   9.067  0.00  0.00    +0.010 A 
ENDBRANCH  36  38
BRANCH  34  44
ATOM     44  C   UNL     1      29.229  11.114   4.581  0.00  0.00    +0.355 C 
ATOM     45  OXT UNL     1      29.019  10.317   3.684  0.00  0.00    -0.243 OA
BRANCH  44  46
ATOM     46  O   UNL     1      28.269  11.693   5.339  0.00  0.00    -0.476 OA
ATOM     47  H   UNL     1      28.315  11.322   6.250  0.00  0.00    +0.295 HD
ENDBRANCH  44  46
ENDBRANCH  34  44
ENDBRANCH  30  32
ENDBRANCH  26  28
ENDBRANCH  25  26
ENDBRANCH   1  25
TORSDOF 14
