REMARK VINA RESULT:    -6.268      3.555      8.564
REMARK INTER + INTRA:         -12.504
REMARK INTER:                 -10.488
REMARK INTRA:                  -2.016
REMARK UNBOUND:                -1.839
REMARK  Name = lig_assembled_61.pdb
REMARK  12 active torsions:
REMARK  status: ('A' for Active; 'I' for Inactive)
REMARK    1  A    between atoms: _2  and  _8
REMARK    2  A    between atoms: _5  and  _6
REMARK    3  A    between atoms: _5  and  _12
REMARK    4  A    between atoms: _8  and  _9
REMARK    5  A    between atoms: _12  and  _14
REMARK    6  A    between atoms: _13  and  _18
REMARK    7  A    between atoms: _14  and  _17
REMARK    8  A    between atoms: _22  and  _32
REMARK    9  A    between atoms: _24  and  _25
REMARK   10  A    between atoms: _26  and  _28
REMARK   11  A    between atoms: _28  and  _30
REMARK   12  A    between atoms: _30  and  _32
REMARK                            x       y       z     vdW  Elec       q    Type
REMARK                         _______ _______ _______ _____ _____    ______ ____
ROOT
ATOM      1  C   UNL     1      26.221  16.404  -3.017  0.00  0.00    +0.152 C 
ENDROOT
BRANCH   1   3
ATOM      2  C   UNL     1      27.746  17.519  -1.048  0.00  0.00    +0.400 C 
ATOM      3  N   UNL     1      26.699  17.165  -1.865  0.00  0.00    -0.278 N 
ATOM      4  H   UNL     1      25.875  17.716  -1.464  0.00  0.00    +0.152 HD
ATOM      5  O   UNL     1      27.573  18.434  -0.247  0.00  0.00    -0.226 OA
BRANCH   2   6
ATOM      6  O   UNL     1      28.824  16.819  -1.185  0.00  0.00    -0.450 OA
BRANCH   6   7
ATOM      7  C   UNL     1      29.524  15.794  -0.517  0.00  0.00    +0.240 C 
BRANCH   7   8
ATOM      8  C   UNL     1      30.749  16.202   0.324  0.00  0.00    +0.100 C 
BRANCH   8  10
ATOM      9  N   UNL     1      31.290  13.801   0.588  0.00  0.00    -0.134 NA
ATOM     10  C   UNL     1      31.225  15.060   1.126  0.00  0.00    +0.086 A 
ATOM     11  C   UNL     1      31.659  15.015   2.434  0.00  0.00    +0.134 A 
ATOM     12  N   UNL     1      31.915  13.693   2.647  0.00  0.00    -0.247 N 
ATOM     13  N   UNL     1      31.733  12.973   1.524  0.00  0.00    -0.065 NA
BRANCH  12  14
ATOM     14  C   UNL     1      32.369  13.051   3.867  0.00  0.00    +0.180 C 
BRANCH  14  15
ATOM     15  C   UNL     1      31.468  11.915   4.269  0.00  0.00    -0.019 A 
ATOM     16  C   UNL     1      31.863  10.534   4.298  0.00  0.00    +0.013 A 
ATOM     17  C   UNL     1      30.834   9.693   4.664  0.00  0.00    +0.045 A 
ATOM     18  S   UNL     1      29.393  10.549   4.990  0.00  0.00    -0.105 S 
ATOM     19  C   UNL     1      30.137  12.044   4.629  0.00  0.00    +0.050 A 
ENDBRANCH  14  15
ENDBRANCH  12  14
ENDBRANCH   8  10
ENDBRANCH   7   8
ENDBRANCH   6   7
ENDBRANCH   2   6
ENDBRANCH   1   3
BRANCH   1  20
ATOM     20  C   UNL     1      25.340  15.177  -2.703  0.00  0.00    +0.193 C 
ATOM     21  O   UNL     1      24.557  14.914  -3.888  0.00  0.00    -0.219 OA
BRANCH  20  22
ATOM     22  C   UNL     1      26.056  13.840  -2.409  0.00  0.00    +0.212 C 
ATOM     23  O   UNL     1      27.461  13.952  -2.686  0.00  0.00    -0.218 OA
BRANCH  22  24
ATOM     24  C   UNL     1      25.873  13.348  -0.923  0.00  0.00    +0.171 C 
ATOM     25  O   UNL     1      26.983  12.588  -0.457  0.00  0.00    -0.343 OA
ATOM     26  C   UNL     1      26.984  11.833   0.718  0.00  0.00    +0.220 C 
ATOM     27  C   UNL     1      25.762  10.901   0.798  0.00  0.00    +0.076 C 
ATOM     28  C   UNL     1      24.507  11.763   0.584  0.00  0.00    +0.177 C 
ATOM     29  O   UNL     1      23.344  10.954   0.688  0.00  0.00    -0.221 OA
ATOM     30  C   UNL     1      24.578  12.479  -0.801  0.00  0.00    +0.155 C 
BRANCH  30  31
ATOM     31  N   UNL     1      23.384  13.294  -1.012  0.00  0.00    -0.202 NA
ATOM     32  C   UNL     1      22.328  13.088  -1.839  0.00  0.00    +0.242 C 
ATOM     33  C   UNL     1      21.093  13.930  -1.646  0.00  0.00    +0.096 C 
ATOM     34  O   UNL     1      22.401  12.229  -2.715  0.00  0.00    -0.273 OA
ENDBRANCH  30  31
BRANCH  26  35
ATOM     35  C   UNL     1      27.139  12.730   2.064  0.00  0.00    +0.391 C 
ATOM     36  O   UNL     1      26.717  11.933   3.064  0.00  0.00    -0.243 OA
ATOM     37  O   UNL     1      27.892  13.783   1.721  0.00  0.00    -0.243 OA
ENDBRANCH  26  35
ENDBRANCH  22  24
ENDBRANCH  20  22
ENDBRANCH   1  20
TORSDOF 12
