REMARK VINA RESULT:    -7.358      2.535      8.434
REMARK INTER + INTRA:         -14.064
REMARK INTER:                 -12.350
REMARK INTRA:                  -1.714
REMARK UNBOUND:                -1.544
REMARK  Name = lig_assembled_69.pdb
REMARK  13 active torsions:
REMARK  status: ('A' for Active; 'I' for Inactive)
REMARK    1  A    between atoms: _2  and  _8
REMARK    2  A    between atoms: _5  and  _6
REMARK    3  A    between atoms: _5  and  _16
REMARK    4  A    between atoms: _10  and  _15
REMARK    5  A    between atoms: _13  and  _14
REMARK    6  A    between atoms: _16  and  _18
REMARK    7  A    between atoms: _17  and  _22
REMARK    8  A    between atoms: _18  and  _21
REMARK    9  A    between atoms: _26  and  _36
REMARK   10  A    between atoms: _28  and  _29
REMARK   11  A    between atoms: _30  and  _32
REMARK   12  A    between atoms: _32  and  _34
REMARK   13  A    between atoms: _34  and  _36
REMARK                            x       y       z     vdW  Elec       q    Type
REMARK                         _______ _______ _______ _____ _____    ______ ____
ROOT
ATOM      1  C   UNL     1      28.810  17.056  -0.488  0.00  0.00    +0.400 C 
ATOM      2  N   UNL     1      28.813  15.893   0.245  0.00  0.00    -0.278 N 
ATOM      3  H   UNL     1      29.493  16.106   1.043  0.00  0.00    +0.152 HD
ATOM      4  O   UNL     1      29.373  18.041  -0.016  0.00  0.00    -0.226 OA
ENDROOT
BRANCH   1   5
ATOM      5  O   UNL     1      28.229  16.989  -1.641  0.00  0.00    -0.450 OA
BRANCH   5   6
ATOM      6  C   UNL     1      27.041  17.415  -2.265  0.00  0.00    +0.240 C 
BRANCH   6   7
ATOM      7  C   UNL     1      26.842  17.042  -3.746  0.00  0.00    +0.100 C 
BRANCH   7   9
ATOM      8  N   UNL     1      25.452  15.518  -5.107  0.00  0.00    -0.134 NA
ATOM      9  C   UNL     1      25.848  15.960  -3.874  0.00  0.00    +0.086 A 
ATOM     10  C   UNL     1      25.176  15.252  -2.903  0.00  0.00    +0.134 A 
ATOM     11  N   UNL     1      24.376  14.404  -3.610  0.00  0.00    -0.248 N 
ATOM     12  N   UNL     1      24.545  14.569  -4.934  0.00  0.00    -0.065 NA
BRANCH  11  13
ATOM     13  C   UNL     1      23.394  13.452  -3.094  0.00  0.00    +0.114 C 
ATOM     14  C   UNL     1      22.051  13.581  -3.822  0.00  0.00    +0.062 C 
ATOM     15  C   UNL     1      21.097  14.656  -3.296  0.00  0.00    +0.139 C 
ATOM     16  C   UNL     1      20.468  14.397  -1.956  0.00  0.00    +0.002 C 
ATOM     17  C   UNL     1      20.887  13.580  -0.977  0.00  0.00    +0.002 C 
ATOM     18  C   UNL     1      22.175  12.818  -0.905  0.00  0.00    +0.139 C 
ATOM     19  C   UNL     1      23.361  13.518  -1.560  0.00  0.00    +0.062 C 
BRANCH  18  20
ATOM     20  O   UNL     1      21.990  11.527  -1.463  0.00  0.00    -0.388 OA
ATOM     21  H   UNL     1      22.721  10.967  -1.149  0.00  0.00    +0.210 HD
ENDBRANCH  18  20
BRANCH  15  22
ATOM     22  O   UNL     1      20.005  14.735  -4.222  0.00  0.00    -0.388 OA
ATOM     23  H   UNL     1      19.708  13.826  -4.397  0.00  0.00    +0.210 HD
ENDBRANCH  15  22
ENDBRANCH  11  13
ENDBRANCH   7   9
ENDBRANCH   6   7
ENDBRANCH   5   6
ENDBRANCH   1   5
BRANCH   2  24
ATOM     24  C   UNL     1      28.306  14.536   0.428  0.00  0.00    +0.152 C 
BRANCH  24  25
ATOM     25  C   UNL     1      28.592  13.881   1.795  0.00  0.00    +0.193 C 
ATOM     26  O   UNL     1      27.373  13.223   2.204  0.00  0.00    -0.219 OA
BRANCH  25  27
ATOM     27  C   UNL     1      29.665  12.771   1.845  0.00  0.00    +0.212 C 
ATOM     28  O   UNL     1      29.266  11.652   1.036  0.00  0.00    -0.218 OA
BRANCH  27  29
ATOM     29  C   UNL     1      31.087  13.255   1.369  0.00  0.00    +0.171 C 
ATOM     30  O   UNL     1      31.267  13.128  -0.037  0.00  0.00    -0.343 OA
ATOM     31  C   UNL     1      32.497  13.251  -0.689  0.00  0.00    +0.220 C 
ATOM     32  C   UNL     1      33.578  12.370  -0.038  0.00  0.00    +0.076 C 
ATOM     33  C   UNL     1      33.604  12.705   1.463  0.00  0.00    +0.177 C 
ATOM     34  O   UNL     1      34.617  11.945   2.108  0.00  0.00    -0.221 OA
ATOM     35  C   UNL     1      32.204  12.438   2.098  0.00  0.00    +0.155 C 
BRANCH  35  36
ATOM     36  N   UNL     1      32.227  12.747   3.525  0.00  0.00    -0.202 NA
ATOM     37  C   UNL     1      31.982  11.944   4.592  0.00  0.00    +0.242 C 
ATOM     38  C   UNL     1      32.363  12.440   5.963  0.00  0.00    +0.096 C 
ATOM     39  O   UNL     1      31.464  10.843   4.417  0.00  0.00    -0.273 OA
ENDBRANCH  35  36
BRANCH  31  40
ATOM     40  C   UNL     1      32.995  14.789  -0.847  0.00  0.00    +0.391 C 
ATOM     41  O   UNL     1      34.293  14.700  -1.195  0.00  0.00    -0.243 OA
ATOM     42  O   UNL     1      31.885  15.536  -0.872  0.00  0.00    -0.243 OA
ENDBRANCH  31  40
ENDBRANCH  27  29
ENDBRANCH  25  27
ENDBRANCH  24  25
ENDBRANCH   2  24
TORSDOF 13
