REMARK VINA RESULT:    -7.370      1.500      2.917
REMARK INTER + INTRA:         -13.742
REMARK INTER:                 -12.155
REMARK INTRA:                  -1.587
REMARK UNBOUND:                -1.202
REMARK  Name = lig_assembled_38.pdb
REMARK  12 active torsions:
REMARK  status: ('A' for Active; 'I' for Inactive)
REMARK    1  A    between atoms: _2  and  _8
REMARK    2  A    between atoms: _5  and  _6
REMARK    3  A    between atoms: _5  and  _14
REMARK    4  A    between atoms: _8  and  _9
REMARK    5  A    between atoms: _14  and  _16
REMARK    6  A    between atoms: _15  and  _20
REMARK    7  A    between atoms: _16  and  _19
REMARK    8  A    between atoms: _24  and  _34
REMARK    9  A    between atoms: _26  and  _27
REMARK   10  A    between atoms: _28  and  _30
REMARK   11  A    between atoms: _30  and  _32
REMARK   12  A    between atoms: _32  and  _34
REMARK                            x       y       z     vdW  Elec       q    Type
REMARK                         _______ _______ _______ _____ _____    ______ ____
ROOT
ATOM      1  C   UNL     1      27.892  17.362  -0.946  0.00  0.00    +0.400 C 
ATOM      2  N   UNL     1      28.521  16.467  -0.114  0.00  0.00    -0.278 N 
ATOM      3  H   UNL     1      28.717  17.043   0.765  0.00  0.00    +0.152 HD
ATOM      4  O   UNL     1      27.555  18.448  -0.481  0.00  0.00    -0.226 OA
ENDROOT
BRANCH   2   5
ATOM      5  C   UNL     1      29.017  15.111   0.109  0.00  0.00    +0.152 C 
BRANCH   5   6
ATOM      6  C   UNL     1      30.550  14.952   0.180  0.00  0.00    +0.193 C 
ATOM      7  O   UNL     1      30.982  15.625   1.383  0.00  0.00    -0.219 OA
BRANCH   6   8
ATOM      8  C   UNL     1      31.114  13.520   0.317  0.00  0.00    +0.212 C 
ATOM      9  O   UNL     1      31.992  13.221  -0.780  0.00  0.00    -0.218 OA
BRANCH   8  10
ATOM     10  C   UNL     1      31.894  13.282   1.666  0.00  0.00    +0.171 C 
ATOM     11  O   UNL     1      33.215  12.795   1.456  0.00  0.00    -0.343 OA
ATOM     12  C   UNL     1      34.032  12.274   2.463  0.00  0.00    +0.220 C 
ATOM     13  C   UNL     1      33.304  11.198   3.288  0.00  0.00    +0.076 C 
ATOM     14  C   UNL     1      31.981  11.808   3.779  0.00  0.00    +0.177 C 
ATOM     15  O   UNL     1      31.285  10.866   4.582  0.00  0.00    -0.221 OA
ATOM     16  C   UNL     1      31.116  12.265   2.563  0.00  0.00    +0.155 C 
BRANCH  16  17
ATOM     17  N   UNL     1      29.854  12.838   3.026  0.00  0.00    -0.202 NA
ATOM     18  C   UNL     1      28.579  12.446   2.775  0.00  0.00    +0.242 C 
ATOM     19  C   UNL     1      27.473  13.032   3.613  0.00  0.00    +0.096 C 
ATOM     20  O   UNL     1      28.359  11.630   1.883  0.00  0.00    -0.273 OA
ENDBRANCH  16  17
BRANCH  12  21
ATOM     21  C   UNL     1      34.691  13.413   3.416  0.00  0.00    +0.391 C 
ATOM     22  O   UNL     1      34.091  14.562   3.049  0.00  0.00    -0.243 OA
ATOM     23  O   UNL     1      35.338  12.755   4.385  0.00  0.00    -0.243 OA
ENDBRANCH  12  21
ENDBRANCH   8  10
ENDBRANCH   6   8
ENDBRANCH   5   6
ENDBRANCH   2   5
BRANCH   1  24
ATOM     24  O   UNL     1      27.740  16.976  -2.171  0.00  0.00    -0.450 OA
BRANCH  24  25
ATOM     25  C   UNL     1      26.931  17.261  -3.288  0.00  0.00    +0.240 C 
BRANCH  25  26
ATOM     26  C   UNL     1      26.482  16.074  -4.162  0.00  0.00    +0.100 C 
BRANCH  26  28
ATOM     27  N   UNL     1      24.482  15.839  -2.719  0.00  0.00    -0.134 NA
ATOM     28  C   UNL     1      25.487  15.253  -3.442  0.00  0.00    +0.086 A 
ATOM     29  C   UNL     1      25.349  13.885  -3.381  0.00  0.00    +0.134 A 
ATOM     30  N   UNL     1      24.208  13.701  -2.653  0.00  0.00    -0.247 N 
ATOM     31  N   UNL     1      23.699  14.879  -2.246  0.00  0.00    -0.065 NA
BRANCH  30  32
ATOM     32  C   UNL     1      23.435  12.481  -2.513  0.00  0.00    +0.180 C 
BRANCH  32  33
ATOM     33  C   UNL     1      22.920  12.253  -1.113  0.00  0.00    -0.025 A 
ATOM     34  C   UNL     1      21.560  12.416  -0.808  0.00  0.00    +0.005 A 
ATOM     35  C   UNL     1      21.075  12.116   0.468  0.00  0.00    +0.001 A 
ATOM     36  C   UNL     1      21.942  11.651   1.455  0.00  0.00    +0.015 A 
ATOM     37  C   UNL     1      23.295  11.497   1.165  0.00  0.00    +0.018 A 
ATOM     38 BR   UNL     1      24.474  10.857   2.498  0.00  0.00    -0.050 Br
ATOM     39  C   UNL     1      23.787  11.793  -0.108  0.00  0.00    +0.020 A 
ENDBRANCH  32  33
ENDBRANCH  30  32
ENDBRANCH  26  28
ENDBRANCH  25  26
ENDBRANCH  24  25
ENDBRANCH   1  24
TORSDOF 12
