REMARK VINA RESULT:    -5.724      2.770      9.545
REMARK INTER + INTRA:         -12.644
REMARK INTER:                 -11.222
REMARK INTRA:                  -1.421
REMARK UNBOUND:                -2.235
REMARK  Name = lig_assembled_50.pdb
REMARK  15 active torsions:
REMARK  status: ('A' for Active; 'I' for Inactive)
REMARK    1  A    between atoms: _2  and  _8
REMARK    2  A    between atoms: _4  and  _9
REMARK    3  A    between atoms: _4  and  _10
REMARK    4  A    between atoms: _5  and  _6
REMARK    5  A    between atoms: _5  and  _12
REMARK    6  A    between atoms: _8  and  _9
REMARK    7  A    between atoms: _9  and  _11
REMARK    8  A    between atoms: _12  and  _14
REMARK    9  A    between atoms: _13  and  _18
REMARK   10  A    between atoms: _14  and  _17
REMARK   11  A    between atoms: _22  and  _32
REMARK   12  A    between atoms: _24  and  _25
REMARK   13  A    between atoms: _26  and  _28
REMARK   14  A    between atoms: _28  and  _30
REMARK   15  A    between atoms: _30  and  _32
REMARK                            x       y       z     vdW  Elec       q    Type
REMARK                         _______ _______ _______ _____ _____    ______ ____
ROOT
ATOM      1  C   UNL     1      27.926  17.741  -1.099  0.00  0.00    +0.400 C 
ATOM      2  N   UNL     1      27.163  17.588  -2.233  0.00  0.00    -0.278 N 
ATOM      3  H   UNL     1      26.229  18.031  -1.964  0.00  0.00    +0.152 HD
ATOM      4  O   UNL     1      27.484  18.446  -0.194  0.00  0.00    -0.226 OA
ENDROOT
BRANCH   2   5
ATOM      5  C   UNL     1      27.065  17.116  -3.611  0.00  0.00    +0.152 C 
BRANCH   5   6
ATOM      6  C   UNL     1      25.935  16.108  -3.905  0.00  0.00    +0.193 C 
ATOM      7  O   UNL     1      25.934  15.891  -5.334  0.00  0.00    -0.219 OA
BRANCH   6   8
ATOM      8  C   UNL     1      26.065  14.692  -3.301  0.00  0.00    +0.212 C 
ATOM      9  O   UNL     1      26.799  14.739  -2.066  0.00  0.00    -0.218 OA
BRANCH   8  10
ATOM     10  C   UNL     1      24.676  13.996  -3.036  0.00  0.00    +0.171 C 
ATOM     11  O   UNL     1      23.831  14.767  -2.188  0.00  0.00    -0.343 OA
ATOM     12  C   UNL     1      22.658  14.289  -1.598  0.00  0.00    +0.220 C 
ATOM     13  C   UNL     1      22.889  12.952  -0.873  0.00  0.00    +0.076 C 
ATOM     14  C   UNL     1      23.549  11.990  -1.874  0.00  0.00    +0.177 C 
ATOM     15  O   UNL     1      23.748  10.722  -1.265  0.00  0.00    -0.221 OA
ATOM     16  C   UNL     1      24.895  12.589  -2.389  0.00  0.00    +0.155 C 
BRANCH  16  17
ATOM     17  N   UNL     1      25.528  11.675  -3.336  0.00  0.00    -0.202 NA
ATOM     18  C   UNL     1      26.719  11.029  -3.253  0.00  0.00    +0.242 C 
ATOM     19  C   UNL     1      26.998   9.917  -4.231  0.00  0.00    +0.096 C 
ATOM     20  O   UNL     1      27.532  11.360  -2.392  0.00  0.00    -0.273 OA
ENDBRANCH  16  17
BRANCH  12  21
ATOM     21  C   UNL     1      21.405  14.201  -2.629  0.00  0.00    +0.391 C 
ATOM     22  O   UNL     1      21.931  14.469  -3.839  0.00  0.00    -0.243 OA
ATOM     23  O   UNL     1      20.411  13.611  -1.953  0.00  0.00    -0.243 OA
ENDBRANCH  12  21
ENDBRANCH   8  10
ENDBRANCH   6   8
ENDBRANCH   5   6
ENDBRANCH   2   5
BRANCH   1  24
ATOM     24  O   UNL     1      29.042  17.090  -1.082  0.00  0.00    -0.450 OA
BRANCH  24  25
ATOM     25  C   UNL     1      29.820  16.326  -0.191  0.00  0.00    +0.240 C 
BRANCH  25  26
ATOM     26  C   UNL     1      29.209  15.017   0.345  0.00  0.00    +0.100 C 
BRANCH  26  28
ATOM     27  N   UNL     1      29.757  13.837   2.453  0.00  0.00    -0.134 NA
ATOM     28  C   UNL     1      30.162  14.332   1.240  0.00  0.00    +0.086 A 
ATOM     29  C   UNL     1      31.505  14.063   1.069  0.00  0.00    +0.133 A 
ATOM     30  N   UNL     1      31.855  13.413   2.210  0.00  0.00    -0.249 N 
ATOM     31  N   UNL     1      30.801  13.263   3.033  0.00  0.00    -0.065 NA
BRANCH  30  32
ATOM     32  C   UNL     1      33.155  12.916   2.596  0.00  0.00    +0.178 C 
BRANCH  32  33
ATOM     33  C   UNL     1      33.637  13.422   3.960  0.00  0.00    +0.161 C 
BRANCH  33  34
ATOM     34  O   UNL     1      34.557  12.525   4.589  0.00  0.00    -0.388 OA
ATOM     35  H   UNL     1      35.376  13.016   4.800  0.00  0.00    +0.210 HD
ENDBRANCH  33  34
BRANCH  33  36
ATOM     36  C   UNL     1      34.239  14.833   3.913  0.00  0.00    +0.189 C 
BRANCH  36  37
ATOM     37  O   UNL     1      35.179  14.961   2.847  0.00  0.00    -0.392 OA
ATOM     38  H   UNL     1      35.770  14.184   2.866  0.00  0.00    +0.210 HD
ENDBRANCH  36  37
ENDBRANCH  33  36
ENDBRANCH  32  33
ENDBRANCH  30  32
ENDBRANCH  26  28
ENDBRANCH  25  26
ENDBRANCH  24  25
ENDBRANCH   1  24
TORSDOF 15
