REMARK VINA RESULT:    -6.460      1.722      2.862
REMARK INTER + INTRA:         -14.366
REMARK INTER:                 -12.438
REMARK INTRA:                  -1.928
REMARK UNBOUND:                -1.675
REMARK  Name = lig_assembled_33.pdb
REMARK  17 active torsions:
REMARK  status: ('A' for Active; 'I' for Inactive)
REMARK    1  A    between atoms: _2  and  _8
REMARK    2  A    between atoms: _4  and  _12
REMARK    3  A    between atoms: _4  and  _13
REMARK    4  A    between atoms: _5  and  _6
REMARK    5  A    between atoms: _5  and  _15
REMARK    6  A    between atoms: _8  and  _9
REMARK    7  A    between atoms: _9  and  _10
REMARK    8  A    between atoms: _10  and  _11
REMARK    9  A    between atoms: _11  and  _12
REMARK   10  A    between atoms: _15  and  _17
REMARK   11  A    between atoms: _16  and  _21
REMARK   12  A    between atoms: _17  and  _20
REMARK   13  A    between atoms: _25  and  _35
REMARK   14  A    between atoms: _27  and  _28
REMARK   15  A    between atoms: _29  and  _31
REMARK   16  A    between atoms: _31  and  _33
REMARK   17  A    between atoms: _33  and  _35
REMARK                            x       y       z     vdW  Elec       q    Type
REMARK                         _______ _______ _______ _____ _____    ______ ____
ROOT
ATOM      1  C   UNL     1      27.855  17.334  -0.803  0.00  0.00    +0.400 C 
ATOM      2  N   UNL     1      28.468  16.246  -0.225  0.00  0.00    -0.278 N 
ATOM      3  H   UNL     1      28.640  16.565   0.780  0.00  0.00    +0.152 HD
ATOM      4  O   UNL     1      27.503  18.256  -0.072  0.00  0.00    -0.226 OA
ENDROOT
BRANCH   1   5
ATOM      5  O   UNL     1      27.736  17.291  -2.089  0.00  0.00    -0.450 OA
BRANCH   5   6
ATOM      6  C   UNL     1      26.735  17.409  -3.073  0.00  0.00    +0.240 C 
BRANCH   6   7
ATOM      7  C   UNL     1      26.495  16.195  -3.992  0.00  0.00    +0.100 C 
BRANCH   7   9
ATOM      8  N   UNL     1      25.927  14.416  -2.371  0.00  0.00    -0.134 NA
ATOM      9  C   UNL     1      25.535  15.263  -3.373  0.00  0.00    +0.086 A 
ATOM     10  C   UNL     1      24.198  15.060  -3.637  0.00  0.00    +0.133 A 
ATOM     11  N   UNL     1      23.837  14.084  -2.759  0.00  0.00    -0.251 N 
ATOM     12  N   UNL     1      24.881  13.686  -2.012  0.00  0.00    -0.065 NA
BRANCH  11  13
ATOM     13  C   UNL     1      22.534  13.474  -2.581  0.00  0.00    +0.145 C 
BRANCH  13  14
ATOM     14  C   UNL     1      21.581  14.377  -1.799  0.00  0.00    +0.023 C 
BRANCH  14  15
ATOM     15  C   UNL     1      20.586  13.584  -0.947  0.00  0.00    +0.002 C 
BRANCH  15  16
ATOM     16  C   UNL     1      21.157  12.198  -0.636  0.00  0.00    +0.011 C 
BRANCH  16  17
ATOM     17  C   UNL     1      21.377  11.969   0.857  0.00  0.00    +0.120 C 
BRANCH  17  18
ATOM     18  C   UNL     1      22.766  11.440   1.132  0.00  0.00    +0.305 C 
ATOM     19  O   UNL     1      23.068  10.680   2.039  0.00  0.00    -0.251 OA
BRANCH  18  20
ATOM     20  O   UNL     1      23.678  11.899   0.242  0.00  0.00    -0.481 OA
ATOM     21  H   UNL     1      24.602  11.747   0.512  0.00  0.00    +0.295 HD
ENDBRANCH  18  20
ENDBRANCH  17  18
ENDBRANCH  16  17
ENDBRANCH  15  16
ENDBRANCH  14  15
ENDBRANCH  13  14
ENDBRANCH  11  13
ENDBRANCH   7   9
ENDBRANCH   6   7
ENDBRANCH   5   6
ENDBRANCH   1   5
BRANCH   2  22
ATOM     22  C   UNL     1      28.964  14.879  -0.362  0.00  0.00    +0.152 C 
BRANCH  22  23
ATOM     23  C   UNL     1      28.486  13.873   0.705  0.00  0.00    +0.193 C 
ATOM     24  O   UNL     1      29.013  12.583   0.324  0.00  0.00    -0.219 OA
BRANCH  23  25
ATOM     25  C   UNL     1      28.979  14.079   2.154  0.00  0.00    +0.212 C 
ATOM     26  O   UNL     1      27.888  13.945   3.079  0.00  0.00    -0.218 OA
BRANCH  25  27
ATOM     27  C   UNL     1      30.121  13.077   2.573  0.00  0.00    +0.171 C 
ATOM     28  O   UNL     1      29.789  12.322   3.734  0.00  0.00    -0.343 OA
ATOM     29  C   UNL     1      30.699  11.548   4.458  0.00  0.00    +0.220 C 
ATOM     30  C   UNL     1      31.968  12.343   4.813  0.00  0.00    +0.076 C 
ATOM     31  C   UNL     1      32.520  12.939   3.508  0.00  0.00    +0.177 C 
ATOM     32  O   UNL     1      33.719  13.653   3.774  0.00  0.00    -0.221 OA
ATOM     33  C   UNL     1      31.449  13.858   2.841  0.00  0.00    +0.155 C 
BRANCH  33  34
ATOM     34  N   UNL     1      31.973  14.433   1.604  0.00  0.00    -0.202 NA
ATOM     35  C   UNL     1      32.360  13.818   0.458  0.00  0.00    +0.242 C 
ATOM     36  C   UNL     1      32.582  14.664  -0.768  0.00  0.00    +0.096 C 
ATOM     37  O   UNL     1      32.518  12.599   0.446  0.00  0.00    -0.273 OA
ENDBRANCH  33  34
BRANCH  29  38
ATOM     38  C   UNL     1      31.060  10.135   3.743  0.00  0.00    +0.391 C 
ATOM     39  O   UNL     1      32.132   9.670   4.413  0.00  0.00    -0.243 OA
ATOM     40  O   UNL     1      30.004   9.826   2.980  0.00  0.00    -0.243 OA
ENDBRANCH  29  38
ENDBRANCH  25  27
ENDBRANCH  23  25
ENDBRANCH  22  23
ENDBRANCH   2  22
TORSDOF 17
