REMARK VINA RESULT:    -6.963      1.280      1.601
REMARK INTER + INTRA:         -14.443
REMARK INTER:                 -12.545
REMARK INTRA:                  -1.899
REMARK UNBOUND:                -2.596
REMARK  Name = lig_assembled_4.pdb
REMARK  14 active torsions:
REMARK  status: ('A' for Active; 'I' for Inactive)
REMARK    1  A    between atoms: _2  and  _8
REMARK    2  A    between atoms: _5  and  _6
REMARK    3  A    between atoms: _5  and  _16
REMARK    4  A    between atoms: _9  and  _10
REMARK    5  A    between atoms: _10  and  _11
REMARK    6  A    between atoms: _10  and  _12
REMARK    7  A    between atoms: _16  and  _18
REMARK    8  A    between atoms: _17  and  _22
REMARK    9  A    between atoms: _18  and  _21
REMARK   10  A    between atoms: _26  and  _36
REMARK   11  A    between atoms: _28  and  _29
REMARK   12  A    between atoms: _30  and  _32
REMARK   13  A    between atoms: _32  and  _34
REMARK   14  A    between atoms: _34  and  _36
REMARK                            x       y       z     vdW  Elec       q    Type
REMARK                         _______ _______ _______ _____ _____    ______ ____
ROOT
ATOM      1  C   UNL     1      28.150  17.077  -0.862  0.00  0.00    +0.400 C 
ATOM      2  N   UNL     1      28.467  15.839  -0.354  0.00  0.00    -0.278 N 
ATOM      3  H   UNL     1      28.894  16.065   0.599  0.00  0.00    +0.152 HD
ATOM      4  O   UNL     1      28.238  18.049  -0.116  0.00  0.00    -0.226 OA
ENDROOT
BRANCH   2   5
ATOM      5  C   UNL     1      28.468  14.388  -0.523  0.00  0.00    +0.152 C 
BRANCH   5   6
ATOM      6  C   UNL     1      29.789  13.666  -0.187  0.00  0.00    +0.193 C 
ATOM      7  O   UNL     1      29.778  12.419  -0.917  0.00  0.00    -0.219 OA
BRANCH   6   8
ATOM      8  C   UNL     1      31.106  14.350  -0.613  0.00  0.00    +0.212 C 
ATOM      9  O   UNL     1      31.252  15.616   0.050  0.00  0.00    -0.218 OA
BRANCH   8  10
ATOM     10  C   UNL     1      32.386  13.478  -0.321  0.00  0.00    +0.171 C 
ATOM     11  O   UNL     1      33.090  13.910   0.839  0.00  0.00    -0.343 OA
ATOM     12  C   UNL     1      34.373  13.480   1.188  0.00  0.00    +0.220 C 
ATOM     13  C   UNL     1      35.358  13.613   0.014  0.00  0.00    +0.076 C 
ATOM     14  C   UNL     1      34.740  12.889  -1.194  0.00  0.00    +0.177 C 
ATOM     15  O   UNL     1      35.630  12.948  -2.298  0.00  0.00    -0.221 OA
ATOM     16  C   UNL     1      33.356  13.520  -1.547  0.00  0.00    +0.155 C 
BRANCH  16  17
ATOM     17  N   UNL     1      32.768  12.839  -2.698  0.00  0.00    -0.202 NA
ATOM     18  C   UNL     1      32.778  13.187  -4.010  0.00  0.00    +0.242 C 
ATOM     19  C   UNL     1      32.353  12.159  -5.026  0.00  0.00    +0.096 C 
ATOM     20  O   UNL     1      33.132  14.319  -4.336  0.00  0.00    -0.273 OA
ENDBRANCH  16  17
BRANCH  12  21
ATOM     21  C   UNL     1      34.403  11.987   1.827  0.00  0.00    +0.391 C 
ATOM     22  O   UNL     1      35.593  11.475   1.457  0.00  0.00    -0.243 OA
ATOM     23  O   UNL     1      33.398  11.942   2.710  0.00  0.00    -0.243 OA
ENDBRANCH  12  21
ENDBRANCH   8  10
ENDBRANCH   6   8
ENDBRANCH   5   6
ENDBRANCH   2   5
BRANCH   1  24
ATOM     24  O   UNL     1      27.814  17.101  -2.110  0.00  0.00    -0.450 OA
BRANCH  24  25
ATOM     25  C   UNL     1      26.730  17.498  -2.917  0.00  0.00    +0.240 C 
BRANCH  25  26
ATOM     26  C   UNL     1      26.399  16.625  -4.142  0.00  0.00    +0.100 C 
BRANCH  26  28
ATOM     27  N   UNL     1      24.926  14.736  -4.732  0.00  0.00    -0.134 NA
ATOM     28  C   UNL     1      25.424  15.577  -3.788  0.00  0.00    +0.086 A 
ATOM     29  C   UNL     1      24.843  15.288  -2.574  0.00  0.00    +0.139 A 
ATOM     30  N   UNL     1      23.886  14.333  -2.858  0.00  0.00    -0.220 N 
ATOM     31  N   UNL     1      24.012  13.967  -4.151  0.00  0.00    -0.061 NA
BRANCH  30  32
ATOM     32  C   UNL     1      22.893  13.810  -1.976  0.00  0.00    +0.070 A 
ATOM     33  C   UNL     1      23.150  12.775  -1.036  0.00  0.00    -0.019 A 
ATOM     34  C   UNL     1      22.067  12.329  -0.245  0.00  0.00    +0.006 A 
ATOM     35  C   UNL     1      20.783  12.862  -0.376  0.00  0.00    +0.000 A 
ATOM     36  C   UNL     1      20.547  13.876  -1.290  0.00  0.00    +0.002 A 
ATOM     37  C   UNL     1      21.590  14.346  -2.085  0.00  0.00    +0.028 A 
BRANCH  33  38
ATOM     38  C   UNL     1      24.514  12.111  -0.836  0.00  0.00    +0.015 C 
ATOM     39  C   UNL     1      24.827  10.962  -1.807  0.00  0.00    +0.012 C 
ATOM     40  C   UNL     1      24.651  11.622   0.608  0.00  0.00    +0.012 C 
ENDBRANCH  33  38
ENDBRANCH  30  32
ENDBRANCH  26  28
ENDBRANCH  25  26
ENDBRANCH  24  25
ENDBRANCH   1  24
TORSDOF 12
