REMARK VINA RESULT:    -6.833      1.926      2.825
REMARK INTER + INTRA:         -13.360
REMARK INTER:                 -11.909
REMARK INTRA:                  -1.451
REMARK UNBOUND:                -2.133
REMARK  Name = lig_assembled_7.pdb
REMARK  14 active torsions:
REMARK  status: ('A' for Active; 'I' for Inactive)
REMARK    1  A    between atoms: _2  and  _8
REMARK    2  A    between atoms: _4  and  _15
REMARK    3  A    between atoms: _5  and  _6
REMARK    4  A    between atoms: _5  and  _16
REMARK    5  A    between atoms: _9  and  _10
REMARK    6  A    between atoms: _12  and  _13
REMARK    7  A    between atoms: _16  and  _18
REMARK    8  A    between atoms: _17  and  _22
REMARK    9  A    between atoms: _18  and  _21
REMARK   10  A    between atoms: _26  and  _36
REMARK   11  A    between atoms: _28  and  _29
REMARK   12  A    between atoms: _30  and  _32
REMARK   13  A    between atoms: _32  and  _34
REMARK   14  A    between atoms: _34  and  _36
REMARK                            x       y       z     vdW  Elec       q    Type
REMARK                         _______ _______ _______ _____ _____    ______ ____
ROOT
ATOM      1  C   UNL     1      28.035  17.130  -0.892  0.00  0.00    +0.400 C 
ATOM      2  N   UNL     1      28.569  16.135  -0.108  0.00  0.00    -0.278 N 
ATOM      3  H   UNL     1      28.885  16.655   0.771  0.00  0.00    +0.152 HD
ATOM      4  O   UNL     1      27.877  18.240  -0.390  0.00  0.00    -0.226 OA
ENDROOT
BRANCH   1   5
ATOM      5  O   UNL     1      27.774  16.801  -2.114  0.00  0.00    -0.450 OA
BRANCH   5   6
ATOM      6  C   UNL     1      26.877  17.144  -3.145  0.00  0.00    +0.240 C 
BRANCH   6   7
ATOM      7  C   UNL     1      26.370  16.008  -4.053  0.00  0.00    +0.100 C 
BRANCH   7   9
ATOM      8  N   UNL     1      24.782  15.477  -2.245  0.00  0.00    -0.134 NA
ATOM      9  C   UNL     1      25.067  15.513  -3.573  0.00  0.00    +0.086 A 
ATOM     10  C   UNL     1      23.974  15.041  -4.276  0.00  0.00    +0.139 A 
ATOM     11  N   UNL     1      23.052  14.679  -3.317  0.00  0.00    -0.219 N 
ATOM     12  N   UNL     1      23.556  15.001  -2.099  0.00  0.00    -0.061 NA
BRANCH  11  13
ATOM     13  C   UNL     1      21.760  14.078  -3.472  0.00  0.00    +0.073 A 
ATOM     14  C   UNL     1      21.641  12.657  -3.430  0.00  0.00    -0.024 A 
ATOM     15  C   UNL     1      20.371  12.056  -3.581  0.00  0.00    +0.008 A 
ATOM     16  C   UNL     1      19.222  12.819  -3.761  0.00  0.00    -0.050 A 
ATOM     17  C   UNL     1      17.889  12.149  -3.916  0.00  0.00    +0.044 C 
ATOM     18  C   UNL     1      19.343  14.206  -3.799  0.00  0.00    +0.008 A 
ATOM     19  C   UNL     1      22.791  11.705  -3.180  0.00  0.00    +0.046 C 
ATOM     20  C   UNL     1      20.593  14.857  -3.680  0.00  0.00    -0.024 A 
ATOM     21  C   UNL     1      20.518  16.351  -3.874  0.00  0.00    +0.046 C 
ENDBRANCH  11  13
ENDBRANCH   7   9
ENDBRANCH   6   7
ENDBRANCH   5   6
ENDBRANCH   1   5
BRANCH   2  22
ATOM     22  C   UNL     1      28.879  14.718   0.064  0.00  0.00    +0.152 C 
BRANCH  22  23
ATOM     23  C   UNL     1      29.831  14.366   1.226  0.00  0.00    +0.193 C 
ATOM     24  O   UNL     1      30.081  12.946   1.142  0.00  0.00    -0.219 OA
BRANCH  23  25
ATOM     25  C   UNL     1      31.237  15.007   1.217  0.00  0.00    +0.212 C 
ATOM     26  O   UNL     1      31.217  16.270   1.900  0.00  0.00    -0.218 OA
BRANCH  25  27
ATOM     27  C   UNL     1      32.342  14.095   1.874  0.00  0.00    +0.171 C 
ATOM     28  O   UNL     1      32.814  14.614   3.113  0.00  0.00    -0.343 OA
ATOM     29  C   UNL     1      33.948  14.147   3.782  0.00  0.00    +0.220 C 
ATOM     30  C   UNL     1      35.172  14.081   2.852  0.00  0.00    +0.076 C 
ATOM     31  C   UNL     1      34.768  13.263   1.614  0.00  0.00    +0.177 C 
ATOM     32  O   UNL     1      35.879  13.137   0.737  0.00  0.00    -0.221 OA
ATOM     33  C   UNL     1      33.554  13.934   0.899  0.00  0.00    +0.155 C 
BRANCH  33  34
ATOM     34  N   UNL     1      33.172  13.163  -0.282  0.00  0.00    -0.202 NA
ATOM     35  C   UNL     1      33.081  13.551  -1.579  0.00  0.00    +0.242 C 
ATOM     36  C   UNL     1      32.951  12.486  -2.637  0.00  0.00    +0.096 C 
ATOM     37  O   UNL     1      33.107  14.748  -1.858  0.00  0.00    -0.273 OA
ENDBRANCH  33  34
BRANCH  29  38
ATOM     38  C   UNL     1      33.709  12.739   4.557  0.00  0.00    +0.391 C 
ATOM     39  O   UNL     1      34.944  12.304   4.874  0.00  0.00    -0.243 OA
ATOM     40  O   UNL     1      32.404  12.694   4.849  0.00  0.00    -0.243 OA
ENDBRANCH  29  38
ENDBRANCH  25  27
ENDBRANCH  23  25
ENDBRANCH  22  23
ENDBRANCH   2  22
TORSDOF 11
