REMARK VINA RESULT:    -7.925      2.213      3.406
REMARK INTER + INTRA:         -16.227
REMARK INTER:                 -14.851
REMARK INTRA:                  -1.376
REMARK UNBOUND:                -1.120
REMARK  Name = lig_assembled_76.pdb
REMARK  16 active torsions:
REMARK  status: ('A' for Active; 'I' for Inactive)
REMARK    1  A    between atoms: _2  and  _8
REMARK    2  A    between atoms: _5  and  _6
REMARK    3  A    between atoms: _5  and  _18
REMARK    4  A    between atoms: _8  and  _9
REMARK    5  A    between atoms: _9  and  _10
REMARK    6  A    between atoms: _9  and  _17
REMARK    7  A    between atoms: _10  and  _11
REMARK    8  A    between atoms: _11  and  _12
REMARK    9  A    between atoms: _18  and  _20
REMARK   10  A    between atoms: _19  and  _24
REMARK   11  A    between atoms: _20  and  _23
REMARK   12  A    between atoms: _28  and  _38
REMARK   13  A    between atoms: _30  and  _31
REMARK   14  A    between atoms: _32  and  _34
REMARK   15  A    between atoms: _34  and  _36
REMARK   16  A    between atoms: _36  and  _38
REMARK                            x       y       z     vdW  Elec       q    Type
REMARK                         _______ _______ _______ _____ _____    ______ ____
ROOT
ATOM      1  C   UNL     1      28.328  17.670  -0.564  0.00  0.00    +0.400 C 
ATOM      2  N   UNL     1      29.465  17.346   0.138  0.00  0.00    -0.278 N 
ATOM      3  H   UNL     1      29.456  18.035   0.955  0.00  0.00    +0.152 HD
ATOM      4  O   UNL     1      27.537  18.459  -0.053  0.00  0.00    -0.226 OA
ENDROOT
BRANCH   1   5
ATOM      5  O   UNL     1      28.216  17.125  -1.731  0.00  0.00    -0.450 OA
BRANCH   5   6
ATOM      6  C   UNL     1      27.356  16.251  -2.424  0.00  0.00    +0.240 C 
BRANCH   6   7
ATOM      7  C   UNL     1      26.424  16.865  -3.486  0.00  0.00    +0.100 C 
BRANCH   7   9
ATOM      8  N   UNL     1      25.288  15.301  -5.038  0.00  0.00    -0.134 NA
ATOM      9  C   UNL     1      25.339  15.928  -3.820  0.00  0.00    +0.086 A 
ATOM     10  C   UNL     1      24.254  15.540  -3.066  0.00  0.00    +0.133 A 
ATOM     11  N   UNL     1      23.588  14.673  -3.878  0.00  0.00    -0.249 N 
ATOM     12  N   UNL     1      24.202  14.538  -5.065  0.00  0.00    -0.065 NA
BRANCH  11  13
ATOM     13  C   UNL     1      22.305  14.050  -3.642  0.00  0.00    +0.176 C 
BRANCH  13  14
ATOM     14  C   UNL     1      21.536  14.689  -2.481  0.00  0.00    +0.136 C 
BRANCH  14  15
ATOM     15  O   UNL     1      20.927  15.916  -2.908  0.00  0.00    -0.390 OA
ATOM     16  H   UNL     1      21.226  16.638  -2.329  0.00  0.00    +0.210 HD
ENDBRANCH  14  15
BRANCH  14  17
ATOM     17  C   UNL     1      20.417  13.781  -1.949  0.00  0.00    +0.038 C 
BRANCH  17  18
ATOM     18  C   UNL     1      20.420  13.639  -0.426  0.00  0.00    +0.038 C 
BRANCH  18  19
ATOM     19  C   UNL     1      21.063  12.353   0.023  0.00  0.00    -0.047 A 
ATOM     20  C   UNL     1      21.320  12.128   1.383  0.00  0.00    +0.003 A 
ATOM     21  C   UNL     1      21.899  10.930   1.804  0.00  0.00    +0.000 A 
ATOM     22  C   UNL     1      22.232   9.952   0.870  0.00  0.00    +0.000 A 
ATOM     23  C   UNL     1      21.990  10.171  -0.485  0.00  0.00    +0.000 A 
ATOM     24  C   UNL     1      21.412  11.368  -0.909  0.00  0.00    +0.003 A 
ENDBRANCH  18  19
ENDBRANCH  17  18
ENDBRANCH  14  17
ENDBRANCH  13  14
ENDBRANCH  11  13
ENDBRANCH   7   9
ENDBRANCH   6   7
ENDBRANCH   5   6
ENDBRANCH   1   5
BRANCH   2  25
ATOM     25  C   UNL     1      30.643  16.493   0.273  0.00  0.00    +0.152 C 
BRANCH  25  26
ATOM     26  C   UNL     1      30.423  15.134   0.967  0.00  0.00    +0.193 C 
ATOM     27  O   UNL     1      29.170  14.613   0.471  0.00  0.00    -0.219 OA
BRANCH  26  28
ATOM     28  C   UNL     1      31.446  14.012   0.683  0.00  0.00    +0.212 C 
ATOM     29  O   UNL     1      32.431  14.459  -0.262  0.00  0.00    -0.218 OA
BRANCH  28  30
ATOM     30  C   UNL     1      32.185  13.499   1.978  0.00  0.00    +0.171 C 
ATOM     31  O   UNL     1      33.521  13.082   1.716  0.00  0.00    -0.343 OA
ATOM     32  C   UNL     1      34.313  12.366   2.617  0.00  0.00    +0.220 C 
ATOM     33  C   UNL     1      33.579  11.131   3.167  0.00  0.00    +0.076 C 
ATOM     34  C   UNL     1      32.229  11.609   3.730  0.00  0.00    +0.177 C 
ATOM     35  O   UNL     1      31.525  10.509   4.289  0.00  0.00    -0.221 OA
ATOM     36  C   UNL     1      31.396  12.305   2.609  0.00  0.00    +0.155 C 
BRANCH  36  37
ATOM     37  N   UNL     1      30.111  12.754   3.138  0.00  0.00    -0.202 NA
ATOM     38  C   UNL     1      28.860  12.292   2.886  0.00  0.00    +0.242 C 
ATOM     39  C   UNL     1      27.737  12.737   3.787  0.00  0.00    +0.096 C 
ATOM     40  O   UNL     1      28.673  11.529   1.940  0.00  0.00    -0.273 OA
ENDBRANCH  36  37
BRANCH  32  41
ATOM     41  C   UNL     1      34.921  13.282   3.813  0.00  0.00    +0.391 C 
ATOM     42  O   UNL     1      35.209  12.414   4.803  0.00  0.00    -0.243 OA
ATOM     43  O   UNL     1      35.184  14.476   3.268  0.00  0.00    -0.243 OA
ENDBRANCH  32  41
ENDBRANCH  28  30
ENDBRANCH  26  28
ENDBRANCH  25  26
ENDBRANCH   2  25
TORSDOF 16
