REMARK VINA RESULT:    -6.283      4.105      9.649
REMARK INTER + INTRA:         -13.357
REMARK INTER:                 -11.544
REMARK INTRA:                  -1.813
REMARK UNBOUND:                -1.931
REMARK  Name = lig_assembled_55.pdb
REMARK  15 active torsions:
REMARK  status: ('A' for Active; 'I' for Inactive)
REMARK    1  A    between atoms: _2  and  _9
REMARK    2  A    between atoms: _3  and  _10
REMARK    3  A    between atoms: _3  and  _41
REMARK    4  A    between atoms: _5  and  _41
REMARK    5  A    between atoms: _6  and  _7
REMARK    6  A    between atoms: _6  and  _13
REMARK    7  A    between atoms: _9  and  _10
REMARK    8  A    between atoms: _13  and  _15
REMARK    9  A    between atoms: _14  and  _19
REMARK   10  A    between atoms: _15  and  _18
REMARK   11  A    between atoms: _23  and  _33
REMARK   12  A    between atoms: _25  and  _26
REMARK   13  A    between atoms: _27  and  _29
REMARK   14  A    between atoms: _29  and  _31
REMARK   15  A    between atoms: _31  and  _33
REMARK                            x       y       z     vdW  Elec       q    Type
REMARK                         _______ _______ _______ _____ _____    ______ ____
ROOT
ATOM      1  C   UNL     1      25.673  15.802  -4.761  0.00  0.00    +0.400 C 
ATOM      2  N   UNL     1      24.437  15.209  -4.647  0.00  0.00    -0.278 N 
ATOM      3  H   UNL     1      24.360  14.625  -5.538  0.00  0.00    +0.152 HD
ATOM      4  O   UNL     1      26.416  15.423  -5.662  0.00  0.00    -0.226 OA
ENDROOT
BRANCH   2   5
ATOM      5  C   UNL     1      23.218  15.013  -3.866  0.00  0.00    +0.152 C 
BRANCH   5   6
ATOM      6  C   UNL     1      23.309  13.999  -2.708  0.00  0.00    +0.193 C 
ATOM      7  O   UNL     1      24.592  14.202  -2.077  0.00  0.00    -0.219 OA
BRANCH   6   8
ATOM      8  C   UNL     1      22.287  14.134  -1.557  0.00  0.00    +0.212 C 
ATOM      9  O   UNL     1      21.082  14.759  -2.027  0.00  0.00    -0.218 OA
BRANCH   8  10
ATOM     10  C   UNL     1      21.913  12.756  -0.889  0.00  0.00    +0.171 C 
ATOM     11  O   UNL     1      22.911  12.298   0.017  0.00  0.00    -0.343 OA
ATOM     12  C   UNL     1      22.954  11.010   0.556  0.00  0.00    +0.220 C 
ATOM     13  C   UNL     1      22.837   9.931  -0.535  0.00  0.00    +0.076 C 
ATOM     14  C   UNL     1      21.579  10.244  -1.362  0.00  0.00    +0.177 C 
ATOM     15  O   UNL     1      21.401   9.252  -2.362  0.00  0.00    -0.221 OA
ATOM     16  C   UNL     1      21.690  11.668  -1.990  0.00  0.00    +0.155 C 
BRANCH  16  17
ATOM     17  N   UNL     1      20.500  11.967  -2.783  0.00  0.00    -0.202 NA
ATOM     18  C   UNL     1      20.353  12.052  -4.129  0.00  0.00    +0.242 C 
ATOM     19  C   UNL     1      18.958  12.083  -4.696  0.00  0.00    +0.096 C 
ATOM     20  O   UNL     1      21.350  12.099  -4.848  0.00  0.00    -0.273 OA
ENDBRANCH  16  17
BRANCH  12  21
ATOM     21  C   UNL     1      21.879  10.772   1.750  0.00  0.00    +0.391 C 
ATOM     22  O   UNL     1      21.904   9.445   1.981  0.00  0.00    -0.243 OA
ATOM     23  O   UNL     1      21.606  11.984   2.249  0.00  0.00    -0.243 OA
ENDBRANCH  12  21
ENDBRANCH   8  10
ENDBRANCH   6   8
ENDBRANCH   5   6
ENDBRANCH   2   5
BRANCH   1  24
ATOM     24  O   UNL     1      25.924  16.740  -3.909  0.00  0.00    -0.450 OA
BRANCH  24  25
ATOM     25  C   UNL     1      27.010  17.524  -3.472  0.00  0.00    +0.240 C 
BRANCH  25  26
ATOM     26  C   UNL     1      27.184  17.715  -1.953  0.00  0.00    +0.100 C 
BRANCH  26  28
ATOM     27  N   UNL     1      27.900  15.352  -1.828  0.00  0.00    -0.134 NA
ATOM     28  C   UNL     1      28.029  16.644  -1.394  0.00  0.00    +0.086 A 
ATOM     29  C   UNL     1      29.013  16.700  -0.431  0.00  0.00    +0.133 A 
ATOM     30  N   UNL     1      29.428  15.407  -0.310  0.00  0.00    -0.250 N 
ATOM     31  N   UNL     1      28.759  14.601  -1.153  0.00  0.00    -0.065 NA
BRANCH  30  32
ATOM     32  C   UNL     1      30.461  14.876   0.553  0.00  0.00    +0.162 C 
BRANCH  32  33
ATOM     33  C   UNL     1      29.939  14.369   1.902  0.00  0.00    +0.129 C 
BRANCH  33  34
ATOM     34  N   UNL     1      28.450  14.339   1.996  0.00  0.00    -0.193 NA
ATOM     35  H   UNL     1      28.029  14.780   1.170  0.00  0.00    +0.148 HD
BRANCH  34  36
ATOM     36  S   UNL     1      27.760  12.847   2.369  0.00  0.00    +0.027 S 
ATOM     37  O   UNL     1      28.836  11.881   2.380  0.00  0.00    -0.158 OA
ATOM     38  O   UNL     1      26.906  13.035   3.521  0.00  0.00    -0.158 OA
ATOM     39  C   UNL     1      26.756  12.550   0.932  0.00  0.00    +0.214 C 
ENDBRANCH  34  36
ENDBRANCH  33  34
ENDBRANCH  32  33
ENDBRANCH  30  32
ENDBRANCH  26  28
ENDBRANCH  25  26
ENDBRANCH  24  25
ENDBRANCH   1  24
TORSDOF 14
