REMARK VINA RESULT:    -6.612      3.442     10.004
REMARK INTER + INTRA:         -12.997
REMARK INTER:                 -12.007
REMARK INTRA:                  -0.990
REMARK UNBOUND:                -2.133
REMARK  Name = lig_assembled_7.pdb
REMARK  14 active torsions:
REMARK  status: ('A' for Active; 'I' for Inactive)
REMARK    1  A    between atoms: _2  and  _8
REMARK    2  A    between atoms: _4  and  _15
REMARK    3  A    between atoms: _5  and  _6
REMARK    4  A    between atoms: _5  and  _16
REMARK    5  A    between atoms: _9  and  _10
REMARK    6  A    between atoms: _12  and  _13
REMARK    7  A    between atoms: _16  and  _18
REMARK    8  A    between atoms: _17  and  _22
REMARK    9  A    between atoms: _18  and  _21
REMARK   10  A    between atoms: _26  and  _36
REMARK   11  A    between atoms: _28  and  _29
REMARK   12  A    between atoms: _30  and  _32
REMARK   13  A    between atoms: _32  and  _34
REMARK   14  A    between atoms: _34  and  _36
REMARK                            x       y       z     vdW  Elec       q    Type
REMARK                         _______ _______ _______ _____ _____    ______ ____
ROOT
ATOM      1  C   UNL     1      27.577  17.397  -1.574  0.00  0.00    +0.400 C 
ATOM      2  N   UNL     1      26.480  16.780  -2.128  0.00  0.00    -0.278 N 
ATOM      3  H   UNL     1      25.748  17.559  -2.160  0.00  0.00    +0.152 HD
ATOM      4  O   UNL     1      27.545  18.617  -1.433  0.00  0.00    -0.226 OA
ENDROOT
BRANCH   1   5
ATOM      5  O   UNL     1      28.541  16.613  -1.221  0.00  0.00    -0.450 OA
BRANCH   5   6
ATOM      6  C   UNL     1      29.224  16.217  -0.054  0.00  0.00    +0.240 C 
BRANCH   6   7
ATOM      7  C   UNL     1      30.763  16.209  -0.099  0.00  0.00    +0.100 C 
BRANCH   7   9
ATOM      8  N   UNL     1      31.790  14.002   0.289  0.00  0.00    -0.134 NA
ATOM      9  C   UNL     1      31.295  15.163   0.794  0.00  0.00    +0.086 A 
ATOM     10  C   UNL     1      31.407  15.134   2.171  0.00  0.00    +0.139 A 
ATOM     11  N   UNL     1      31.938  13.897   2.468  0.00  0.00    -0.219 N 
ATOM     12  N   UNL     1      32.202  13.256   1.301  0.00  0.00    -0.061 NA
BRANCH  11  13
ATOM     13  C   UNL     1      32.216  13.304   3.743  0.00  0.00    +0.073 A 
ATOM     14  C   UNL     1      33.508  13.472   4.326  0.00  0.00    -0.024 A 
ATOM     15  C   UNL     1      33.790  12.892   5.583  0.00  0.00    +0.008 A 
ATOM     16  C   UNL     1      32.831  12.163   6.279  0.00  0.00    -0.050 A 
ATOM     17  C   UNL     1      33.163  11.562   7.613  0.00  0.00    +0.044 C 
ATOM     18  C   UNL     1      31.572  12.004   5.708  0.00  0.00    +0.008 A 
ATOM     19  C   UNL     1      34.626  14.289   3.715  0.00  0.00    +0.046 C 
ATOM     20  C   UNL     1      31.245  12.541   4.441  0.00  0.00    -0.024 A 
ATOM     21  C   UNL     1      29.874  12.145   3.951  0.00  0.00    +0.046 C 
ENDBRANCH  11  13
ENDBRANCH   7   9
ENDBRANCH   6   7
ENDBRANCH   5   6
ENDBRANCH   1   5
BRANCH   2  22
ATOM     22  C   UNL     1      25.885  15.572  -2.693  0.00  0.00    +0.152 C 
BRANCH  22  23
ATOM     23  C   UNL     1      25.335  15.692  -4.129  0.00  0.00    +0.193 C 
ATOM     24  O   UNL     1      26.450  15.468  -5.020  0.00  0.00    -0.219 OA
BRANCH  23  25
ATOM     25  C   UNL     1      24.272  14.664  -4.576  0.00  0.00    +0.212 C 
ATOM     26  O   UNL     1      24.886  13.596  -5.315  0.00  0.00    -0.218 OA
BRANCH  25  27
ATOM     27  C   UNL     1      23.460  14.043  -3.375  0.00  0.00    +0.171 C 
ATOM     28  O   UNL     1      23.891  12.727  -3.045  0.00  0.00    -0.343 OA
ATOM     29  C   UNL     1      23.198  11.861  -2.197  0.00  0.00    +0.220 C 
ATOM     30  C   UNL     1      21.716  11.739  -2.594  0.00  0.00    +0.076 C 
ATOM     31  C   UNL     1      21.141  13.162  -2.675  0.00  0.00    +0.177 C 
ATOM     32  O   UNL     1      19.759  13.105  -3.001  0.00  0.00    -0.221 OA
ATOM     33  C   UNL     1      21.935  14.004  -3.722  0.00  0.00    +0.155 C 
BRANCH  33  34
ATOM     34  N   UNL     1      21.387  15.355  -3.807  0.00  0.00    -0.202 NA
ATOM     35  C   UNL     1      20.516  15.883  -4.705  0.00  0.00    +0.242 C 
ATOM     36  C   UNL     1      19.887  17.216  -4.392  0.00  0.00    +0.096 C 
ATOM     37  O   UNL     1      20.262  15.269  -5.739  0.00  0.00    -0.273 OA
ENDBRANCH  33  34
BRANCH  29  38
ATOM     38  C   UNL     1      23.366  12.223  -0.622  0.00  0.00    +0.391 C 
ATOM     39  O   UNL     1      24.453  13.016  -0.562  0.00  0.00    -0.243 OA
ATOM     40  O   UNL     1      22.220  11.859  -0.034  0.00  0.00    -0.243 OA
ENDBRANCH  29  38
ENDBRANCH  25  27
ENDBRANCH  23  25
ENDBRANCH  22  23
ENDBRANCH   2  22
TORSDOF 11
