REMARK VINA RESULT:    -6.886      4.325      9.232
REMARK INTER + INTRA:         -12.918
REMARK INTER:                 -10.709
REMARK INTRA:                  -2.209
REMARK UNBOUND:                -1.202
REMARK  Name = lig_assembled_38.pdb
REMARK  12 active torsions:
REMARK  status: ('A' for Active; 'I' for Inactive)
REMARK    1  A    between atoms: _2  and  _8
REMARK    2  A    between atoms: _5  and  _6
REMARK    3  A    between atoms: _5  and  _14
REMARK    4  A    between atoms: _8  and  _9
REMARK    5  A    between atoms: _14  and  _16
REMARK    6  A    between atoms: _15  and  _20
REMARK    7  A    between atoms: _16  and  _19
REMARK    8  A    between atoms: _24  and  _34
REMARK    9  A    between atoms: _26  and  _27
REMARK   10  A    between atoms: _28  and  _30
REMARK   11  A    between atoms: _30  and  _32
REMARK   12  A    between atoms: _32  and  _34
REMARK                            x       y       z     vdW  Elec       q    Type
REMARK                         _______ _______ _______ _____ _____    ______ ____
ROOT
ATOM      1  C   UNL     1      26.304  16.487  -3.322  0.00  0.00    +0.400 C 
ATOM      2  N   UNL     1      26.311  15.183  -3.760  0.00  0.00    -0.278 N 
ATOM      3  H   UNL     1      25.471  15.139  -4.420  0.00  0.00    +0.152 HD
ATOM      4  O   UNL     1      25.540  17.278  -3.870  0.00  0.00    -0.226 OA
ENDROOT
BRANCH   2   5
ATOM      5  C   UNL     1      26.945  13.868  -3.741  0.00  0.00    +0.152 C 
BRANCH   5   6
ATOM      6  C   UNL     1      25.993  12.656  -3.677  0.00  0.00    +0.193 C 
ATOM      7  O   UNL     1      26.816  11.494  -3.431  0.00  0.00    -0.219 OA
BRANCH   6   8
ATOM      8  C   UNL     1      24.942  12.630  -2.546  0.00  0.00    +0.212 C 
ATOM      9  O   UNL     1      25.351  13.480  -1.462  0.00  0.00    -0.218 OA
BRANCH   8  10
ATOM     10  C   UNL     1      23.505  13.073  -3.019  0.00  0.00    +0.171 C 
ATOM     11  O   UNL     1      23.506  14.346  -3.657  0.00  0.00    -0.343 OA
ATOM     12  C   UNL     1      22.356  15.081  -3.952  0.00  0.00    +0.220 C 
ATOM     13  C   UNL     1      21.436  15.217  -2.726  0.00  0.00    +0.076 C 
ATOM     14  C   UNL     1      21.179  13.802  -2.181  0.00  0.00    +0.177 C 
ATOM     15  O   UNL     1      20.299  13.867  -1.067  0.00  0.00    -0.221 OA
ATOM     16  C   UNL     1      22.529  13.120  -1.798  0.00  0.00    +0.155 C 
BRANCH  16  17
ATOM     17  N   UNL     1      22.288  11.778  -1.273  0.00  0.00    -0.202 NA
ATOM     18  C   UNL     1      22.572  11.260  -0.052  0.00  0.00    +0.242 C 
ATOM     19  C   UNL     1      21.952   9.940   0.328  0.00  0.00    +0.096 C 
ATOM     20  O   UNL     1      23.319  11.872   0.709  0.00  0.00    -0.273 OA
ENDBRANCH  16  17
BRANCH  12  21
ATOM     21  C   UNL     1      21.547  14.525  -5.246  0.00  0.00    +0.391 C 
ATOM     22  O   UNL     1      22.185  13.391  -5.594  0.00  0.00    -0.243 OA
ATOM     23  O   UNL     1      20.401  15.216  -5.291  0.00  0.00    -0.243 OA
ENDBRANCH  12  21
ENDBRANCH   8  10
ENDBRANCH   6   8
ENDBRANCH   5   6
ENDBRANCH   2   5
BRANCH   1  24
ATOM     24  O   UNL     1      27.096  16.750  -2.336  0.00  0.00    -0.450 OA
BRANCH  24  25
ATOM     25  C   UNL     1      27.839  17.831  -1.821  0.00  0.00    +0.240 C 
BRANCH  25  26
ATOM     26  C   UNL     1      28.351  17.716  -0.373  0.00  0.00    +0.100 C 
BRANCH  26  28
ATOM     27  N   UNL     1      30.528  16.541  -0.489  0.00  0.00    -0.134 NA
ATOM     28  C   UNL     1      29.187  16.508  -0.216  0.00  0.00    +0.086 A 
ATOM     29  C   UNL     1      28.846  15.249   0.222  0.00  0.00    +0.134 A 
ATOM     30  N   UNL     1      30.034  14.576   0.249  0.00  0.00    -0.247 N 
ATOM     31  N   UNL     1      31.040  15.354  -0.192  0.00  0.00    -0.065 NA
BRANCH  30  32
ATOM     32  C   UNL     1      30.318  13.305   0.890  0.00  0.00    +0.180 C 
BRANCH  32  33
ATOM     33  C   UNL     1      29.157  12.760   1.684  0.00  0.00    -0.025 A 
ATOM     34  C   UNL     1      28.772  13.350   2.897  0.00  0.00    +0.005 A 
ATOM     35  C   UNL     1      27.641  12.897   3.582  0.00  0.00    +0.001 A 
ATOM     36  C   UNL     1      26.882  11.849   3.066  0.00  0.00    +0.015 A 
ATOM     37  C   UNL     1      27.264  11.249   1.868  0.00  0.00    +0.018 A 
ATOM     38 BR   UNL     1      26.232   9.833   1.157  0.00  0.00    -0.050 Br
ATOM     39  C   UNL     1      28.391  11.697   1.177  0.00  0.00    +0.020 A 
ENDBRANCH  32  33
ENDBRANCH  30  32
ENDBRANCH  26  28
ENDBRANCH  25  26
ENDBRANCH  24  25
ENDBRANCH   1  24
TORSDOF 12
