REMARK VINA RESULT:    -5.843      3.465      9.298
REMARK INTER + INTRA:         -14.406
REMARK INTER:                 -10.967
REMARK INTRA:                  -3.439
REMARK UNBOUND:                -3.439
REMARK  Name = lig_assembled_84.pdb
REMARK  16 active torsions:
REMARK  status: ('A' for Active; 'I' for Inactive)
REMARK    1  A    between atoms: _2  and  _10
REMARK    2  A    between atoms: _3  and  _13
REMARK    3  A    between atoms: _4  and  _16
REMARK    4  A    between atoms: _7  and  _8
REMARK    5  A    between atoms: _7  and  _23
REMARK    6  A    between atoms: _10  and  _11
REMARK    7  A    between atoms: _11  and  _12
REMARK    8  A    between atoms: _11  and  _13
REMARK    9  A    between atoms: _23  and  _25
REMARK   10  A    between atoms: _24  and  _29
REMARK   11  A    between atoms: _25  and  _28
REMARK   12  A    between atoms: _33  and  _43
REMARK   13  A    between atoms: _35  and  _36
REMARK   14  A    between atoms: _37  and  _39
REMARK   15  A    between atoms: _39  and  _41
REMARK   16  A    between atoms: _41  and  _43
REMARK                            x       y       z     vdW  Elec       q    Type
REMARK                         _______ _______ _______ _____ _____    ______ ____
ROOT
ATOM      1  C   UNL     1      34.648  11.880  -2.867  0.00  0.00    +0.240 C 
ENDROOT
BRANCH   1   2
ATOM      2  C   UNL     1      35.264  13.084  -2.129  0.00  0.00    +0.100 C 
BRANCH   2   4
ATOM      3  N   UNL     1      33.281  13.841  -0.850  0.00  0.00    -0.134 NA
ATOM      4  C   UNL     1      34.555  13.338  -0.861  0.00  0.00    +0.086 A 
ATOM      5  C   UNL     1      34.987  13.181   0.438  0.00  0.00    +0.133 A 
ATOM      6  N   UNL     1      33.957  13.666   1.187  0.00  0.00    -0.251 N 
ATOM      7  N   UNL     1      32.925  14.041   0.412  0.00  0.00    -0.065 NA
BRANCH   6   8
ATOM      8  C   UNL     1      33.945  13.927   2.613  0.00  0.00    +0.149 C 
BRANCH   8   9
ATOM      9  C   UNL     1      33.718  12.680   3.483  0.00  0.00    +0.021 C 
ATOM     10  C   UNL     1      34.698  12.640   4.665  0.00  0.00    +0.010 C 
BRANCH   9  11
ATOM     11  C   UNL     1      32.272  12.634   4.034  0.00  0.00    +0.089 C 
BRANCH  11  12
ATOM     12  N   UNL     1      31.237  12.234   3.071  0.00  0.00    -0.299 NA
ATOM     13  C   UNL     1      30.049  13.120   3.201  0.00  0.00    +0.103 C 
ATOM     14  C   UNL     1      28.971  12.789   2.150  0.00  0.00    +0.120 C 
ATOM     15  N   UNL     1      28.560  11.387   2.289  0.00  0.00    -0.327 N 
ATOM     16  C   UNL     1      29.668  10.422   2.232  0.00  0.00    +0.120 C 
ATOM     17  C   UNL     1      30.784  10.829   3.238  0.00  0.00    +0.103 C 
BRANCH  15  18
ATOM     18  C   UNL     1      27.243  11.007   2.406  0.00  0.00    +0.030 A 
ATOM     19  C   UNL     1      26.201  11.952   2.355  0.00  0.00    +0.024 A 
ATOM     20  C   UNL     1      24.858  11.589   2.498  0.00  0.00    +0.022 A 
ATOM     21  C   UNL     1      24.526  10.258   2.688  0.00  0.00    +0.041 A 
ATOM     22 CL   UNL     1      22.876   9.803   2.870  0.00  0.00    -0.084 Cl
ATOM     23  C   UNL     1      25.523   9.292   2.742  0.00  0.00    +0.022 A 
ATOM     24  C   UNL     1      26.867   9.670   2.604  0.00  0.00    +0.024 A 
ENDBRANCH  15  18
ENDBRANCH  11  12
ENDBRANCH   9  11
ENDBRANCH   8   9
ENDBRANCH   6   8
ENDBRANCH   2   4
ENDBRANCH   1   2
BRANCH   1  25
ATOM     25  O   UNL     1      33.713  12.151  -3.885  0.00  0.00    -0.450 OA
BRANCH  25  26
ATOM     26  C   UNL     1      32.766  12.990  -4.148  0.00  0.00    +0.400 C 
ATOM     27  N   UNL     1      31.619  12.846  -3.404  0.00  0.00    -0.278 N 
ATOM     28  H   UNL     1      31.065  13.732  -3.630  0.00  0.00    +0.152 HD
ATOM     29  O   UNL     1      32.814  13.904  -4.967  0.00  0.00    -0.226 OA
BRANCH  27  30
ATOM     30  C   UNL     1      30.831  12.039  -2.476  0.00  0.00    +0.152 C 
BRANCH  30  31
ATOM     31  C   UNL     1      29.534  12.685  -1.947  0.00  0.00    +0.193 C 
ATOM     32  O   UNL     1      29.919  13.912  -1.289  0.00  0.00    -0.219 OA
BRANCH  31  33
ATOM     33  C   UNL     1      28.476  13.120  -2.985  0.00  0.00    +0.212 C 
ATOM     34  O   UNL     1      28.496  12.240  -4.120  0.00  0.00    -0.218 OA
BRANCH  33  35
ATOM     35  C   UNL     1      27.011  13.160  -2.404  0.00  0.00    +0.171 C 
ATOM     36  O   UNL     1      26.189  12.117  -2.918  0.00  0.00    -0.343 OA
ATOM     37  C   UNL     1      24.802  12.060  -2.766  0.00  0.00    +0.220 C 
ATOM     38  C   UNL     1      24.127  13.380  -3.178  0.00  0.00    +0.076 C 
ATOM     39  C   UNL     1      24.817  14.514  -2.401  0.00  0.00    +0.177 C 
ATOM     40  O   UNL     1      24.203  15.755  -2.716  0.00  0.00    -0.221 OA
ATOM     41  C   UNL     1      26.343  14.537  -2.726  0.00  0.00    +0.155 C 
BRANCH  41  42
ATOM     42  N   UNL     1      27.001  15.617  -1.996  0.00  0.00    -0.202 NA
ATOM     43  C   UNL     1      27.234  16.901  -2.370  0.00  0.00    +0.242 C 
ATOM     44  C   UNL     1      27.666  17.886  -1.315  0.00  0.00    +0.096 C 
ATOM     45  O   UNL     1      27.089  17.227  -3.546  0.00  0.00    -0.273 OA
ENDBRANCH  41  42
BRANCH  37  46
ATOM     46  C   UNL     1      24.333  11.586  -1.284  0.00  0.00    +0.391 C 
ATOM     47  O   UNL     1      23.061  12.017  -1.168  0.00  0.00    -0.243 OA
ATOM     48  O   UNL     1      25.252  10.707  -0.869  0.00  0.00    -0.243 OA
ENDBRANCH  37  46
ENDBRANCH  33  35
ENDBRANCH  31  33
ENDBRANCH  30  31
ENDBRANCH  27  30
ENDBRANCH  25  26
ENDBRANCH   1  25
TORSDOF 15
