REMARK VINA RESULT:    -6.985      2.586      8.341
REMARK INTER + INTRA:         -13.430
REMARK INTER:                 -11.990
REMARK INTRA:                  -1.440
REMARK UNBOUND:                -1.544
REMARK  Name = lig_assembled_69.pdb
REMARK  13 active torsions:
REMARK  status: ('A' for Active; 'I' for Inactive)
REMARK    1  A    between atoms: _2  and  _8
REMARK    2  A    between atoms: _5  and  _6
REMARK    3  A    between atoms: _5  and  _16
REMARK    4  A    between atoms: _10  and  _15
REMARK    5  A    between atoms: _13  and  _14
REMARK    6  A    between atoms: _16  and  _18
REMARK    7  A    between atoms: _17  and  _22
REMARK    8  A    between atoms: _18  and  _21
REMARK    9  A    between atoms: _26  and  _36
REMARK   10  A    between atoms: _28  and  _29
REMARK   11  A    between atoms: _30  and  _32
REMARK   12  A    between atoms: _32  and  _34
REMARK   13  A    between atoms: _34  and  _36
REMARK                            x       y       z     vdW  Elec       q    Type
REMARK                         _______ _______ _______ _____ _____    ______ ____
ROOT
ATOM      1  C   UNL     1      29.197  17.335  -0.466  0.00  0.00    +0.400 C 
ATOM      2  N   UNL     1      29.525  16.104   0.051  0.00  0.00    -0.278 N 
ATOM      3  H   UNL     1      30.227  16.339   0.823  0.00  0.00    +0.152 HD
ATOM      4  O   UNL     1      29.586  18.336   0.130  0.00  0.00    -0.226 OA
ENDROOT
BRANCH   1   5
ATOM      5  O   UNL     1      28.522  17.318  -1.568  0.00  0.00    -0.450 OA
BRANCH   5   6
ATOM      6  C   UNL     1      27.256  17.702  -2.052  0.00  0.00    +0.240 C 
BRANCH   6   7
ATOM      7  C   UNL     1      26.740  17.004  -3.325  0.00  0.00    +0.100 C 
BRANCH   7   9
ATOM      8  N   UNL     1      26.896  14.610  -2.733  0.00  0.00    -0.134 NA
ATOM      9  C   UNL     1      26.121  15.709  -2.985  0.00  0.00    +0.086 A 
ATOM     10  C   UNL     1      24.793  15.362  -2.872  0.00  0.00    +0.134 A 
ATOM     11  N   UNL     1      24.827  14.035  -2.562  0.00  0.00    -0.248 N 
ATOM     12  N   UNL     1      26.092  13.587  -2.481  0.00  0.00    -0.065 NA
BRANCH  11  13
ATOM     13  C   UNL     1      23.698  13.123  -2.382  0.00  0.00    +0.114 C 
ATOM     14  C   UNL     1      22.506  13.524  -3.260  0.00  0.00    +0.062 C 
ATOM     15  C   UNL     1      21.572  14.591  -2.684  0.00  0.00    +0.139 C 
ATOM     16  C   UNL     1      20.715  14.176  -1.523  0.00  0.00    +0.002 C 
ATOM     17  C   UNL     1      20.899  13.159  -0.666  0.00  0.00    +0.002 C 
ATOM     18  C   UNL     1      22.091  12.259  -0.552  0.00  0.00    +0.139 C 
ATOM     19  C   UNL     1      23.421  12.925  -0.885  0.00  0.00    +0.062 C 
BRANCH  18  20
ATOM     20  O   UNL     1      21.893  11.113  -1.365  0.00  0.00    -0.388 OA
ATOM     21  H   UNL     1      21.201  10.573  -0.944  0.00  0.00    +0.210 HD
ENDBRANCH  18  20
BRANCH  15  22
ATOM     22  O   UNL     1      20.656  14.950  -3.727  0.00  0.00    -0.388 OA
ATOM     23  H   UNL     1      20.084  14.181  -3.887  0.00  0.00    +0.210 HD
ENDBRANCH  15  22
ENDBRANCH  11  13
ENDBRANCH   7   9
ENDBRANCH   6   7
ENDBRANCH   5   6
ENDBRANCH   1   5
BRANCH   2  24
ATOM     24  C   UNL     1      29.339  14.656   0.030  0.00  0.00    +0.152 C 
BRANCH  24  25
ATOM     25  C   UNL     1      30.626  13.806  -0.012  0.00  0.00    +0.193 C 
ATOM     26  O   UNL     1      31.409  14.292  -1.124  0.00  0.00    -0.219 OA
BRANCH  25  27
ATOM     27  C   UNL     1      31.580  13.893   1.199  0.00  0.00    +0.212 C 
ATOM     28  O   UNL     1      31.412  15.147   1.881  0.00  0.00    -0.218 OA
BRANCH  27  29
ATOM     29  C   UNL     1      31.380  12.724   2.237  0.00  0.00    +0.171 C 
ATOM     30  O   UNL     1      30.026  12.587   2.654  0.00  0.00    -0.343 OA
ATOM     31  C   UNL     1      29.608  11.806   3.734  0.00  0.00    +0.220 C 
ATOM     32  C   UNL     1      30.420  12.110   5.006  0.00  0.00    +0.076 C 
ATOM     33  C   UNL     1      31.909  11.976   4.647  0.00  0.00    +0.177 C 
ATOM     34  O   UNL     1      32.705  12.209   5.801  0.00  0.00    -0.221 OA
ATOM     35  C   UNL     1      32.276  12.965   3.497  0.00  0.00    +0.155 C 
BRANCH  35  36
ATOM     36  N   UNL     1      33.691  12.846   3.158  0.00  0.00    -0.202 NA
ATOM     37  C   UNL     1      34.722  13.686   3.430  0.00  0.00    +0.242 C 
ATOM     38  C   UNL     1      36.128  13.183   3.225  0.00  0.00    +0.096 C 
ATOM     39  O   UNL     1      34.489  14.823   3.835  0.00  0.00    -0.273 OA
ENDBRANCH  35  36
BRANCH  31  40
ATOM     40  C   UNL     1      29.582  10.214   3.409  0.00  0.00    +0.391 C 
ATOM     41  O   UNL     1      29.508   9.615   4.613  0.00  0.00    -0.243 OA
ATOM     42  O   UNL     1      29.342  10.109   2.096  0.00  0.00    -0.243 OA
ENDBRANCH  31  40
ENDBRANCH  27  29
ENDBRANCH  25  27
ENDBRANCH  24  25
ENDBRANCH   2  24
TORSDOF 13
