REMARK VINA RESULT:    -6.242      3.090      9.467
REMARK INTER + INTRA:         -13.636
REMARK INTER:                 -11.671
REMARK INTRA:                  -1.965
REMARK UNBOUND:                -2.286
REMARK  Name = lig_assembled_62.pdb
REMARK  15 active torsions:
REMARK  status: ('A' for Active; 'I' for Inactive)
REMARK    1  A    between atoms: _2  and  _9
REMARK    2  A    between atoms: _5  and  _9
REMARK    3  A    between atoms: _6  and  _7
REMARK    4  A    between atoms: _6  and  _14
REMARK    5  A    between atoms: _9  and  _10
REMARK    6  A    between atoms: _10  and  _13
REMARK    7  A    between atoms: _11  and  _13
REMARK    8  A    between atoms: _14  and  _16
REMARK    9  A    between atoms: _15  and  _20
REMARK   10  A    between atoms: _16  and  _19
REMARK   11  A    between atoms: _24  and  _34
REMARK   12  A    between atoms: _26  and  _27
REMARK   13  A    between atoms: _28  and  _30
REMARK   14  A    between atoms: _30  and  _32
REMARK   15  A    between atoms: _32  and  _34
REMARK                            x       y       z     vdW  Elec       q    Type
REMARK                         _______ _______ _______ _____ _____    ______ ____
ROOT
ATOM      1  C   UNL     1      27.463  17.494  -1.717  0.00  0.00    +0.400 C 
ATOM      2  N   UNL     1      26.373  16.949  -2.354  0.00  0.00    -0.278 N 
ATOM      3  H   UNL     1      25.626  17.708  -2.260  0.00  0.00    +0.152 HD
ATOM      4  O   UNL     1      27.409  18.676  -1.387  0.00  0.00    -0.226 OA
ENDROOT
BRANCH   2   5
ATOM      5  C   UNL     1      25.796  15.831  -3.096  0.00  0.00    +0.152 C 
BRANCH   5   6
ATOM      6  C   UNL     1      25.002  14.801  -2.265  0.00  0.00    +0.193 C 
ATOM      7  O   UNL     1      23.783  14.533  -2.992  0.00  0.00    -0.219 OA
BRANCH   6   8
ATOM      8  C   UNL     1      25.639  13.410  -2.053  0.00  0.00    +0.212 C 
ATOM      9  O   UNL     1      26.982  13.390  -2.562  0.00  0.00    -0.218 OA
BRANCH   8  10
ATOM     10  C   UNL     1      25.665  12.960  -0.543  0.00  0.00    +0.171 C 
ATOM     11  O   UNL     1      26.914  12.390  -0.163  0.00  0.00    -0.343 OA
ATOM     12  C   UNL     1      27.133  11.695   1.029  0.00  0.00    +0.220 C 
ATOM     13  C   UNL     1      26.076  10.598   1.251  0.00  0.00    +0.076 C 
ATOM     14  C   UNL     1      24.693  11.258   1.132  0.00  0.00    +0.177 C 
ATOM     15  O   UNL     1      23.677  10.293   1.369  0.00  0.00    -0.221 OA
ATOM     16  C   UNL     1      24.531  11.917  -0.273  0.00  0.00    +0.155 C 
BRANCH  16  17
ATOM     17  N   UNL     1      23.215  12.539  -0.393  0.00  0.00    -0.202 NA
ATOM     18  C   UNL     1      22.066  12.045  -0.921  0.00  0.00    +0.242 C 
ATOM     19  C   UNL     1      20.780  12.782  -0.652  0.00  0.00    +0.096 C 
ATOM     20  O   UNL     1      22.101  11.020  -1.599  0.00  0.00    -0.273 OA
ENDBRANCH  16  17
BRANCH  12  21
ATOM     21  C   UNL     1      27.272  12.661   2.327  0.00  0.00    +0.391 C 
ATOM     22  O   UNL     1      26.953  11.881   3.377  0.00  0.00    -0.243 OA
ATOM     23  O   UNL     1      27.928  13.751   1.908  0.00  0.00    -0.243 OA
ENDBRANCH  12  21
ENDBRANCH   8  10
ENDBRANCH   6   8
ENDBRANCH   5   6
ENDBRANCH   2   5
BRANCH   1  24
ATOM     24  O   UNL     1      28.445  16.684  -1.496  0.00  0.00    -0.450 OA
BRANCH  24  25
ATOM     25  C   UNL     1      29.076  16.039  -0.414  0.00  0.00    +0.240 C 
BRANCH  25  26
ATOM     26  C   UNL     1      30.387  16.653   0.113  0.00  0.00    +0.100 C 
BRANCH  26  28
ATOM     27  N   UNL     1      31.924  14.714   0.008  0.00  0.00    -0.134 NA
ATOM     28  C   UNL     1      31.216  15.617   0.755  0.00  0.00    +0.086 A 
ATOM     29  C   UNL     1      31.437  15.362   2.091  0.00  0.00    +0.134 A 
ATOM     30  N   UNL     1      32.274  14.284   2.092  0.00  0.00    -0.237 N 
ATOM     31  N   UNL     1      32.569  13.904   0.834  0.00  0.00    -0.065 NA
BRANCH  30  32
ATOM     32  C   UNL     1      32.866  13.575   3.212  0.00  0.00    +0.219 C 
BRANCH  32  33
ATOM     33  C   UNL     1      34.087  14.320   3.724  0.00  0.00    +0.237 C 
ATOM     34  O   UNL     1      34.367  14.456   4.913  0.00  0.00    -0.274 OA
ATOM     35  N   UNL     1      34.940  14.804   2.770  0.00  0.00    -0.328 N 
ATOM     36  H   UNL     1      34.820  14.649   1.777  0.00  0.00    +0.145 HD
ATOM     37  H   UNL     1      35.767  15.297   3.083  0.00  0.00    +0.145 HD
ENDBRANCH  32  33
BRANCH  32  38
ATOM     38  C   UNL     1      33.224  12.144   2.818  0.00  0.00    +0.195 C 
BRANCH  38  39
ATOM     39  O   UNL     1      32.107  11.283   3.080  0.00  0.00    -0.380 OA
ATOM     40  C   UNL     1      32.046  10.202   2.159  0.00  0.00    +0.194 C 
ENDBRANCH  38  39
ENDBRANCH  32  38
ENDBRANCH  30  32
ENDBRANCH  26  28
ENDBRANCH  25  26
ENDBRANCH  24  25
ENDBRANCH   1  24
TORSDOF 14
