REMARK VINA RESULT:    -7.411      2.873      8.537
REMARK INTER + INTRA:         -13.236
REMARK INTER:                 -11.508
REMARK INTRA:                  -1.728
REMARK UNBOUND:                -0.626
REMARK  Name = lig_assembled_5.pdb
REMARK  13 active torsions:
REMARK  status: ('A' for Active; 'I' for Inactive)
REMARK    1  A    between atoms: _2  and  _8
REMARK    2  A    between atoms: _5  and  _6
REMARK    3  A    between atoms: _5  and  _15
REMARK    4  A    between atoms: _11  and  _14
REMARK    5  A    between atoms: _12  and  _14
REMARK    6  A    between atoms: _15  and  _17
REMARK    7  A    between atoms: _16  and  _21
REMARK    8  A    between atoms: _17  and  _20
REMARK    9  A    between atoms: _25  and  _35
REMARK   10  A    between atoms: _27  and  _28
REMARK   11  A    between atoms: _29  and  _31
REMARK   12  A    between atoms: _31  and  _33
REMARK   13  A    between atoms: _33  and  _35
REMARK                            x       y       z     vdW  Elec       q    Type
REMARK                         _______ _______ _______ _____ _____    ______ ____
ROOT
ATOM      1  C   UNL     1      28.192  17.182  -1.068  0.00  0.00    +0.400 C 
ATOM      2  N   UNL     1      27.554  16.022  -1.437  0.00  0.00    -0.278 N 
ATOM      3  H   UNL     1      26.519  16.287  -1.403  0.00  0.00    +0.152 HD
ATOM      4  O   UNL     1      27.523  18.208  -0.978  0.00  0.00    -0.226 OA
ENDROOT
BRANCH   2   5
ATOM      5  C   UNL     1      27.653  14.627  -1.860  0.00  0.00    +0.152 C 
BRANCH   5   6
ATOM      6  C   UNL     1      26.319  13.901  -2.125  0.00  0.00    +0.193 C 
ATOM      7  O   UNL     1      26.263  13.640  -3.545  0.00  0.00    -0.219 OA
BRANCH   6   8
ATOM      8  C   UNL     1      26.115  12.516  -1.471  0.00  0.00    +0.212 C 
ATOM      9  O   UNL     1      27.072  11.574  -1.983  0.00  0.00    -0.218 OA
BRANCH   8  10
ATOM     10  C   UNL     1      26.229  12.546   0.101  0.00  0.00    +0.171 C 
ATOM     11  O   UNL     1      27.527  12.186   0.563  0.00  0.00    -0.343 OA
ATOM     12  C   UNL     1      27.837  11.896   1.894  0.00  0.00    +0.220 C 
ATOM     13  C   UNL     1      26.866  10.863   2.494  0.00  0.00    +0.076 C 
ATOM     14  C   UNL     1      25.437  11.382   2.260  0.00  0.00    +0.177 C 
ATOM     15  O   UNL     1      24.499  10.482   2.833  0.00  0.00    -0.221 OA
ATOM     16  C   UNL     1      25.179  11.576   0.734  0.00  0.00    +0.155 C 
BRANCH  16  17
ATOM     17  N   UNL     1      23.820  12.061   0.507  0.00  0.00    -0.202 NA
ATOM     18  C   UNL     1      22.759  11.436  -0.063  0.00  0.00    +0.242 C 
ATOM     19  C   UNL     1      21.394  12.055   0.094  0.00  0.00    +0.096 C 
ATOM     20  O   UNL     1      22.932  10.391  -0.687  0.00  0.00    -0.273 OA
ENDBRANCH  16  17
BRANCH  12  21
ATOM     21  C   UNL     1      27.959  13.216   2.833  0.00  0.00    +0.391 C 
ATOM     22  O   UNL     1      28.187  14.231   1.977  0.00  0.00    -0.243 OA
ATOM     23  O   UNL     1      27.497  12.858   4.037  0.00  0.00    -0.243 OA
ENDBRANCH  12  21
ENDBRANCH   8  10
ENDBRANCH   6   8
ENDBRANCH   5   6
ENDBRANCH   2   5
BRANCH   1  24
ATOM     24  O   UNL     1      29.455  17.071  -0.817  0.00  0.00    -0.450 OA
BRANCH  24  25
ATOM     25  C   UNL     1      30.305  16.533   0.170  0.00  0.00    +0.240 C 
BRANCH  25  26
ATOM     26  C   UNL     1      31.458  15.627  -0.302  0.00  0.00    +0.100 C 
BRANCH  26  28
ATOM     27  N   UNL     1      32.345  13.427   0.400  0.00  0.00    -0.134 NA
ATOM     28  C   UNL     1      31.773  14.621   0.729  0.00  0.00    +0.086 A 
ATOM     29  C   UNL     1      31.587  14.669   2.091  0.00  0.00    +0.139 A 
ATOM     30  N   UNL     1      32.092  13.478   2.562  0.00  0.00    -0.220 N 
ATOM     31  N   UNL     1      32.528  12.734   1.516  0.00  0.00    -0.061 NA
BRANCH  30  32
ATOM     32  C   UNL     1      32.206  13.031   3.905  0.00  0.00    +0.067 A 
ATOM     33  C   UNL     1      31.121  12.436   4.558  0.00  0.00    +0.031 A 
ATOM     34  C   UNL     1      31.235  12.060   5.899  0.00  0.00    +0.048 A 
ATOM     35  C   UNL     1      32.429  12.249   6.596  0.00  0.00    +0.120 A 
ATOM     36  C   UNL     1      33.518  12.825   5.944  0.00  0.00    +0.048 A 
ATOM     37  C   UNL     1      33.410  13.216   4.602  0.00  0.00    +0.031 A 
BRANCH  35  38
ATOM     38  O   UNL     1      32.386  11.894   7.915  0.00  0.00    -0.495 OA
ATOM     39  C   UNL     1      33.638  11.674   8.551  0.00  0.00    +0.277 C 
ENDBRANCH  35  38
ENDBRANCH  30  32
ENDBRANCH  26  28
ENDBRANCH  25  26
ENDBRANCH  24  25
ENDBRANCH   1  24
TORSDOF 12
