REMARK VINA RESULT:    -6.750      3.206      8.035
REMARK INTER + INTRA:         -13.629
REMARK INTER:                 -11.418
REMARK INTRA:                  -2.211
REMARK UNBOUND:                -2.144
REMARK  Name = lig_assembled_63.pdb
REMARK  12 active torsions:
REMARK  status: ('A' for Active; 'I' for Inactive)
REMARK    1  A    between atoms: _2  and  _10
REMARK    2  A    between atoms: _6  and  _14
REMARK    3  A    between atoms: _7  and  _8
REMARK    4  A    between atoms: _7  and  _15
REMARK    5  A    between atoms: _15  and  _17
REMARK    6  A    between atoms: _16  and  _21
REMARK    7  A    between atoms: _17  and  _20
REMARK    8  A    between atoms: _25  and  _35
REMARK    9  A    between atoms: _27  and  _28
REMARK   10  A    between atoms: _29  and  _31
REMARK   11  A    between atoms: _31  and  _33
REMARK   12  A    between atoms: _33  and  _35
REMARK                            x       y       z     vdW  Elec       q    Type
REMARK                         _______ _______ _______ _____ _____    ______ ____
ROOT
ATOM      1  C   UNL     1      26.361  15.643  -4.537  0.00  0.00    +0.400 C 
ATOM      2  N   UNL     1      26.564  14.427  -3.929  0.00  0.00    -0.278 N 
ATOM      3  H   UNL     1      26.213  13.726  -4.655  0.00  0.00    +0.152 HD
ATOM      4  O   UNL     1      26.038  15.652  -5.722  0.00  0.00    -0.226 OA
ENDROOT
BRANCH   2   5
ATOM      5  C   UNL     1      27.047  13.680  -2.771  0.00  0.00    +0.152 C 
BRANCH   5   6
ATOM      6  C   UNL     1      26.041  13.489  -1.617  0.00  0.00    +0.193 C 
ATOM      7  O   UNL     1      24.729  13.743  -2.165  0.00  0.00    -0.219 OA
BRANCH   6   8
ATOM      8  C   UNL     1      25.931  12.082  -0.990  0.00  0.00    +0.212 C 
ATOM      9  O   UNL     1      26.984  11.233  -1.475  0.00  0.00    -0.218 OA
BRANCH   8  10
ATOM     10  C   UNL     1      25.980  12.096   0.586  0.00  0.00    +0.171 C 
ATOM     11  O   UNL     1      27.218  11.615   1.099  0.00  0.00    -0.343 OA
ATOM     12  C   UNL     1      27.443  11.293   2.440  0.00  0.00    +0.220 C 
ATOM     13  C   UNL     1      26.357  10.353   2.990  0.00  0.00    +0.076 C 
ATOM     14  C   UNL     1      24.993  11.002   2.701  0.00  0.00    +0.177 C 
ATOM     15  O   UNL     1      23.952  10.190   3.226  0.00  0.00    -0.221 OA
ATOM     16  C   UNL     1      24.818  11.224   1.166  0.00  0.00    +0.155 C 
BRANCH  16  17
ATOM     17  N   UNL     1      23.521  11.834   0.887  0.00  0.00    -0.202 NA
ATOM     18  C   UNL     1      22.494  11.378   0.126  0.00  0.00    +0.242 C 
ATOM     19  C   UNL     1      21.157  12.063   0.244  0.00  0.00    +0.096 C 
ATOM     20  O   UNL     1      22.674  10.426  -0.631  0.00  0.00    -0.273 OA
ENDBRANCH  16  17
BRANCH  12  21
ATOM     21  C   UNL     1      27.647  12.593   3.393  0.00  0.00    +0.391 C 
ATOM     22  O   UNL     1      27.908  12.090   4.615  0.00  0.00    -0.243 OA
ATOM     23  O   UNL     1      27.778  13.639   2.568  0.00  0.00    -0.243 OA
ENDBRANCH  12  21
ENDBRANCH   8  10
ENDBRANCH   6   8
ENDBRANCH   5   6
ENDBRANCH   2   5
BRANCH   1  24
ATOM     24  O   UNL     1      26.502  16.679  -3.777  0.00  0.00    -0.450 OA
BRANCH  24  25
ATOM     25  C   UNL     1      27.466  17.260  -2.931  0.00  0.00    +0.240 C 
BRANCH  25  26
ATOM     26  C   UNL     1      27.281  17.080  -1.412  0.00  0.00    +0.100 C 
BRANCH  26  28
ATOM     27  N   UNL     1      29.667  17.427  -0.870  0.00  0.00    -0.134 NA
ATOM     28  C   UNL     1      28.545  16.653  -0.786  0.00  0.00    +0.087 A 
ATOM     29  C   UNL     1      28.843  15.513  -0.079  0.00  0.00    +0.141 A 
ATOM     30  N   UNL     1      30.188  15.618   0.220  0.00  0.00    -0.201 N 
ATOM     31  N   UNL     1      30.654  16.794  -0.252  0.00  0.00    -0.059 NA
BRANCH  30  32
ATOM     32  C   UNL     1      30.992  14.632   0.864  0.00  0.00    +0.173 A 
ATOM     33  C   UNL     1      31.743  13.696   0.148  0.00  0.00    +0.096 A 
ATOM     34  C   UNL     1      32.421  12.709   0.883  0.00  0.00    +0.024 A 
ATOM     35  C   UNL     1      32.361  12.693   2.273  0.00  0.00    +0.021 A 
ATOM     36  C   UNL     1      31.627  13.678   2.901  0.00  0.00    +0.113 A 
ATOM     37  N   UNL     1      30.946  14.635   2.235  0.00  0.00    -0.235 NA
BRANCH  33  38
ATOM     38  C   UNL     1      31.898  13.664  -1.276  0.00  0.00    +0.103 C 
ATOM     39  N   UNL     1      32.105  13.574  -2.415  0.00  0.00    -0.191 NA
ENDBRANCH  33  38
ENDBRANCH  30  32
ENDBRANCH  26  28
ENDBRANCH  25  26
ENDBRANCH  24  25
ENDBRANCH   1  24
TORSDOF 12
