REMARK VINA RESULT:    -6.679      3.149      5.142
REMARK INTER + INTRA:         -13.656
REMARK INTER:                 -10.671
REMARK INTRA:                  -2.985
REMARK UNBOUND:                -2.096
REMARK  Name = lig_assembled_88.pdb
REMARK  13 active torsions:
REMARK  status: ('A' for Active; 'I' for Inactive)
REMARK    1  A    between atoms: _2  and  _8
REMARK    2  A    between atoms: _4  and  _14
REMARK    3  A    between atoms: _5  and  _6
REMARK    4  A    between atoms: _5  and  _15
REMARK    5  A    between atoms: _8  and  _9
REMARK    6  A    between atoms: _15  and  _17
REMARK    7  A    between atoms: _16  and  _21
REMARK    8  A    between atoms: _17  and  _20
REMARK    9  A    between atoms: _25  and  _35
REMARK   10  A    between atoms: _27  and  _28
REMARK   11  A    between atoms: _29  and  _31
REMARK   12  A    between atoms: _31  and  _33
REMARK   13  A    between atoms: _33  and  _35
REMARK                            x       y       z     vdW  Elec       q    Type
REMARK                         _______ _______ _______ _____ _____    ______ ____
ROOT
ATOM      1  C   UNL     1      31.073  15.812  -0.198  0.00  0.00    +0.400 C 
ATOM      2  N   UNL     1      30.973  14.869   0.798  0.00  0.00    -0.278 N 
ATOM      3  H   UNL     1      31.818  14.237   0.625  0.00  0.00    +0.152 HD
ATOM      4  O   UNL     1      32.100  15.837  -0.871  0.00  0.00    -0.226 OA
ENDROOT
BRANCH   1   5
ATOM      5  O   UNL     1      30.042  16.577  -0.350  0.00  0.00    -0.450 OA
BRANCH   5   6
ATOM      6  C   UNL     1      28.638  16.480  -0.398  0.00  0.00    +0.240 C 
BRANCH   6   7
ATOM      7  C   UNL     1      27.900  17.355  -1.430  0.00  0.00    +0.100 C 
BRANCH   7   9
ATOM      8  N   UNL     1      26.574  17.033  -3.497  0.00  0.00    -0.134 NA
ATOM      9  C   UNL     1      27.103  16.515  -2.343  0.00  0.00    +0.086 A 
ATOM     10  C   UNL     1      26.742  15.190  -2.238  0.00  0.00    +0.134 A 
ATOM     11  N   UNL     1      25.932  14.986  -3.317  0.00  0.00    -0.247 N 
ATOM     12  N   UNL     1      25.876  16.081  -4.098  0.00  0.00    -0.065 NA
BRANCH  11  13
ATOM     13  C   UNL     1      25.131  13.812  -3.629  0.00  0.00    +0.184 C 
BRANCH  13  14
ATOM     14  C   UNL     1      23.766  13.829  -2.971  0.00  0.00    +0.017 A 
ATOM     15  C   UNL     1      23.478  13.088  -1.808  0.00  0.00    +0.024 A 
ATOM     16  C   UNL     1      22.208  13.128  -1.229  0.00  0.00    +0.019 A 
ATOM     17 BR   UNL     1      21.845  12.081   0.304  0.00  0.00    -0.050 Br
ATOM     18  C   UNL     1      21.203  13.926  -1.769  0.00  0.00    +0.034 A 
ATOM     19  C   UNL     1      21.486  14.700  -2.890  0.00  0.00    +0.061 A 
ATOM     20 BR   UNL     1      20.125  15.813  -3.600  0.00  0.00    -0.046 Br
ATOM     21  C   UNL     1      22.756  14.656  -3.483  0.00  0.00    +0.136 A 
BRANCH  21  22
ATOM     22  O   UNL     1      23.049  15.425  -4.577  0.00  0.00    -0.505 OA
ATOM     23  H   UNL     1      23.873  15.079  -4.970  0.00  0.00    +0.292 HD
ENDBRANCH  21  22
ENDBRANCH  13  14
ENDBRANCH  11  13
ENDBRANCH   7   9
ENDBRANCH   6   7
ENDBRANCH   5   6
ENDBRANCH   1   5
BRANCH   2  24
ATOM     24  C   UNL     1      30.255  14.363   1.965  0.00  0.00    +0.152 C 
BRANCH  24  25
ATOM     25  C   UNL     1      29.158  13.316   1.687  0.00  0.00    +0.193 C 
ATOM     26  O   UNL     1      27.892  13.964   1.942  0.00  0.00    -0.219 OA
BRANCH  25  27
ATOM     27  C   UNL     1      29.032  12.778   0.245  0.00  0.00    +0.212 C 
ATOM     28  O   UNL     1      30.225  12.073  -0.134  0.00  0.00    -0.218 OA
BRANCH  27  29
ATOM     29  C   UNL     1      27.796  11.821   0.041  0.00  0.00    +0.171 C 
ATOM     30  O   UNL     1      27.585  10.954   1.152  0.00  0.00    -0.343 OA
ATOM     31  C   UNL     1      26.726   9.853   1.140  0.00  0.00    +0.220 C 
ATOM     32  C   UNL     1      26.982   8.942  -0.073  0.00  0.00    +0.076 C 
ATOM     33  C   UNL     1      26.924   9.821  -1.333  0.00  0.00    +0.177 C 
ATOM     34  O   UNL     1      27.116   9.019  -2.489  0.00  0.00    -0.221 OA
ATOM     35  C   UNL     1      27.993  10.955  -1.246  0.00  0.00    +0.155 C 
BRANCH  35  36
ATOM     36  N   UNL     1      27.946  11.789  -2.445  0.00  0.00    -0.202 NA
ATOM     37  C   UNL     1      28.816  11.864  -3.484  0.00  0.00    +0.242 C 
ATOM     38  C   UNL     1      28.380  12.589  -4.730  0.00  0.00    +0.096 C 
ATOM     39  O   UNL     1      29.926  11.344  -3.386  0.00  0.00    -0.273 OA
ENDBRANCH  35  36
BRANCH  31  40
ATOM     40  C   UNL     1      25.157  10.256   1.263  0.00  0.00    +0.391 C 
ATOM     41  O   UNL     1      24.483   9.129   0.962  0.00  0.00    -0.243 OA
ATOM     42  O   UNL     1      25.126  11.436   1.895  0.00  0.00    -0.243 OA
ENDBRANCH  31  40
ENDBRANCH  27  29
ENDBRANCH  25  27
ENDBRANCH  24  25
ENDBRANCH   2  24
TORSDOF 13
