REMARK VINA RESULT:    -7.172      1.096      1.930
REMARK INTER + INTRA:         -13.908
REMARK INTER:                 -12.287
REMARK INTRA:                  -1.621
REMARK UNBOUND:                -2.544
REMARK  Name = lig_assembled_65.pdb
REMARK  11 active torsions:
REMARK  status: ('A' for Active; 'I' for Inactive)
REMARK    1  A    between atoms: _8  and  _14
REMARK    2  A    between atoms: _9  and  _10
REMARK    3  A    between atoms: _9  and  _15
REMARK    4  A    between atoms: _15  and  _17
REMARK    5  A    between atoms: _16  and  _21
REMARK    6  A    between atoms: _17  and  _20
REMARK    7  A    between atoms: _25  and  _35
REMARK    8  A    between atoms: _27  and  _28
REMARK    9  A    between atoms: _29  and  _31
REMARK   10  A    between atoms: _31  and  _33
REMARK   11  A    between atoms: _33  and  _35
REMARK                            x       y       z     vdW  Elec       q    Type
REMARK                         _______ _______ _______ _____ _____    ______ ____
ROOT
ATOM      1  C   UNL     1      27.861  17.412  -1.201  0.00  0.00    +0.400 C 
ATOM      2  N   UNL     1      28.288  16.323  -0.478  0.00  0.00    -0.278 N 
ATOM      3  H   UNL     1      28.489  16.732   0.489  0.00  0.00    +0.152 HD
ATOM      4  O   UNL     1      27.642  18.459  -0.596  0.00  0.00    -0.226 OA
ENDROOT
BRANCH   1   5
ATOM      5  O   UNL     1      27.758  17.232  -2.477  0.00  0.00    -0.450 OA
BRANCH   5   6
ATOM      6  C   UNL     1      26.814  17.405  -3.508  0.00  0.00    +0.240 C 
BRANCH   6   7
ATOM      7  C   UNL     1      26.339  16.145  -4.256  0.00  0.00    +0.100 C 
BRANCH   7   9
ATOM      8  N   UNL     1      24.089  15.507  -3.443  0.00  0.00    -0.134 NA
ATOM      9  C   UNL     1      25.446  15.344  -3.398  0.00  0.00    +0.087 A 
ATOM     10  C   UNL     1      25.750  14.375  -2.473  0.00  0.00    +0.146 A 
ATOM     11  N   UNL     1      24.534  13.974  -1.965  0.00  0.00    -0.155 N 
ATOM     12  C   UNL     1      24.303  12.994  -0.954  0.00  0.00    +0.416 C 
ATOM     13  N   UNL     1      23.041  12.734  -0.589  0.00  0.00    +0.041 NA
ATOM     14  C   UNL     1      22.908  11.820   0.369  0.00  0.00    +0.339 C 
ATOM     15  C   UNL     1      21.522  11.496   0.831  0.00  0.00    +0.149 C 
ATOM     16  N   UNL     1      23.924  11.185   0.954  0.00  0.00    +0.007 NA
ATOM     17  C   UNL     1      25.131  11.524   0.530  0.00  0.00    +0.386 C 
ATOM     18  N   UNL     1      26.210  10.898   1.117  0.00  0.00    -0.296 N 
ATOM     19  H   UNL     1      25.932  10.019   1.531  0.00  0.00    +0.148 HD
ATOM     20  H   UNL     1      27.010  10.891   0.501  0.00  0.00    +0.148 HD
ATOM     21  N   UNL     1      25.383  12.399  -0.428  0.00  0.00    -0.290 NA
ATOM     22  N   UNL     1      23.538  14.669  -2.572  0.00  0.00    -0.056 NA
ENDBRANCH   7   9
ENDBRANCH   6   7
ENDBRANCH   5   6
ENDBRANCH   1   5
BRANCH   2  23
ATOM     23  C   UNL     1      28.569  14.891  -0.436  0.00  0.00    +0.152 C 
BRANCH  23  24
ATOM     24  C   UNL     1      29.544  14.422   0.663  0.00  0.00    +0.193 C 
ATOM     25  O   UNL     1      29.696  12.994   0.502  0.00  0.00    -0.219 OA
BRANCH  24  26
ATOM     26  C   UNL     1      30.988  14.969   0.619  0.00  0.00    +0.212 C 
ATOM     27  O   UNL     1      31.030  16.313   1.127  0.00  0.00    -0.218 OA
BRANCH  26  28
ATOM     28  C   UNL     1      32.014  14.091   1.432  0.00  0.00    +0.171 C 
ATOM     29  O   UNL     1      32.331  14.653   2.701  0.00  0.00    -0.343 OA
ATOM     30  C   UNL     1      33.381  14.220   3.514  0.00  0.00    +0.220 C 
ATOM     31  C   UNL     1      34.707  14.138   2.738  0.00  0.00    +0.076 C 
ATOM     32  C   UNL     1      34.459  13.277   1.488  0.00  0.00    +0.177 C 
ATOM     33  O   UNL     1      35.667  13.136   0.753  0.00  0.00    -0.221 OA
ATOM     34  C   UNL     1      33.334  13.912   0.613  0.00  0.00    +0.155 C 
BRANCH  34  35
ATOM     35  N   UNL     1      33.101  13.101  -0.579  0.00  0.00    -0.202 NA
ATOM     36  C   UNL     1      33.184  13.441  -1.890  0.00  0.00    +0.242 C 
ATOM     37  C   UNL     1      33.181  12.339  -2.917  0.00  0.00    +0.096 C 
ATOM     38  O   UNL     1      33.261  14.627  -2.207  0.00  0.00    -0.273 OA
ENDBRANCH  34  35
BRANCH  30  39
ATOM     39  C   UNL     1      33.063  12.834   4.300  0.00  0.00    +0.391 C 
ATOM     40  O   UNL     1      34.235  12.474   4.859  0.00  0.00    -0.243 OA
ATOM     41  O   UNL     1      31.729  12.736   4.350  0.00  0.00    -0.243 OA
ENDBRANCH  30  39
ENDBRANCH  26  28
ENDBRANCH  24  26
ENDBRANCH  23  24
ENDBRANCH   2  23
TORSDOF 10
