REMARK VINA RESULT:    -6.573      1.651      2.486
REMARK INTER + INTRA:         -13.136
REMARK INTER:                 -11.372
REMARK INTRA:                  -1.763
REMARK UNBOUND:                -1.952
REMARK  Name = lig_assembled_44.pdb
REMARK  12 active torsions:
REMARK  status: ('A' for Active; 'I' for Inactive)
REMARK    1  A    between atoms: _2  and  _8
REMARK    2  A    between atoms: _5  and  _6
REMARK    3  A    between atoms: _5  and  _14
REMARK    4  A    between atoms: _8  and  _9
REMARK    5  A    between atoms: _14  and  _16
REMARK    6  A    between atoms: _15  and  _20
REMARK    7  A    between atoms: _16  and  _19
REMARK    8  A    between atoms: _24  and  _34
REMARK    9  A    between atoms: _26  and  _27
REMARK   10  A    between atoms: _28  and  _30
REMARK   11  A    between atoms: _30  and  _32
REMARK   12  A    between atoms: _32  and  _34
REMARK                            x       y       z     vdW  Elec       q    Type
REMARK                         _______ _______ _______ _____ _____    ______ ____
ROOT
ATOM      1  C   UNL     1      27.924  16.578  -1.569  0.00  0.00    +0.400 C 
ATOM      2  N   UNL     1      27.863  15.260  -1.180  0.00  0.00    -0.278 N 
ATOM      3  H   UNL     1      28.817  15.091  -0.730  0.00  0.00    +0.152 HD
ATOM      4  O   UNL     1      28.877  17.252  -1.185  0.00  0.00    -0.226 OA
ENDROOT
BRANCH   2   5
ATOM      5  C   UNL     1      27.092  14.022  -1.096  0.00  0.00    +0.152 C 
BRANCH   5   6
ATOM      6  C   UNL     1      27.879  12.758  -0.694  0.00  0.00    +0.193 C 
ATOM      7  O   UNL     1      26.942  11.659  -0.720  0.00  0.00    -0.219 OA
BRANCH   6   8
ATOM      8  C   UNL     1      29.029  12.306  -1.621  0.00  0.00    +0.212 C 
ATOM      9  O   UNL     1      28.906  12.926  -2.911  0.00  0.00    -0.218 OA
BRANCH   8  10
ATOM     10  C   UNL     1      30.460  12.626  -1.042  0.00  0.00    +0.171 C 
ATOM     11  O   UNL     1      30.478  13.807  -0.247  0.00  0.00    -0.343 OA
ATOM     12  C   UNL     1      31.641  14.451   0.182  0.00  0.00    +0.220 C 
ATOM     13  C   UNL     1      32.616  14.703  -0.982  0.00  0.00    +0.076 C 
ATOM     14  C   UNL     1      32.845  13.359  -1.692  0.00  0.00    +0.177 C 
ATOM     15  O   UNL     1      33.772  13.527  -2.755  0.00  0.00    -0.221 OA
ATOM     16  C   UNL     1      31.488  12.786  -2.209  0.00  0.00    +0.155 C 
BRANCH  16  17
ATOM     17  N   UNL     1      31.702  11.513  -2.892  0.00  0.00    -0.202 NA
ATOM     18  C   UNL     1      31.746  11.236  -4.220  0.00  0.00    +0.242 C 
ATOM     19  C   UNL     1      32.275   9.894  -4.654  0.00  0.00    +0.096 C 
ATOM     20  O   UNL     1      31.360  12.077  -5.029  0.00  0.00    -0.273 OA
ENDBRANCH  16  17
BRANCH  12  21
ATOM     21  C   UNL     1      32.374  13.703   1.424  0.00  0.00    +0.391 C 
ATOM     22  O   UNL     1      31.419  12.931   1.978  0.00  0.00    -0.243 OA
ATOM     23  O   UNL     1      33.687  13.894   1.248  0.00  0.00    -0.243 OA
ENDBRANCH  12  21
ENDBRANCH   8  10
ENDBRANCH   6   8
ENDBRANCH   5   6
ENDBRANCH   2   5
BRANCH   1  24
ATOM     24  O   UNL     1      26.969  16.978  -2.342  0.00  0.00    -0.450 OA
BRANCH  24  25
ATOM     25  C   UNL     1      26.679  17.081  -3.717  0.00  0.00    +0.240 C 
BRANCH  25  26
ATOM     26  C   UNL     1      26.349  15.780  -4.472  0.00  0.00    +0.100 C 
BRANCH  26  28
ATOM     27  N   UNL     1      24.291  14.541  -5.085  0.00  0.00    -0.134 NA
ATOM     28  C   UNL     1      24.950  15.381  -4.225  0.00  0.00    +0.086 A 
ATOM     29  C   UNL     1      24.111  15.712  -3.188  0.00  0.00    +0.134 A 
ATOM     30  N   UNL     1      22.986  14.981  -3.430  0.00  0.00    -0.247 N 
ATOM     31  N   UNL     1      23.081  14.311  -4.593  0.00  0.00    -0.065 NA
BRANCH  30  32
ATOM     32  C   UNL     1      21.792  14.872  -2.613  0.00  0.00    +0.180 C 
BRANCH  32  33
ATOM     33  C   UNL     1      21.948  13.810  -1.549  0.00  0.00    -0.026 A 
ATOM     34  C   UNL     1      23.200  13.231  -1.294  0.00  0.00    +0.006 A 
ATOM     35  C   UNL     1      23.338  12.239  -0.320  0.00  0.00    +0.015 A 
ATOM     36  C   UNL     1      22.223  11.820   0.403  0.00  0.00    +0.018 A 
ATOM     37 BR   UNL     1      22.414  10.490   1.732  0.00  0.00    -0.050 Br
ATOM     38  C   UNL     1      20.970  12.375   0.154  0.00  0.00    +0.015 A 
ATOM     39  C   UNL     1      20.832  13.364  -0.824  0.00  0.00    +0.006 A 
ENDBRANCH  32  33
ENDBRANCH  30  32
ENDBRANCH  26  28
ENDBRANCH  25  26
ENDBRANCH  24  25
ENDBRANCH   1  24
TORSDOF 12
