REMARK VINA RESULT:    -6.534      2.040      3.900
REMARK INTER + INTRA:         -14.289
REMARK INTER:                 -12.678
REMARK INTRA:                  -1.610
REMARK UNBOUND:                -2.025
REMARK  Name = lig_assembled_10.pdb
REMARK  16 active torsions:
REMARK  status: ('A' for Active; 'I' for Inactive)
REMARK    1  A    between atoms: _2  and  _8
REMARK    2  A    between atoms: _4  and  _8
REMARK    3  A    between atoms: _4  and  _11
REMARK    4  A    between atoms: _5  and  _6
REMARK    5  A    between atoms: _5  and  _15
REMARK    6  A    between atoms: _8  and  _9
REMARK    7  A    between atoms: _9  and  _10
REMARK    8  A    between atoms: _10  and  _13
REMARK    9  A    between atoms: _15  and  _17
REMARK   10  A    between atoms: _16  and  _21
REMARK   11  A    between atoms: _17  and  _20
REMARK   12  A    between atoms: _25  and  _35
REMARK   13  A    between atoms: _27  and  _28
REMARK   14  A    between atoms: _29  and  _31
REMARK   15  A    between atoms: _31  and  _33
REMARK   16  A    between atoms: _33  and  _35
REMARK                            x       y       z     vdW  Elec       q    Type
REMARK                         _______ _______ _______ _____ _____    ______ ____
ROOT
ATOM      1  C   UNL     1      28.242  17.684  -0.570  0.00  0.00    +0.400 C 
ATOM      2  N   UNL     1      29.468  17.480   0.018  0.00  0.00    -0.278 N 
ATOM      3  H   UNL     1      29.452  18.139   0.859  0.00  0.00    +0.152 HD
ATOM      4  O   UNL     1      27.413  18.357   0.038  0.00  0.00    -0.226 OA
ENDROOT
BRANCH   2   5
ATOM      5  C   UNL     1      30.746  16.772   0.017  0.00  0.00    +0.152 C 
BRANCH   5   6
ATOM      6  C   UNL     1      30.691  15.270   0.364  0.00  0.00    +0.193 C 
ATOM      7  O   UNL     1      31.159  14.558  -0.802  0.00  0.00    -0.219 OA
BRANCH   6   8
ATOM      8  C   UNL     1      31.596  14.768   1.511  0.00  0.00    +0.212 C 
ATOM      9  O   UNL     1      31.642  15.735   2.573  0.00  0.00    -0.218 OA
BRANCH   8  10
ATOM     10  C   UNL     1      31.135  13.384   2.109  0.00  0.00    +0.171 C 
ATOM     11  O   UNL     1      29.728  13.318   2.316  0.00  0.00    -0.343 OA
ATOM     12  C   UNL     1      29.085  12.318   3.050  0.00  0.00    +0.220 C 
ATOM     13  C   UNL     1      29.732  12.120   4.432  0.00  0.00    +0.076 C 
ATOM     14  C   UNL     1      31.237  11.896   4.211  0.00  0.00    +0.177 C 
ATOM     15  O   UNL     1      31.878  11.667   5.458  0.00  0.00    -0.221 OA
ATOM     16  C   UNL     1      31.860  13.119   3.469  0.00  0.00    +0.155 C 
BRANCH  16  17
ATOM     17  N   UNL     1      33.291  12.912   3.264  0.00  0.00    -0.202 NA
ATOM     18  C   UNL     1      34.349  13.554   3.821  0.00  0.00    +0.242 C 
ATOM     19  C   UNL     1      35.719  12.948   3.660  0.00  0.00    +0.096 C 
ATOM     20  O   UNL     1      34.168  14.601   4.439  0.00  0.00    -0.273 OA
ENDBRANCH  16  17
BRANCH  12  21
ATOM     21  C   UNL     1      28.950  10.912   2.248  0.00  0.00    +0.391 C 
ATOM     22  O   UNL     1      28.582  10.013   3.181  0.00  0.00    -0.243 OA
ATOM     23  O   UNL     1      28.957  11.226   0.946  0.00  0.00    -0.243 OA
ENDBRANCH  12  21
ENDBRANCH   8  10
ENDBRANCH   6   8
ENDBRANCH   5   6
ENDBRANCH   2   5
BRANCH   1  24
ATOM     24  O   UNL     1      28.090  17.163  -1.743  0.00  0.00    -0.450 OA
BRANCH  24  25
ATOM     25  C   UNL     1      27.054  16.823  -2.634  0.00  0.00    +0.240 C 
BRANCH  25  26
ATOM     26  C   UNL     1      26.656  15.337  -2.729  0.00  0.00    +0.100 C 
BRANCH  26  28
ATOM     27  N   UNL     1      24.874  15.080  -4.429  0.00  0.00    -0.134 NA
ATOM     28  C   UNL     1      25.239  15.213  -3.118  0.00  0.00    +0.086 A 
ATOM     29  C   UNL     1      24.109  15.197  -2.332  0.00  0.00    +0.134 A 
ATOM     30  N   UNL     1      23.091  15.008  -3.216  0.00  0.00    -0.237 N 
ATOM     31  N   UNL     1      23.556  14.964  -4.481  0.00  0.00    -0.065 NA
BRANCH  30  32
ATOM     32  C   UNL     1      21.661  14.857  -3.003  0.00  0.00    +0.227 C 
BRANCH  32  33
ATOM     33  C   UNL     1      20.834  16.058  -3.408  0.00  0.00    +0.330 C 
ATOM     34  O   UNL     1      19.655  15.951  -3.725  0.00  0.00    -0.249 OA
BRANCH  33  35
ATOM     35  O   UNL     1      21.430  17.267  -3.362  0.00  0.00    -0.479 OA
ATOM     36  H   UNL     1      21.967  17.529  -4.154  0.00  0.00    +0.295 HD
ENDBRANCH  33  35
ENDBRANCH  32  33
BRANCH  32  37
ATOM     37  C   UNL     1      21.282  14.329  -1.612  0.00  0.00    +0.158 C 
BRANCH  37  38
ATOM     38  C   UNL     1      21.466  12.843  -1.501  0.00  0.00    +0.307 C 
ATOM     39  O   UNL     1      22.325  12.314  -0.807  0.00  0.00    -0.251 OA
BRANCH  38  40
ATOM     40  O   UNL     1      20.544  12.131  -2.175  0.00  0.00    -0.481 OA
ATOM     41  H   UNL     1      20.828  11.801  -3.050  0.00  0.00    +0.295 HD
ENDBRANCH  38  40
ENDBRANCH  37  38
ENDBRANCH  32  37
ENDBRANCH  30  32
ENDBRANCH  26  28
ENDBRANCH  25  26
ENDBRANCH  24  25
ENDBRANCH   1  24
TORSDOF 16
