REMARK VINA RESULT:    -7.464      1.235      3.569
REMARK INTER + INTRA:         -13.902
REMARK INTER:                 -12.479
REMARK INTRA:                  -1.423
REMARK UNBOUND:                -1.202
REMARK  Name = lig_assembled_38.pdb
REMARK  12 active torsions:
REMARK  status: ('A' for Active; 'I' for Inactive)
REMARK    1  A    between atoms: _2  and  _8
REMARK    2  A    between atoms: _5  and  _6
REMARK    3  A    between atoms: _5  and  _14
REMARK    4  A    between atoms: _8  and  _9
REMARK    5  A    between atoms: _14  and  _16
REMARK    6  A    between atoms: _15  and  _20
REMARK    7  A    between atoms: _16  and  _19
REMARK    8  A    between atoms: _24  and  _34
REMARK    9  A    between atoms: _26  and  _27
REMARK   10  A    between atoms: _28  and  _30
REMARK   11  A    between atoms: _30  and  _32
REMARK   12  A    between atoms: _32  and  _34
REMARK                            x       y       z     vdW  Elec       q    Type
REMARK                         _______ _______ _______ _____ _____    ______ ____
ROOT
ATOM      1  C   UNL     1      27.790  17.347  -0.945  0.00  0.00    +0.400 C 
ATOM      2  N   UNL     1      28.495  16.476  -0.148  0.00  0.00    -0.278 N 
ATOM      3  H   UNL     1      28.790  17.083   0.681  0.00  0.00    +0.152 HD
ATOM      4  O   UNL     1      27.517  18.455  -0.491  0.00  0.00    -0.226 OA
ENDROOT
BRANCH   2   5
ATOM      5  C   UNL     1      28.997  15.123   0.076  0.00  0.00    +0.152 C 
BRANCH   5   6
ATOM      6  C   UNL     1      30.528  14.945   0.007  0.00  0.00    +0.193 C 
ATOM      7  O   UNL     1      31.057  15.416   1.266  0.00  0.00    -0.219 OA
BRANCH   6   8
ATOM      8  C   UNL     1      31.076  13.508  -0.129  0.00  0.00    +0.212 C 
ATOM      9  O   UNL     1      30.109  12.661  -0.771  0.00  0.00    -0.218 OA
BRANCH   8  10
ATOM     10  C   UNL     1      32.429  13.429  -0.934  0.00  0.00    +0.171 C 
ATOM     11  O   UNL     1      32.308  12.673  -2.135  0.00  0.00    -0.343 OA
ATOM     12  C   UNL     1      33.389  12.241  -2.907  0.00  0.00    +0.220 C 
ATOM     13  C   UNL     1      34.449  11.523  -2.053  0.00  0.00    +0.076 C 
ATOM     14  C   UNL     1      34.817  12.458  -0.889  0.00  0.00    +0.177 C 
ATOM     15  O   UNL     1      35.825  11.858  -0.088  0.00  0.00    -0.221 OA
ATOM     16  C   UNL     1      33.547  12.792  -0.046  0.00  0.00    +0.155 C 
BRANCH  16  17
ATOM     17  N   UNL     1      33.893  13.675   1.065  0.00  0.00    -0.202 NA
ATOM     18  C   UNL     1      33.799  13.464   2.403  0.00  0.00    +0.242 C 
ATOM     19  C   UNL     1      34.499  14.424   3.329  0.00  0.00    +0.096 C 
ATOM     20  O   UNL     1      33.154  12.505   2.823  0.00  0.00    -0.273 OA
ENDBRANCH  16  17
BRANCH  12  21
ATOM     21  C   UNL     1      34.049  13.418  -3.812  0.00  0.00    +0.391 C 
ATOM     22  O   UNL     1      35.315  13.015  -4.036  0.00  0.00    -0.243 OA
ATOM     23  O   UNL     1      33.029  14.173  -4.237  0.00  0.00    -0.243 OA
ENDBRANCH  12  21
ENDBRANCH   8  10
ENDBRANCH   6   8
ENDBRANCH   5   6
ENDBRANCH   2   5
BRANCH   1  24
ATOM     24  O   UNL     1      27.505  16.916  -2.130  0.00  0.00    -0.450 OA
BRANCH  24  25
ATOM     25  C   UNL     1      26.724  17.286  -3.242  0.00  0.00    +0.240 C 
BRANCH  25  26
ATOM     26  C   UNL     1      26.218  16.159  -4.162  0.00  0.00    +0.100 C 
BRANCH  26  28
ATOM     27  N   UNL     1      24.146  15.850  -2.840  0.00  0.00    -0.134 NA
ATOM     28  C   UNL     1      25.248  15.306  -3.445  0.00  0.00    +0.086 A 
ATOM     29  C   UNL     1      25.223  13.940  -3.283  0.00  0.00    +0.134 A 
ATOM     30  N   UNL     1      24.052  13.707  -2.620  0.00  0.00    -0.247 N 
ATOM     31  N   UNL     1      23.416  14.860  -2.344  0.00  0.00    -0.065 NA
BRANCH  30  32
ATOM     32  C   UNL     1      23.379  12.435  -2.432  0.00  0.00    +0.180 C 
BRANCH  32  33
ATOM     33  C   UNL     1      22.883  12.219  -1.024  0.00  0.00    -0.025 A 
ATOM     34  C   UNL     1      21.532  12.407  -0.698  0.00  0.00    +0.005 A 
ATOM     35  C   UNL     1      21.062  12.118   0.586  0.00  0.00    +0.001 A 
ATOM     36  C   UNL     1      21.936  11.639   1.561  0.00  0.00    +0.015 A 
ATOM     37  C   UNL     1      23.281  11.461   1.249  0.00  0.00    +0.018 A 
ATOM     38 BR   UNL     1      24.470  10.802   2.564  0.00  0.00    -0.050 Br
ATOM     39  C   UNL     1      23.758  11.745  -0.031  0.00  0.00    +0.020 A 
ENDBRANCH  32  33
ENDBRANCH  30  32
ENDBRANCH  26  28
ENDBRANCH  25  26
ENDBRANCH  24  25
ENDBRANCH   1  24
TORSDOF 12
