REMARK VINA RESULT:    -7.855      2.572      4.489
REMARK INTER + INTRA:         -14.669
REMARK INTER:                 -12.349
REMARK INTRA:                  -2.320
REMARK UNBOUND:                -1.762
REMARK  Name = lig_assembled_25.pdb
REMARK  11 active torsions:
REMARK  status: ('A' for Active; 'I' for Inactive)
REMARK    1  A    between atoms: _2  and  _8
REMARK    2  A    between atoms: _5  and  _6
REMARK    3  A    between atoms: _5  and  _20
REMARK    4  A    between atoms: _20  and  _22
REMARK    5  A    between atoms: _21  and  _26
REMARK    6  A    between atoms: _22  and  _25
REMARK    7  A    between atoms: _30  and  _40
REMARK    8  A    between atoms: _32  and  _33
REMARK    9  A    between atoms: _34  and  _36
REMARK   10  A    between atoms: _36  and  _38
REMARK   11  A    between atoms: _38  and  _40
REMARK                            x       y       z     vdW  Elec       q    Type
REMARK                         _______ _______ _______ _____ _____    ______ ____
ROOT
ATOM      1  C   UNL     1      29.689  17.159  -0.251  0.00  0.00    +0.400 C 
ATOM      2  N   UNL     1      30.547  16.104  -0.049  0.00  0.00    -0.278 N 
ATOM      3  H   UNL     1      31.282  16.507   0.614  0.00  0.00    +0.152 HD
ATOM      4  O   UNL     1      29.828  18.161   0.446  0.00  0.00    -0.226 OA
ENDROOT
BRANCH   1   5
ATOM      5  O   UNL     1      28.821  17.002  -1.197  0.00  0.00    -0.450 OA
BRANCH   5   6
ATOM      6  C   UNL     1      27.480  17.326  -1.480  0.00  0.00    +0.240 C 
BRANCH   6   7
ATOM      7  C   UNL     1      26.928  16.923  -2.861  0.00  0.00    +0.100 C 
BRANCH   7   9
ATOM      8  N   UNL     1      26.792  14.470  -2.603  0.00  0.00    -0.134 NA
ATOM      9  C   UNL     1      26.154  15.671  -2.761  0.00  0.00    +0.086 A 
ATOM     10  C   UNL     1      24.795  15.456  -2.819  0.00  0.00    +0.134 A 
ATOM     11  N   UNL     1      24.666  14.100  -2.709  0.00  0.00    -0.240 N 
ATOM     12  N   UNL     1      25.876  13.514  -2.568  0.00  0.00    -0.065 NA
BRANCH  11  13
ATOM     13  C   UNL     1      23.481  13.264  -2.808  0.00  0.00    +0.170 C 
ATOM     14  C   UNL     1      22.279  14.020  -3.358  0.00  0.00    -0.011 A 
ATOM     15  C   UNL     1      21.197  13.925  -2.456  0.00  0.00    -0.012 A 
ATOM     16  C   UNL     1      21.611  13.153  -1.302  0.00  0.00    -0.012 A 
ATOM     17  C   UNL     1      20.898  12.763  -0.181  0.00  0.00    +0.009 A 
ATOM     18  C   UNL     1      21.545  11.981   0.780  0.00  0.00    +0.001 A 
ATOM     19  C   UNL     1      22.888  11.603   0.617  0.00  0.00    +0.000 A 
ATOM     20  C   UNL     1      23.611  11.996  -0.512  0.00  0.00    +0.006 A 
ATOM     21  C   UNL     1      19.981  14.519  -2.753  0.00  0.00    +0.009 A 
ATOM     22  C   UNL     1      19.857  15.207  -3.964  0.00  0.00    +0.001 A 
ATOM     23  C   UNL     1      20.935  15.296  -4.859  0.00  0.00    +0.000 A 
ATOM     24  C   UNL     1      22.160  14.697  -4.563  0.00  0.00    +0.006 A 
ATOM     25  C   UNL     1      22.964  12.771  -1.463  0.00  0.00    -0.011 A 
ENDBRANCH  11  13
ENDBRANCH   7   9
ENDBRANCH   6   7
ENDBRANCH   5   6
ENDBRANCH   1   5
BRANCH   2  26
ATOM     26  C   UNL     1      30.888  14.709  -0.315  0.00  0.00    +0.152 C 
BRANCH  26  27
ATOM     27  C   UNL     1      31.454  13.909   0.876  0.00  0.00    +0.193 C 
ATOM     28  O   UNL     1      30.957  14.542   2.075  0.00  0.00    -0.219 OA
BRANCH  27  29
ATOM     29  C   UNL     1      31.024  12.432   1.013  0.00  0.00    +0.212 C 
ATOM     30  O   UNL     1      31.686  11.818   2.131  0.00  0.00    -0.218 OA
BRANCH  29  31
ATOM     31  C   UNL     1      29.468  12.248   1.187  0.00  0.00    +0.171 C 
ATOM     32  O   UNL     1      29.114  11.755   2.475  0.00  0.00    -0.343 OA
ATOM     33  C   UNL     1      27.847  11.275   2.815  0.00  0.00    +0.220 C 
ATOM     34  C   UNL     1      27.342  10.231   1.803  0.00  0.00    +0.076 C 
ATOM     35  C   UNL     1      27.443  10.859   0.402  0.00  0.00    +0.177 C 
ATOM     36  O   UNL     1      26.949   9.948  -0.570  0.00  0.00    -0.221 OA
ATOM     37  C   UNL     1      28.918  11.266   0.101  0.00  0.00    +0.155 C 
BRANCH  37  38
ATOM     38  N   UNL     1      29.019  11.856  -1.232  0.00  0.00    -0.202 NA
ATOM     39  C   UNL     1      29.679  11.410  -2.331  0.00  0.00    +0.242 C 
ATOM     40  C   UNL     1      29.377  12.056  -3.658  0.00  0.00    +0.096 C 
ATOM     41  O   UNL     1      30.497  10.499  -2.220  0.00  0.00    -0.273 OA
ENDBRANCH  37  38
BRANCH  33  42
ATOM     42  C   UNL     1      26.753  12.451   3.056  0.00  0.00    +0.391 C 
ATOM     43  O   UNL     1      25.558  11.855   2.879  0.00  0.00    -0.243 OA
ATOM     44  O   UNL     1      27.419  13.465   3.623  0.00  0.00    -0.243 OA
ENDBRANCH  33  42
ENDBRANCH  29  31
ENDBRANCH  27  29
ENDBRANCH  26  27
ENDBRANCH   2  26
TORSDOF 11
