REMARK VINA RESULT:    -6.777      2.861      8.423
REMARK INTER + INTRA:         -13.634
REMARK INTER:                 -10.999
REMARK INTRA:                  -2.635
REMARK UNBOUND:                -1.904
REMARK  Name = lig_assembled_73.pdb
REMARK  13 active torsions:
REMARK  status: ('A' for Active; 'I' for Inactive)
REMARK    1  A    between atoms: _2  and  _9
REMARK    2  A    between atoms: _3  and  _13
REMARK    3  A    between atoms: _6  and  _7
REMARK    4  A    between atoms: _6  and  _17
REMARK    5  A    between atoms: _12  and  _15
REMARK    6  A    between atoms: _17  and  _19
REMARK    7  A    between atoms: _18  and  _23
REMARK    8  A    between atoms: _19  and  _22
REMARK    9  A    between atoms: _27  and  _37
REMARK   10  A    between atoms: _29  and  _30
REMARK   11  A    between atoms: _31  and  _33
REMARK   12  A    between atoms: _33  and  _35
REMARK   13  A    between atoms: _35  and  _37
REMARK                            x       y       z     vdW  Elec       q    Type
REMARK                         _______ _______ _______ _____ _____    ______ ____
ROOT
ATOM      1  C   UNL     1      23.576  14.354  -4.270  0.00  0.00    +0.400 C 
ATOM      2  N   UNL     1      23.480  13.135  -3.640  0.00  0.00    -0.278 N 
ATOM      3  H   UNL     1      22.557  13.204  -3.107  0.00  0.00    +0.152 HD
ATOM      4  O   UNL     1      22.599  15.098  -4.244  0.00  0.00    -0.226 OA
ENDROOT
BRANCH   2   5
ATOM      5  C   UNL     1      24.054  11.815  -3.391  0.00  0.00    +0.152 C 
BRANCH   5   6
ATOM      6  C   UNL     1      23.065  10.631  -3.404  0.00  0.00    +0.193 C 
ATOM      7  O   UNL     1      23.616   9.640  -4.298  0.00  0.00    -0.219 OA
BRANCH   6   8
ATOM      8  C   UNL     1      22.841   9.872  -2.077  0.00  0.00    +0.212 C 
ATOM      9  O   UNL     1      23.550   8.623  -2.088  0.00  0.00    -0.218 OA
BRANCH   8  10
ATOM     10  C   UNL     1      23.285  10.692  -0.806  0.00  0.00    +0.171 C 
ATOM     11  O   UNL     1      24.332  10.055  -0.082  0.00  0.00    -0.343 OA
ATOM     12  C   UNL     1      24.746  10.430   1.199  0.00  0.00    +0.220 C 
ATOM     13  C   UNL     1      23.559  10.542   2.172  0.00  0.00    +0.076 C 
ATOM     14  C   UNL     1      22.520  11.476   1.528  0.00  0.00    +0.177 C 
ATOM     15  O   UNL     1      21.417  11.647   2.406  0.00  0.00    -0.221 OA
ATOM     16  C   UNL     1      22.065  10.904   0.149  0.00  0.00    +0.155 C 
BRANCH  16  17
ATOM     17  N   UNL     1      21.073  11.784  -0.462  0.00  0.00    -0.202 NA
ATOM     18  C   UNL     1      21.231  13.005  -1.034  0.00  0.00    +0.242 C 
ATOM     19  C   UNL     1      20.096  13.565  -1.851  0.00  0.00    +0.096 C 
ATOM     20  O   UNL     1      22.285  13.618  -0.876  0.00  0.00    -0.273 OA
ENDBRANCH  16  17
BRANCH  12  21
ATOM     21  C   UNL     1      25.661  11.772   1.216  0.00  0.00    +0.391 C 
ATOM     22  O   UNL     1      25.849  12.047   2.522  0.00  0.00    -0.243 OA
ATOM     23  O   UNL     1      26.126  11.919  -0.030  0.00  0.00    -0.243 OA
ENDBRANCH  12  21
ENDBRANCH   8  10
ENDBRANCH   6   8
ENDBRANCH   5   6
ENDBRANCH   2   5
BRANCH   1  24
ATOM     24  O   UNL     1      24.720  14.615  -4.813  0.00  0.00    -0.450 OA
BRANCH  24  25
ATOM     25  C   UNL     1      25.902  15.324  -4.524  0.00  0.00    +0.240 C 
BRANCH  25  26
ATOM     26  C   UNL     1      25.767  16.640  -3.735  0.00  0.00    +0.100 C 
BRANCH  26  28
ATOM     27  N   UNL     1      27.249  17.891  -2.198  0.00  0.00    -0.134 NA
ATOM     28  C   UNL     1      26.775  16.698  -2.659  0.00  0.00    +0.086 A 
ATOM     29  C   UNL     1      27.383  15.676  -1.967  0.00  0.00    +0.139 A 
ATOM     30  N   UNL     1      28.225  16.301  -1.077  0.00  0.00    -0.220 N 
ATOM     31  N   UNL     1      28.129  17.642  -1.238  0.00  0.00    -0.061 NA
BRANCH  30  32
ATOM     32  C   UNL     1      29.093  15.720  -0.116  0.00  0.00    +0.074 A 
ATOM     33  C   UNL     1      30.354  16.296   0.121  0.00  0.00    +0.032 A 
ATOM     34  C   UNL     1      31.233  15.735   1.058  0.00  0.00    +0.054 A 
ATOM     35  C   UNL     1      30.861  14.591   1.763  0.00  0.00    +0.195 A 
ATOM     36  C   UNL     1      29.610  14.025   1.523  0.00  0.00    +0.316 A 
ATOM     37  C   UNL     1      28.713  14.576   0.596  0.00  0.00    +0.116 A 
BRANCH  36  38
ATOM     38  N   UNL     1      29.199  12.830   2.233  0.00  0.00    +0.083 N 
ATOM     39  O   UNL     1      28.973  12.933   3.446  0.00  0.00    +0.042 OA
ATOM     40  O   UNL     1      29.195  11.773   1.584  0.00  0.00    -0.576 OA
ENDBRANCH  36  38
BRANCH  35  41
ATOM     41  O   UNL     1      31.707  14.058   2.689  0.00  0.00    -0.501 OA
ATOM     42  H   UNL     1      31.367  13.199   2.996  0.00  0.00    +0.292 HD
ENDBRANCH  35  41
ENDBRANCH  30  32
ENDBRANCH  26  28
ENDBRANCH  25  26
ENDBRANCH  24  25
ENDBRANCH   1  24
TORSDOF 13
