REMARK VINA RESULT:    -6.490      3.008      9.936
REMARK INTER + INTRA:         -12.914
REMARK INTER:                 -11.233
REMARK INTRA:                  -1.681
REMARK UNBOUND:                -1.681
REMARK  Name = lig_assembled_59.pdb
REMARK  13 active torsions:
REMARK  status: ('A' for Active; 'I' for Inactive)
REMARK    1  A    between atoms: _2  and  _9
REMARK    2  A    between atoms: _6  and  _7
REMARK    3  A    between atoms: _6  and  _15
REMARK    4  A    between atoms: _12  and  _13
REMARK    5  A    between atoms: _13  and  _14
REMARK    6  A    between atoms: _15  and  _17
REMARK    7  A    between atoms: _16  and  _21
REMARK    8  A    between atoms: _17  and  _20
REMARK    9  A    between atoms: _25  and  _35
REMARK   10  A    between atoms: _27  and  _28
REMARK   11  A    between atoms: _29  and  _31
REMARK   12  A    between atoms: _31  and  _33
REMARK   13  A    between atoms: _33  and  _35
REMARK                            x       y       z     vdW  Elec       q    Type
REMARK                         _______ _______ _______ _____ _____    ______ ____
ROOT
ATOM      1  C   UNL     1      27.435  17.350  -1.955  0.00  0.00    +0.400 C 
ATOM      2  N   UNL     1      26.602  17.107  -3.022  0.00  0.00    -0.278 N 
ATOM      3  H   UNL     1      25.970  17.969  -3.043  0.00  0.00    +0.152 HD
ATOM      4  O   UNL     1      27.405  18.464  -1.439  0.00  0.00    -0.226 OA
ENDROOT
BRANCH   1   5
ATOM      5  O   UNL     1      28.162  16.351  -1.574  0.00  0.00    -0.450 OA
BRANCH   5   6
ATOM      6  C   UNL     1      28.849  15.907  -0.428  0.00  0.00    +0.240 C 
BRANCH   6   7
ATOM      7  C   UNL     1      30.249  16.494  -0.166  0.00  0.00    +0.100 C 
BRANCH   7   9
ATOM      8  N   UNL     1      31.924  14.679  -0.048  0.00  0.00    -0.134 NA
ATOM      9  C   UNL     1      31.072  15.534   0.595  0.00  0.00    +0.087 A 
ATOM     10  C   UNL     1      31.152  15.315   1.950  0.00  0.00    +0.141 A 
ATOM     11  N   UNL     1      32.076  14.304   2.090  0.00  0.00    -0.202 N 
ATOM     12  N   UNL     1      32.534  13.936   0.866  0.00  0.00    -0.059 NA
BRANCH  11  13
ATOM     13  C   UNL     1      32.510  13.693   3.297  0.00  0.00    +0.156 A 
ATOM     14  C   UNL     1      31.685  12.755   3.915  0.00  0.00    +0.048 A 
ATOM     15  C   UNL     1      32.098  12.192   5.122  0.00  0.00    +0.011 A 
ATOM     16  C   UNL     1      33.322  12.564   5.683  0.00  0.00    -0.004 A 
ATOM     17  C   UNL     1      34.078  13.506   4.994  0.00  0.00    +0.119 A 
ATOM     18  N   UNL     1      33.710  14.069   3.818  0.00  0.00    -0.236 NA
BRANCH  16  19
ATOM     19  C   UNL     1      33.742  12.039   7.025  0.00  0.00    +0.192 C 
BRANCH  19  20
ATOM     20  O   UNL     1      33.501  12.990   8.051  0.00  0.00    -0.390 OA
ATOM     21  H   UNL     1      34.150  12.818   8.754  0.00  0.00    +0.210 HD
ENDBRANCH  19  20
ENDBRANCH  16  19
ENDBRANCH  11  13
ENDBRANCH   7   9
ENDBRANCH   6   7
ENDBRANCH   5   6
ENDBRANCH   1   5
BRANCH   2  22
ATOM     22  C   UNL     1      26.212  16.228  -4.121  0.00  0.00    +0.152 C 
BRANCH  22  23
ATOM     23  C   UNL     1      25.546  14.895  -3.722  0.00  0.00    +0.193 C 
ATOM     24  O   UNL     1      26.612  13.991  -3.357  0.00  0.00    -0.219 OA
BRANCH  23  25
ATOM     25  C   UNL     1      24.610  14.903  -2.493  0.00  0.00    +0.212 C 
ATOM     26  O   UNL     1      24.003  16.195  -2.333  0.00  0.00    -0.218 OA
BRANCH  25  27
ATOM     27  C   UNL     1      23.471  13.816  -2.568  0.00  0.00    +0.171 C 
ATOM     28  O   UNL     1      22.167  14.389  -2.569  0.00  0.00    -0.343 OA
ATOM     29  C   UNL     1      20.988  13.664  -2.386  0.00  0.00    +0.220 C 
ATOM     30  C   UNL     1      21.060  12.763  -1.140  0.00  0.00    +0.076 C 
ATOM     31  C   UNL     1      22.333  11.910  -1.259  0.00  0.00    +0.177 C 
ATOM     32  O   UNL     1      22.428  11.028  -0.149  0.00  0.00    -0.221 OA
ATOM     33  C   UNL     1      23.589  12.829  -1.361  0.00  0.00    +0.155 C 
BRANCH  33  34
ATOM     34  N   UNL     1      24.802  12.022  -1.468  0.00  0.00    -0.202 NA
ATOM     35  C   UNL     1      25.793  11.821  -0.562  0.00  0.00    +0.242 C 
ATOM     36  C   UNL     1      26.778  10.710  -0.815  0.00  0.00    +0.096 C 
ATOM     37  O   UNL     1      25.863  12.541   0.432  0.00  0.00    -0.273 OA
ENDBRANCH  33  34
BRANCH  29  38
ATOM     38  C   UNL     1      20.531  12.827  -3.701  0.00  0.00    +0.391 C 
ATOM     39  O   UNL     1      19.697  11.876  -3.237  0.00  0.00    -0.243 OA
ATOM     40  O   UNL     1      20.902  13.564  -4.755  0.00  0.00    -0.243 OA
ENDBRANCH  29  38
ENDBRANCH  25  27
ENDBRANCH  23  25
ENDBRANCH  22  23
ENDBRANCH   2  22
TORSDOF 13
