REMARK VINA RESULT:    -5.745      2.890      5.148
REMARK INTER + INTRA:         -12.400
REMARK INTER:                 -10.447
REMARK INTRA:                  -1.953
REMARK UNBOUND:                -1.953
REMARK  Name = lig_assembled_13.pdb
REMARK  15 active torsions:
REMARK  status: ('A' for Active; 'I' for Inactive)
REMARK    1  A    between atoms: _2  and  _8
REMARK    2  A    between atoms: _4  and  _10
REMARK    3  A    between atoms: _5  and  _6
REMARK    4  A    between atoms: _5  and  _13
REMARK    5  A    between atoms: _8  and  _9
REMARK    6  A    between atoms: _9  and  _11
REMARK    7  A    between atoms: _10  and  _11
REMARK    8  A    between atoms: _13  and  _15
REMARK    9  A    between atoms: _14  and  _19
REMARK   10  A    between atoms: _15  and  _18
REMARK   11  A    between atoms: _23  and  _33
REMARK   12  A    between atoms: _25  and  _26
REMARK   13  A    between atoms: _27  and  _29
REMARK   14  A    between atoms: _29  and  _31
REMARK   15  A    between atoms: _31  and  _33
REMARK                            x       y       z     vdW  Elec       q    Type
REMARK                         _______ _______ _______ _____ _____    ______ ____
ROOT
ATOM      1  C   UNL     1      32.496  12.999  -1.812  0.00  0.00    +0.152 C 
ENDROOT
BRANCH   1   3
ATOM      2  C   UNL     1      32.372  13.135  -4.534  0.00  0.00    +0.400 C 
ATOM      3  N   UNL     1      32.741  13.300  -3.220  0.00  0.00    -0.278 N 
ATOM      4  H   UNL     1      33.581  13.959  -3.279  0.00  0.00    +0.152 HD
ATOM      5  O   UNL     1      32.904  13.851  -5.379  0.00  0.00    -0.226 OA
BRANCH   2   6
ATOM      6  O   UNL     1      31.507  12.202  -4.760  0.00  0.00    -0.450 OA
BRANCH   6   7
ATOM      7  C   UNL     1      30.191  12.060  -5.243  0.00  0.00    +0.240 C 
BRANCH   7   8
ATOM      8  C   UNL     1      29.155  11.414  -4.304  0.00  0.00    +0.100 C 
BRANCH   8  10
ATOM      9  N   UNL     1      28.727  12.774  -2.282  0.00  0.00    -0.134 NA
ATOM     10  C   UNL     1      28.408  12.452  -3.573  0.00  0.00    +0.086 A 
ATOM     11  C   UNL     1      27.345  13.223  -3.979  0.00  0.00    +0.134 A 
ATOM     12  N   UNL     1      27.021  13.947  -2.870  0.00  0.00    -0.241 N 
ATOM     13  N   UNL     1      27.881  13.709  -1.867  0.00  0.00    -0.065 NA
BRANCH  12  14
ATOM     14  C   UNL     1      25.985  14.944  -2.720  0.00  0.00    +0.265 C 
BRANCH  14  15
ATOM     15  C   UNL     1      26.343  16.234  -3.401  0.00  0.00    +0.329 C 
ATOM     16  O   UNL     1      26.524  16.400  -4.598  0.00  0.00    -0.249 OA
BRANCH  15  17
ATOM     17  O   UNL     1      26.543  17.196  -2.449  0.00  0.00    -0.464 OA
BRANCH  17  18
ATOM     18  C   UNL     1      27.828  17.152  -1.807  0.00  0.00    +0.229 C 
ATOM     19  C   UNL     1      27.785  18.098  -0.619  0.00  0.00    +0.048 C 
ENDBRANCH  17  18
ENDBRANCH  15  17
ENDBRANCH  14  15
ENDBRANCH  12  14
ENDBRANCH   8  10
ENDBRANCH   7   8
ENDBRANCH   6   7
ENDBRANCH   2   6
ENDBRANCH   1   3
BRANCH   1  20
ATOM     20  C   UNL     1      32.899  14.094  -0.802  0.00  0.00    +0.193 C 
ATOM     21  O   UNL     1      33.217  15.273  -1.574  0.00  0.00    -0.219 OA
BRANCH  20  22
ATOM     22  C   UNL     1      31.828  14.568   0.204  0.00  0.00    +0.212 C 
ATOM     23  O   UNL     1      30.739  15.205  -0.485  0.00  0.00    -0.218 OA
BRANCH  22  24
ATOM     24  C   UNL     1      31.248  13.404   1.095  0.00  0.00    +0.171 C 
ATOM     25  O   UNL     1      29.825  13.363   1.085  0.00  0.00    -0.343 OA
ATOM     26  C   UNL     1      29.052  12.601   1.964  0.00  0.00    +0.220 C 
ATOM     27  C   UNL     1      29.465  12.828   3.429  0.00  0.00    +0.076 C 
ATOM     28  C   UNL     1      30.980  12.589   3.525  0.00  0.00    +0.177 C 
ATOM     29  O   UNL     1      31.408  12.747   4.871  0.00  0.00    -0.221 OA
ATOM     30  C   UNL     1      31.740  13.562   2.571  0.00  0.00    +0.155 C 
BRANCH  30  31
ATOM     31  N   UNL     1      33.181  13.343   2.665  0.00  0.00    -0.202 NA
ATOM     32  C   UNL     1      34.122  14.041   3.349  0.00  0.00    +0.242 C 
ATOM     33  C   UNL     1      35.489  13.428   3.514  0.00  0.00    +0.096 C 
ATOM     34  O   UNL     1      33.841  15.143   3.816  0.00  0.00    -0.273 OA
ENDBRANCH  30  31
BRANCH  26  35
ATOM     35  C   UNL     1      29.018  11.020   1.592  0.00  0.00    +0.391 C 
ATOM     36  O   UNL     1      28.305  10.446   2.580  0.00  0.00    -0.243 OA
ATOM     37  O   UNL     1      29.436  10.930   0.323  0.00  0.00    -0.243 OA
ENDBRANCH  26  35
ENDBRANCH  22  24
ENDBRANCH  20  22
ENDBRANCH   1  20
TORSDOF 14
