REMARK VINA RESULT:    -7.217      1.718      2.447
REMARK INTER + INTRA:         -15.402
REMARK INTER:                 -13.063
REMARK INTRA:                  -2.339
REMARK UNBOUND:                -2.911
REMARK  Name = lig_assembled_23.pdb
REMARK  13 active torsions:
REMARK  status: ('A' for Active; 'I' for Inactive)
REMARK    1  A    between atoms: _2  and  _9
REMARK    2  A    between atoms: _3  and  _44
REMARK    3  A    between atoms: _6  and  _7
REMARK    4  A    between atoms: _6  and  _16
REMARK    5  A    between atoms: _11  and  _44
REMARK    6  A    between atoms: _16  and  _18
REMARK    7  A    between atoms: _17  and  _22
REMARK    8  A    between atoms: _18  and  _21
REMARK    9  A    between atoms: _26  and  _36
REMARK   10  A    between atoms: _28  and  _29
REMARK   11  A    between atoms: _30  and  _32
REMARK   12  A    between atoms: _32  and  _34
REMARK   13  A    between atoms: _34  and  _36
REMARK                            x       y       z     vdW  Elec       q    Type
REMARK                         _______ _______ _______ _____ _____    ______ ____
ROOT
ATOM      1  C   UNL     1      28.276  16.705  -0.794  0.00  0.00    +0.400 C 
ATOM      2  N   UNL     1      28.427  15.457  -0.237  0.00  0.00    -0.278 N 
ATOM      3  H   UNL     1      28.913  15.659   0.693  0.00  0.00    +0.152 HD
ATOM      4  O   UNL     1      28.527  17.685  -0.097  0.00  0.00    -0.226 OA
ENDROOT
BRANCH   2   5
ATOM      5  C   UNL     1      28.213  14.016  -0.337  0.00  0.00    +0.152 C 
BRANCH   5   6
ATOM      6  C   UNL     1      27.846  13.291   0.974  0.00  0.00    +0.193 C 
ATOM      7  O   UNL     1      28.273  11.919   0.823  0.00  0.00    -0.219 OA
BRANCH   6   8
ATOM      8  C   UNL     1      28.532  13.768   2.272  0.00  0.00    +0.212 C 
ATOM      9  O   UNL     1      27.567  13.916   3.325  0.00  0.00    -0.218 OA
BRANCH   8  10
ATOM     10  C   UNL     1      29.674  12.801   2.767  0.00  0.00    +0.171 C 
ATOM     11  O   UNL     1      29.461  12.337   4.096  0.00  0.00    -0.343 OA
ATOM     12  C   UNL     1      30.421  11.674   4.863  0.00  0.00    +0.220 C 
ATOM     13  C   UNL     1      31.759  12.434   4.884  0.00  0.00    +0.076 C 
ATOM     14  C   UNL     1      32.165  12.696   3.424  0.00  0.00    +0.177 C 
ATOM     15  O   UNL     1      33.418  13.363   3.384  0.00  0.00    -0.221 OA
ATOM     16  C   UNL     1      31.059  13.525   2.699  0.00  0.00    +0.155 C 
BRANCH  16  17
ATOM     17  N   UNL     1      31.443  13.782   1.314  0.00  0.00    -0.202 NA
ATOM     18  C   UNL     1      31.587  14.961   0.658  0.00  0.00    +0.242 C 
ATOM     19  C   UNL     1      32.278  14.956  -0.681  0.00  0.00    +0.096 C 
ATOM     20  O   UNL     1      31.157  15.995   1.165  0.00  0.00    -0.273 OA
ENDBRANCH  16  17
BRANCH  12  21
ATOM     21  C   UNL     1      30.625  10.118   4.442  0.00  0.00    +0.391 C 
ATOM     22  O   UNL     1      31.887   9.821   4.808  0.00  0.00    -0.243 OA
ATOM     23  O   UNL     1      29.401   9.644   4.178  0.00  0.00    -0.243 OA
ENDBRANCH  12  21
ENDBRANCH   8  10
ENDBRANCH   6   8
ENDBRANCH   5   6
ENDBRANCH   2   5
BRANCH   1  24
ATOM     24  O   UNL     1      27.906  16.724  -2.033  0.00  0.00    -0.450 OA
BRANCH  24  25
ATOM     25  C   UNL     1      26.992  17.400  -2.865  0.00  0.00    +0.240 C 
BRANCH  25  26
ATOM     26  C   UNL     1      26.222  16.562  -3.903  0.00  0.00    +0.100 C 
BRANCH  26  28
ATOM     27  N   UNL     1      26.088  14.170  -3.294  0.00  0.00    -0.134 NA
ATOM     28  C   UNL     1      25.553  15.423  -3.246  0.00  0.00    +0.086 A 
ATOM     29  C   UNL     1      24.381  15.385  -2.527  0.00  0.00    +0.139 A 
ATOM     30  N   UNL     1      24.244  14.071  -2.140  0.00  0.00    -0.220 N 
ATOM     31  N   UNL     1      25.287  13.353  -2.624  0.00  0.00    -0.061 NA
BRANCH  30  32
ATOM     32  C   UNL     1      23.213  13.469  -1.375  0.00  0.00    +0.069 A 
ATOM     33  C   UNL     1      23.532  12.440  -0.477  0.00  0.00    +0.056 A 
ATOM     34  C   UNL     1      22.511  11.821   0.253  0.00  0.00    +0.107 A 
ATOM     35  C   UNL     1      21.183  12.229   0.121  0.00  0.00    +0.028 A 
ATOM     36  C   UNL     1      20.870  13.263  -0.761  0.00  0.00    +0.004 A 
ATOM     37  C   UNL     1      21.877  13.879  -1.511  0.00  0.00    +0.028 A 
BRANCH  34  38
ATOM     38  S   UNL     1      22.923  10.486   1.337  0.00  0.00    +0.056 S 
ATOM     39  O   UNL     1      21.728   9.724   1.611  0.00  0.00    -0.153 OA
ATOM     40  O   UNL     1      24.154   9.875   0.893  0.00  0.00    -0.153 OA
BRANCH  38  41
ATOM     41  N   UNL     1      23.314  11.295   2.754  0.00  0.00    -0.204 NA
ATOM     42  H   UNL     1      24.161  10.898   3.162  0.00  0.00    +0.144 HD
ATOM     43  H   UNL     1      22.512  11.301   3.386  0.00  0.00    +0.144 HD
ENDBRANCH  38  41
ENDBRANCH  34  38
ENDBRANCH  30  32
ENDBRANCH  26  28
ENDBRANCH  25  26
ENDBRANCH  24  25
ENDBRANCH   1  24
TORSDOF 13
