REMARK VINA RESULT:    -6.282     22.997     25.080
REMARK INTER + INTRA:         -13.969
REMARK INTER:                 -11.057
REMARK INTRA:                  -2.913
REMARK UNBOUND:                -2.913
REMARK  Name = lig_assembled_92.pdb
REMARK  13 active torsions:
REMARK  status: ('A' for Active; 'I' for Inactive)
REMARK    1  A    between atoms: _2  and  _10
REMARK    2  A    between atoms: _3  and  _49
REMARK    3  A    between atoms: _7  and  _8
REMARK    4  A    between atoms: _7  and  _20
REMARK    5  A    between atoms: _13  and  _49
REMARK    6  A    between atoms: _20  and  _22
REMARK    7  A    between atoms: _21  and  _26
REMARK    8  A    between atoms: _22  and  _25
REMARK    9  A    between atoms: _30  and  _40
REMARK   10  A    between atoms: _32  and  _33
REMARK   11  A    between atoms: _34  and  _36
REMARK   12  A    between atoms: _36  and  _38
REMARK   13  A    between atoms: _38  and  _40
REMARK                            x       y       z     vdW  Elec       q    Type
REMARK                         _______ _______ _______ _____ _____    ______ ____
ROOT
ATOM      1  O   UNL     1      20.289  35.916   9.554  0.00  0.00    -0.450 OA
ENDROOT
BRANCH   1   2
ATOM      2  C   UNL     1      20.685  35.539   8.383  0.00  0.00    +0.400 C 
ATOM      3  N   UNL     1      21.712  36.271   7.837  0.00  0.00    -0.278 N 
ATOM      4  H   UNL     1      22.009  35.689   6.991  0.00  0.00    +0.152 HD
ATOM      5  O   UNL     1      20.250  34.584   7.744  0.00  0.00    -0.226 OA
BRANCH   3   6
ATOM      6  C   UNL     1      22.551  37.466   7.885  0.00  0.00    +0.152 C 
BRANCH   6   7
ATOM      7  C   UNL     1      24.074  37.225   7.940  0.00  0.00    +0.193 C 
ATOM      8  O   UNL     1      24.703  38.522   7.837  0.00  0.00    -0.219 OA
BRANCH   7   9
ATOM      9  C   UNL     1      24.655  36.616   9.235  0.00  0.00    +0.212 C 
ATOM     10  O   UNL     1      23.964  35.403   9.573  0.00  0.00    -0.218 OA
BRANCH   9  11
ATOM     11  C   UNL     1      26.198  36.308   9.142  0.00  0.00    +0.171 C 
ATOM     12  O   UNL     1      26.540  35.570   7.974  0.00  0.00    -0.343 OA
ATOM     13  C   UNL     1      27.778  34.959   7.762  0.00  0.00    +0.220 C 
ATOM     14  C   UNL     1      28.196  34.086   8.958  0.00  0.00    +0.076 C 
ATOM     15  C   UNL     1      28.113  34.960  10.220  0.00  0.00    +0.177 C 
ATOM     16  O   UNL     1      28.528  34.211  11.353  0.00  0.00    -0.221 OA
ATOM     17  C   UNL     1      26.663  35.506  10.402  0.00  0.00    +0.155 C 
BRANCH  17  18
ATOM     18  N   UNL     1      26.578  36.332  11.604  0.00  0.00    -0.202 NA
ATOM     19  C   UNL     1      25.889  36.122  12.754  0.00  0.00    +0.242 C 
ATOM     20  C   UNL     1      26.209  36.983  13.948  0.00  0.00    +0.096 C 
ATOM     21  O   UNL     1      25.030  35.243  12.796  0.00  0.00    -0.273 OA
ENDBRANCH  17  18
BRANCH  13  22
ATOM     22  C   UNL     1      28.952  36.003   7.346  0.00  0.00    +0.391 C 
ATOM     23  O   UNL     1      30.083  35.269   7.339  0.00  0.00    -0.243 OA
ATOM     24  O   UNL     1      28.330  37.093   6.882  0.00  0.00    -0.243 OA
ENDBRANCH  13  22
ENDBRANCH   9  11
ENDBRANCH   7   9
ENDBRANCH   6   7
ENDBRANCH   3   6
ENDBRANCH   1   2
BRANCH   1  25
ATOM     25  C   UNL     1      20.616  35.713  10.909  0.00  0.00    +0.240 C 
BRANCH  25  26
ATOM     26  C   UNL     1      19.800  34.663  11.687  0.00  0.00    +0.100 C 
BRANCH  26  28
ATOM     27  N   UNL     1      20.560  32.310  11.870  0.00  0.00    -0.134 NA
ATOM     28  C   UNL     1      20.690  33.620  12.229  0.00  0.00    +0.086 A 
ATOM     29  C   UNL     1      21.738  33.741  13.112  0.00  0.00    +0.139 A 
ATOM     30  N   UNL     1      22.243  32.467  13.242  0.00  0.00    -0.220 N 
ATOM     31  N   UNL     1      21.502  31.614  12.493  0.00  0.00    -0.061 NA
BRANCH  30  32
ATOM     32  C   UNL     1      23.373  32.039  13.985  0.00  0.00    +0.067 A 
ATOM     33  C   UNL     1      23.848  32.807  15.058  0.00  0.00    +0.030 A 
ATOM     34  C   UNL     1      24.993  32.414  15.749  0.00  0.00    +0.031 A 
ATOM     35  C   UNL     1      25.663  31.246  15.377  0.00  0.00    +0.109 A 
ATOM     36  C   UNL     1      25.196  30.466  14.317  0.00  0.00    +0.031 A 
ATOM     37  C   UNL     1      24.044  30.857  13.626  0.00  0.00    +0.030 A 
BRANCH  35  38
ATOM     38  S   UNL     1      27.197  30.860  16.177  0.00  0.00    +0.074 S 
ATOM     39  O   UNL     1      26.883  30.262  17.460  0.00  0.00    -0.150 OA
ATOM     40  O   UNL     1      28.044  30.160  15.239  0.00  0.00    -0.150 OA
BRANCH  38  41
ATOM     41  N   UNL     1      27.841  32.376  16.548  0.00  0.00    -0.194 N 
ATOM     42  H   UNL     1      27.871  32.431  17.563  0.00  0.00    +0.176 HD
ATOM     43  C   UNL     1      29.094  32.585  15.937  0.00  0.00    +0.177 A 
ATOM     44  S   UNL     1      30.574  32.341  16.756  0.00  0.00    -0.059 S 
ATOM     45  C   UNL     1      31.409  32.929  15.377  0.00  0.00    +0.068 A 
ATOM     46  C   UNL     1      30.495  33.339  14.428  0.00  0.00    +0.120 A 
ATOM     47  N   UNL     1      29.168  33.111  14.739  0.00  0.00    -0.232 NA
ENDBRANCH  38  41
ENDBRANCH  35  38
ENDBRANCH  30  32
ENDBRANCH  26  28
ENDBRANCH  25  26
ENDBRANCH   1  25
TORSDOF 13
