REMARK VINA RESULT:    -7.082      3.340     10.765
REMARK INTER + INTRA:         -15.903
REMARK INTER:                 -12.672
REMARK INTRA:                  -3.231
REMARK UNBOUND:                -3.231
REMARK  Name = lig_assembled_34.pdb
REMARK  14 active torsions:
REMARK  status: ('A' for Active; 'I' for Inactive)
REMARK    1  A    between atoms: _2  and  _8
REMARK    2  A    between atoms: _5  and  _6
REMARK    3  A    between atoms: _5  and  _32
REMARK    4  A    between atoms: _10  and  _11
REMARK    5  A    between atoms: _12  and  _13
REMARK    6  A    between atoms: _17  and  _30
REMARK    7  A    between atoms: _32  and  _34
REMARK    8  A    between atoms: _33  and  _38
REMARK    9  A    between atoms: _34  and  _37
REMARK   10  A    between atoms: _42  and  _52
REMARK   11  A    between atoms: _44  and  _45
REMARK   12  A    between atoms: _46  and  _48
REMARK   13  A    between atoms: _48  and  _50
REMARK   14  A    between atoms: _50  and  _52
REMARK                            x       y       z     vdW  Elec       q    Type
REMARK                         _______ _______ _______ _____ _____    ______ ____
ROOT
ATOM      1  N   UNL     1      29.799  10.001  -5.411  0.00  0.00    -0.134 NA
ATOM      2  C   UNL     1      30.359  11.231  -5.210  0.00  0.00    +0.086 A 
ATOM      3  C   UNL     1      29.379  12.106  -4.812  0.00  0.00    +0.139 A 
ATOM      4  N   UNL     1      28.221  11.361  -4.753  0.00  0.00    -0.220 N 
ATOM      5  N   UNL     1      28.498  10.089  -5.146  0.00  0.00    -0.061 NA
ENDROOT
BRANCH   4   6
ATOM      6  C   UNL     1      26.935  11.777  -4.315  0.00  0.00    +0.068 A 
ATOM      7  C   UNL     1      26.739  13.100  -3.902  0.00  0.00    +0.038 A 
ATOM      8  C   UNL     1      25.522  13.549  -3.335  0.00  0.00    +0.007 A 
ATOM      9  C   UNL     1      24.443  12.648  -3.254  0.00  0.00    -0.008 A 
ATOM     10  C   UNL     1      24.634  11.324  -3.719  0.00  0.00    +0.011 A 
ATOM     11  C   UNL     1      25.868  10.883  -4.228  0.00  0.00    +0.028 A 
BRANCH   9  12
ATOM     12  C   UNL     1      23.115  12.960  -2.630  0.00  0.00    +0.004 A 
ATOM     13  C   UNL     1      22.814  12.620  -1.346  0.00  0.00    +0.026 A 
ATOM     14  C   UNL     1      23.737  11.868  -0.487  0.00  0.00    +0.016 A 
ATOM     15  C   UNL     1      23.351  11.381   0.703  0.00  0.00    +0.051 A 
ATOM     16  C   UNL     1      21.978  11.621   1.207  0.00  0.00    +0.183 A 
ATOM     17  O   UNL     1      21.591  11.129   2.264  0.00  0.00    -0.288 OA
ATOM     18  C   UNL     1      21.118  12.536   0.431  0.00  0.00    +0.097 A 
ATOM     19  C   UNL     1      21.529  13.028  -0.745  0.00  0.00    +0.140 A 
ATOM     20  O   UNL     1      20.746  13.989  -1.367  0.00  0.00    -0.455 OA
ATOM     21  C   UNL     1      21.018  14.310  -2.671  0.00  0.00    +0.140 A 
ATOM     22  C   UNL     1      20.145  15.214  -3.278  0.00  0.00    +0.092 A 
ATOM     23  C   UNL     1      20.324  15.539  -4.613  0.00  0.00    +0.120 A 
ATOM     24  C   UNL     1      21.313  14.912  -5.364  0.00  0.00    +0.046 A 
ATOM     25  C   UNL     1      22.187  14.019  -4.738  0.00  0.00    +0.016 A 
ATOM     26  C   UNL     1      22.089  13.754  -3.364  0.00  0.00    +0.026 A 
BRANCH  23  27
ATOM     27  O   UNL     1      19.517  16.492  -5.161  0.00  0.00    -0.507 OA
ATOM     28  H   UNL     1      18.662  16.452  -4.702  0.00  0.00    +0.292 HD
ENDBRANCH  23  27
ENDBRANCH   9  12
BRANCH   8  29
ATOM     29  C   UNL     1      25.514  14.964  -2.788  0.00  0.00    +0.072 C 
ATOM     30  O   UNL     1      24.701  15.773  -3.343  0.00  0.00    -0.545 OA
ATOM     31  O   UNL     1      26.353  15.266  -1.889  0.00  0.00    -0.545 OA
ENDBRANCH   8  29
ENDBRANCH   4   6
BRANCH   2  32
ATOM     32  C   UNL     1      31.799  11.487  -5.409  0.00  0.00    +0.100 C 
BRANCH  32  33
ATOM     33  C   UNL     1      32.566  11.359  -4.080  0.00  0.00    +0.240 C 
BRANCH  33  34
ATOM     34  O   UNL     1      33.414  12.422  -3.713  0.00  0.00    -0.450 OA
BRANCH  34  35
ATOM     35  C   UNL     1      33.465  13.710  -3.801  0.00  0.00    +0.400 C 
ATOM     36  N   UNL     1      33.442  14.390  -2.606  0.00  0.00    -0.278 N 
ATOM     37  H   UNL     1      33.688  15.392  -2.886  0.00  0.00    +0.152 HD
ATOM     38  O   UNL     1      33.560  14.363  -4.837  0.00  0.00    -0.226 OA
BRANCH  36  39
ATOM     39  C   UNL     1      33.223  14.361  -1.162  0.00  0.00    +0.152 C 
BRANCH  39  40
ATOM     40  C   UNL     1      31.849  14.862  -0.673  0.00  0.00    +0.193 C 
ATOM     41  O   UNL     1      30.857  13.988  -1.256  0.00  0.00    -0.219 OA
BRANCH  40  42
ATOM     42  C   UNL     1      31.567  14.807   0.845  0.00  0.00    +0.212 C 
ATOM     43  O   UNL     1      31.125  16.089   1.320  0.00  0.00    -0.218 OA
BRANCH  42  44
ATOM     44  C   UNL     1      30.491  13.724   1.241  0.00  0.00    +0.171 C 
ATOM     45  O   UNL     1      29.240  14.302   1.600  0.00  0.00    -0.343 OA
ATOM     46  C   UNL     1      28.199  13.605   2.219  0.00  0.00    +0.220 C 
ATOM     47  C   UNL     1      28.686  12.832   3.457  0.00  0.00    +0.076 C 
ATOM     48  C   UNL     1      29.878  11.964   3.021  0.00  0.00    +0.177 C 
ATOM     49  O   UNL     1      30.343  11.196   4.122  0.00  0.00    -0.221 OA
ATOM     50  C   UNL     1      31.012  12.861   2.436  0.00  0.00    +0.155 C 
BRANCH  50  51
ATOM     51  N   UNL     1      32.149  12.040   2.027  0.00  0.00    -0.202 NA
ATOM     52  C   UNL     1      33.461  12.151   2.354  0.00  0.00    +0.242 C 
ATOM     53  C   UNL     1      34.378  10.999   2.033  0.00  0.00    +0.096 C 
ATOM     54  O   UNL     1      33.867  13.175   2.900  0.00  0.00    -0.273 OA
ENDBRANCH  50  51
BRANCH  46  55
ATOM     55  C   UNL     1      27.371  12.644   1.204  0.00  0.00    +0.391 C 
ATOM     56  O   UNL     1      26.526  11.951   1.992  0.00  0.00    -0.243 OA
ATOM     57  O   UNL     1      27.615  13.109  -0.028  0.00  0.00    -0.243 OA
ENDBRANCH  46  55
ENDBRANCH  42  44
ENDBRANCH  40  42
ENDBRANCH  39  40
ENDBRANCH  36  39
ENDBRANCH  34  35
ENDBRANCH  33  34
ENDBRANCH  32  33
ENDBRANCH   2  32
TORSDOF 14
