REMARK VINA RESULT:    -6.879      2.321      3.238
REMARK INTER + INTRA:         -14.002
REMARK INTER:                 -11.817
REMARK INTRA:                  -2.185
REMARK UNBOUND:                -2.096
REMARK  Name = lig_assembled_88.pdb
REMARK  13 active torsions:
REMARK  status: ('A' for Active; 'I' for Inactive)
REMARK    1  A    between atoms: _2  and  _8
REMARK    2  A    between atoms: _4  and  _14
REMARK    3  A    between atoms: _5  and  _6
REMARK    4  A    between atoms: _5  and  _15
REMARK    5  A    between atoms: _8  and  _9
REMARK    6  A    between atoms: _15  and  _17
REMARK    7  A    between atoms: _16  and  _21
REMARK    8  A    between atoms: _17  and  _20
REMARK    9  A    between atoms: _25  and  _35
REMARK   10  A    between atoms: _27  and  _28
REMARK   11  A    between atoms: _29  and  _31
REMARK   12  A    between atoms: _31  and  _33
REMARK   13  A    between atoms: _33  and  _35
REMARK                            x       y       z     vdW  Elec       q    Type
REMARK                         _______ _______ _______ _____ _____    ______ ____
ROOT
ATOM      1  C   UNL     1      28.551  16.719  -0.423  0.00  0.00    +0.400 C 
ATOM      2  N   UNL     1      28.573  15.431   0.060  0.00  0.00    -0.278 N 
ATOM      3  H   UNL     1      29.128  15.518   0.969  0.00  0.00    +0.152 HD
ATOM      4  O   UNL     1      28.959  17.618   0.308  0.00  0.00    -0.226 OA
ENDROOT
BRANCH   1   5
ATOM      5  O   UNL     1      28.124  16.855  -1.635  0.00  0.00    -0.450 OA
BRANCH   5   6
ATOM      6  C   UNL     1      27.107  17.529  -2.340  0.00  0.00    +0.240 C 
BRANCH   6   7
ATOM      7  C   UNL     1      26.955  17.215  -3.841  0.00  0.00    +0.100 C 
BRANCH   7   9
ATOM      8  N   UNL     1      25.810  15.539  -5.259  0.00  0.00    -0.134 NA
ATOM      9  C   UNL     1      25.936  16.169  -4.049  0.00  0.00    +0.086 A 
ATOM     10  C   UNL     1      24.989  15.672  -3.182  0.00  0.00    +0.134 A 
ATOM     11  N   UNL     1      24.271  14.800  -3.948  0.00  0.00    -0.247 N 
ATOM     12  N   UNL     1      24.800  14.684  -5.180  0.00  0.00    -0.065 NA
BRANCH  11  13
ATOM     13  C   UNL     1      23.043  14.102  -3.601  0.00  0.00    +0.184 C 
BRANCH  13  14
ATOM     14  C   UNL     1      23.252  12.996  -2.585  0.00  0.00    +0.017 A 
ATOM     15  C   UNL     1      24.281  12.042  -2.707  0.00  0.00    +0.024 A 
ATOM     16  C   UNL     1      24.443  11.037  -1.751  0.00  0.00    +0.019 A 
ATOM     17 BR   UNL     1      25.806   9.744  -1.975  0.00  0.00    -0.050 Br
ATOM     18  C   UNL     1      23.612  10.972  -0.637  0.00  0.00    +0.034 A 
ATOM     19  C   UNL     1      22.621  11.936  -0.478  0.00  0.00    +0.061 A 
ATOM     20 BR   UNL     1      21.514  11.865   1.061  0.00  0.00    -0.046 Br
ATOM     21  C   UNL     1      22.445  12.941  -1.440  0.00  0.00    +0.136 A 
BRANCH  21  22
ATOM     22  O   UNL     1      21.483  13.903  -1.285  0.00  0.00    -0.505 OA
ATOM     23  H   UNL     1      21.418  14.105  -0.332  0.00  0.00    +0.292 HD
ENDBRANCH  21  22
ENDBRANCH  13  14
ENDBRANCH  11  13
ENDBRANCH   7   9
ENDBRANCH   6   7
ENDBRANCH   5   6
ENDBRANCH   1   5
BRANCH   2  24
ATOM     24  C   UNL     1      28.175  14.036  -0.101  0.00  0.00    +0.152 C 
BRANCH  24  25
ATOM     25  C   UNL     1      27.787  13.286   1.190  0.00  0.00    +0.193 C 
ATOM     26  O   UNL     1      28.160  11.904   0.995  0.00  0.00    -0.219 OA
BRANCH  25  27
ATOM     27  C   UNL     1      28.501  13.697   2.497  0.00  0.00    +0.212 C 
ATOM     28  O   UNL     1      27.549  13.845   3.563  0.00  0.00    -0.218 OA
BRANCH  27  29
ATOM     29  C   UNL     1      29.610  12.673   2.951  0.00  0.00    +0.171 C 
ATOM     30  O   UNL     1      29.393  12.179   4.268  0.00  0.00    -0.343 OA
ATOM     31  C   UNL     1      30.336  11.458   5.005  0.00  0.00    +0.220 C 
ATOM     32  C   UNL     1      31.701  12.167   5.033  0.00  0.00    +0.076 C 
ATOM     33  C   UNL     1      32.102  12.457   3.577  0.00  0.00    +0.177 C 
ATOM     34  O   UNL     1      33.379  13.078   3.544  0.00  0.00    -0.221 OA
ATOM     35  C   UNL     1      31.020  13.347   2.889  0.00  0.00    +0.155 C 
BRANCH  35  36
ATOM     36  N   UNL     1      31.401  13.631   1.508  0.00  0.00    -0.202 NA
ATOM     37  C   UNL     1      31.674  14.819   0.910  0.00  0.00    +0.242 C 
ATOM     38  C   UNL     1      32.327  14.802  -0.448  0.00  0.00    +0.096 C 
ATOM     39  O   UNL     1      31.388  15.868   1.483  0.00  0.00    -0.273 OA
ENDBRANCH  35  36
BRANCH  31  40
ATOM     40  C   UNL     1      30.477   9.909   4.535  0.00  0.00    +0.391 C 
ATOM     41  O   UNL     1      31.510   9.422   5.250  0.00  0.00    -0.243 OA
ATOM     42  O   UNL     1      29.355   9.623   3.863  0.00  0.00    -0.243 OA
ENDBRANCH  31  40
ENDBRANCH  27  29
ENDBRANCH  25  27
ENDBRANCH  24  25
ENDBRANCH   2  24
TORSDOF 13
