REMARK VINA RESULT:    -6.422      3.905      9.657
REMARK INTER + INTRA:         -12.743
REMARK INTER:                 -11.022
REMARK INTRA:                  -1.721
REMARK UNBOUND:                -2.191
REMARK  Name = lig_assembled_93.pdb
REMARK  11 active torsions:
REMARK  status: ('A' for Active; 'I' for Inactive)
REMARK    1  A    between atoms: _2  and  _8
REMARK    2  A    between atoms: _5  and  _6
REMARK    3  A    between atoms: _5  and  _13
REMARK    4  A    between atoms: _13  and  _15
REMARK    5  A    between atoms: _14  and  _19
REMARK    6  A    between atoms: _15  and  _18
REMARK    7  A    between atoms: _23  and  _33
REMARK    8  A    between atoms: _25  and  _26
REMARK    9  A    between atoms: _27  and  _29
REMARK   10  A    between atoms: _29  and  _31
REMARK   11  A    between atoms: _31  and  _33
REMARK                            x       y       z     vdW  Elec       q    Type
REMARK                         _______ _______ _______ _____ _____    ______ ____
ROOT
ATOM      1  C   UNL     1      27.569  17.261  -1.505  0.00  0.00    +0.400 C 
ATOM      2  N   UNL     1      26.476  16.896  -2.255  0.00  0.00    -0.278 N 
ATOM      3  H   UNL     1      25.817  17.731  -2.153  0.00  0.00    +0.152 HD
ATOM      4  O   UNL     1      27.627  18.416  -1.089  0.00  0.00    -0.226 OA
ENDROOT
BRANCH   1   5
ATOM      5  O   UNL     1      28.432  16.326  -1.281  0.00  0.00    -0.450 OA
BRANCH   5   6
ATOM      6  C   UNL     1      28.512  15.080  -0.628  0.00  0.00    +0.240 C 
BRANCH   6   7
ATOM      7  C   UNL     1      29.782  14.238  -0.856  0.00  0.00    +0.100 C 
BRANCH   7   9
ATOM      8  N   UNL     1      30.594  15.374   1.178  0.00  0.00    -0.134 NA
ATOM      9  C   UNL     1      30.670  14.325   0.317  0.00  0.00    +0.086 A 
ATOM     10  C   UNL     1      31.651  13.464   0.752  0.00  0.00    +0.139 A 
ATOM     11  N   UNL     1      32.150  14.025   1.917  0.00  0.00    -0.219 N 
ATOM     12  N   UNL     1      31.492  15.186   2.133  0.00  0.00    -0.061 NA
BRANCH  11  13
ATOM     13  C   UNL     1      33.165  13.509   2.782  0.00  0.00    +0.080 A 
ATOM     14  C   UNL     1      34.508  13.853   2.494  0.00  0.00    +0.029 A 
ATOM     15  C   UNL     1      35.571  13.382   3.269  0.00  0.00    +0.002 A 
ATOM     16  C   UNL     1      35.325  12.556   4.352  0.00  0.00    +0.001 A 
ATOM     17  C   UNL     1      34.013  12.205   4.662  0.00  0.00    +0.016 A 
ATOM     18  C   UNL     1      32.927  12.672   3.892  0.00  0.00    +0.039 A 
ATOM     19  I   UNL     1      31.066  11.972   4.618  0.00  0.00    -0.042 I 
ENDBRANCH  11  13
ENDBRANCH   7   9
ENDBRANCH   6   7
ENDBRANCH   5   6
ENDBRANCH   1   5
BRANCH   2  20
ATOM     20  C   UNL     1      25.833  15.909  -3.118  0.00  0.00    +0.152 C 
BRANCH  20  21
ATOM     21  C   UNL     1      24.774  15.008  -2.450  0.00  0.00    +0.193 C 
ATOM     22  O   UNL     1      23.595  15.066  -3.283  0.00  0.00    -0.219 OA
BRANCH  21  23
ATOM     23  C   UNL     1      25.089  13.501  -2.332  0.00  0.00    +0.212 C 
ATOM     24  O   UNL     1      26.417  13.227  -2.806  0.00  0.00    -0.218 OA
BRANCH  23  25
ATOM     25  C   UNL     1      24.955  12.949  -0.861  0.00  0.00    +0.171 C 
ATOM     26  O   UNL     1      26.043  12.107  -0.491  0.00  0.00    -0.343 OA
ATOM     27  C   UNL     1      26.061  11.298   0.647  0.00  0.00    +0.220 C 
ATOM     28  C   UNL     1      24.794  10.432   0.752  0.00  0.00    +0.076 C 
ATOM     29  C   UNL     1      23.581  11.371   0.645  0.00  0.00    +0.177 C 
ATOM     30  O   UNL     1      22.380  10.624   0.777  0.00  0.00    -0.221 OA
ATOM     31  C   UNL     1      23.621  12.148  -0.707  0.00  0.00    +0.155 C 
BRANCH  31  32
ATOM     32  N   UNL     1      22.466  13.036  -0.816  0.00  0.00    -0.202 NA
ATOM     33  C   UNL     1      21.395  12.969  -1.646  0.00  0.00    +0.242 C 
ATOM     34  C   UNL     1      20.204  13.844  -1.350  0.00  0.00    +0.096 C 
ATOM     35  O   UNL     1      21.419  12.204  -2.608  0.00  0.00    -0.273 OA
ENDBRANCH  31  32
BRANCH  27  36
ATOM     36  C   UNL     1      26.338  12.120   2.021  0.00  0.00    +0.391 C 
ATOM     37  O   UNL     1      25.926  11.299   3.007  0.00  0.00    -0.243 OA
ATOM     38  O   UNL     1      27.129  13.146   1.685  0.00  0.00    -0.243 OA
ENDBRANCH  27  36
ENDBRANCH  23  25
ENDBRANCH  21  23
ENDBRANCH  20  21
ENDBRANCH   2  20
TORSDOF 11
