REMARK VINA RESULT:    -7.002      1.144      2.066
REMARK INTER + INTRA:         -14.510
REMARK INTER:                 -12.528
REMARK INTRA:                  -1.982
REMARK UNBOUND:                -2.596
REMARK  Name = lig_assembled_4.pdb
REMARK  14 active torsions:
REMARK  status: ('A' for Active; 'I' for Inactive)
REMARK    1  A    between atoms: _2  and  _8
REMARK    2  A    between atoms: _5  and  _6
REMARK    3  A    between atoms: _5  and  _16
REMARK    4  A    between atoms: _9  and  _10
REMARK    5  A    between atoms: _10  and  _11
REMARK    6  A    between atoms: _10  and  _12
REMARK    7  A    between atoms: _16  and  _18
REMARK    8  A    between atoms: _17  and  _22
REMARK    9  A    between atoms: _18  and  _21
REMARK   10  A    between atoms: _26  and  _36
REMARK   11  A    between atoms: _28  and  _29
REMARK   12  A    between atoms: _30  and  _32
REMARK   13  A    between atoms: _32  and  _34
REMARK   14  A    between atoms: _34  and  _36
REMARK                            x       y       z     vdW  Elec       q    Type
REMARK                         _______ _______ _______ _____ _____    ______ ____
ROOT
ATOM      1  C   UNL     1      27.459  17.331  -1.640  0.00  0.00    +0.400 C 
ATOM      2  N   UNL     1      28.004  16.216  -1.048  0.00  0.00    -0.278 N 
ATOM      3  H   UNL     1      28.761  16.620  -0.411  0.00  0.00    +0.152 HD
ATOM      4  O   UNL     1      27.789  18.434  -1.211  0.00  0.00    -0.226 OA
ENDROOT
BRANCH   2   5
ATOM      5  C   UNL     1      28.003  14.764  -0.893  0.00  0.00    +0.152 C 
BRANCH   5   6
ATOM      6  C   UNL     1      29.039  14.185   0.092  0.00  0.00    +0.193 C 
ATOM      7  O   UNL     1      28.854  12.752   0.096  0.00  0.00    -0.219 OA
BRANCH   6   8
ATOM      8  C   UNL     1      30.534  14.379  -0.246  0.00  0.00    +0.212 C 
ATOM      9  O   UNL     1      30.865  15.777  -0.275  0.00  0.00    -0.218 OA
BRANCH   8  10
ATOM     10  C   UNL     1      31.502  13.653   0.764  0.00  0.00    +0.171 C 
ATOM     11  O   UNL     1      31.418  14.185   2.082  0.00  0.00    -0.343 OA
ATOM     12  C   UNL     1      32.324  13.901   3.106  0.00  0.00    +0.220 C 
ATOM     13  C   UNL     1      33.780  14.108   2.653  0.00  0.00    +0.076 C 
ATOM     14  C   UNL     1      33.983  13.294   1.365  0.00  0.00    +0.177 C 
ATOM     15  O   UNL     1      35.328  13.418   0.924  0.00  0.00    -0.221 OA
ATOM     16  C   UNL     1      32.981  13.766   0.266  0.00  0.00    +0.155 C 
BRANCH  16  17
ATOM     17  N   UNL     1      33.175  13.000  -0.962  0.00  0.00    -0.202 NA
ATOM     18  C   UNL     1      33.479  13.428  -2.213  0.00  0.00    +0.242 C 
ATOM     19  C   UNL     1      33.913  12.408  -3.233  0.00  0.00    +0.096 C 
ATOM     20  O   UNL     1      33.394  14.625  -2.483  0.00  0.00    -0.273 OA
ENDBRANCH  16  17
BRANCH  12  21
ATOM     21  C   UNL     1      32.108  12.436   3.773  0.00  0.00    +0.391 C 
ATOM     22  O   UNL     1      33.249  12.189   4.447  0.00  0.00    -0.243 OA
ATOM     23  O   UNL     1      30.802  12.166   3.660  0.00  0.00    -0.243 OA
ENDBRANCH  12  21
ENDBRANCH   8  10
ENDBRANCH   6   8
ENDBRANCH   5   6
ENDBRANCH   2   5
BRANCH   1  24
ATOM     24  O   UNL     1      26.659  17.105  -2.630  0.00  0.00    -0.450 OA
BRANCH  24  25
ATOM     25  C   UNL     1      26.624  16.364  -3.827  0.00  0.00    +0.240 C 
BRANCH  25  26
ATOM     26  C   UNL     1      25.282  15.722  -4.227  0.00  0.00    +0.100 C 
BRANCH  26  28
ATOM     27  N   UNL     1      25.332  13.295  -3.783  0.00  0.00    -0.134 NA
ATOM     28  C   UNL     1      24.993  14.549  -3.381  0.00  0.00    +0.086 A 
ATOM     29  C   UNL     1      24.354  14.476  -2.164  0.00  0.00    +0.139 A 
ATOM     30  N   UNL     1      24.208  13.124  -1.922  0.00  0.00    -0.220 N 
ATOM     31  N   UNL     1      24.873  12.440  -2.877  0.00  0.00    -0.061 NA
BRANCH  30  32
ATOM     32  C   UNL     1      23.467  12.506  -0.870  0.00  0.00    +0.070 A 
ATOM     33  C   UNL     1      22.046  12.465  -0.834  0.00  0.00    -0.019 A 
ATOM     34  C   UNL     1      21.439  11.847   0.283  0.00  0.00    +0.006 A 
ATOM     35  C   UNL     1      22.189  11.304   1.328  0.00  0.00    +0.000 A 
ATOM     36  C   UNL     1      23.573  11.344   1.279  0.00  0.00    +0.002 A 
ATOM     37  C   UNL     1      24.208  11.940   0.192  0.00  0.00    +0.028 A 
BRANCH  33  38
ATOM     38  C   UNL     1      21.140  13.053  -1.918  0.00  0.00    +0.015 C 
ATOM     39  C   UNL     1      19.999  13.943  -1.400  0.00  0.00    +0.012 C 
ATOM     40  C   UNL     1      20.568  11.930  -2.787  0.00  0.00    +0.012 C 
ENDBRANCH  33  38
ENDBRANCH  30  32
ENDBRANCH  26  28
ENDBRANCH  25  26
ENDBRANCH  24  25
ENDBRANCH   1  24
TORSDOF 12
