REMARK VINA RESULT:    -6.335      4.202      8.958
REMARK INTER + INTRA:         -13.452
REMARK INTER:                 -11.203
REMARK INTRA:                  -2.248
REMARK UNBOUND:                -1.931
REMARK  Name = lig_assembled_55.pdb
REMARK  15 active torsions:
REMARK  status: ('A' for Active; 'I' for Inactive)
REMARK    1  A    between atoms: _2  and  _9
REMARK    2  A    between atoms: _3  and  _10
REMARK    3  A    between atoms: _3  and  _41
REMARK    4  A    between atoms: _5  and  _41
REMARK    5  A    between atoms: _6  and  _7
REMARK    6  A    between atoms: _6  and  _13
REMARK    7  A    between atoms: _9  and  _10
REMARK    8  A    between atoms: _13  and  _15
REMARK    9  A    between atoms: _14  and  _19
REMARK   10  A    between atoms: _15  and  _18
REMARK   11  A    between atoms: _23  and  _33
REMARK   12  A    between atoms: _25  and  _26
REMARK   13  A    between atoms: _27  and  _29
REMARK   14  A    between atoms: _29  and  _31
REMARK   15  A    between atoms: _31  and  _33
REMARK                            x       y       z     vdW  Elec       q    Type
REMARK                         _______ _______ _______ _____ _____    ______ ____
ROOT
ATOM      1  C   UNL     1      25.528  15.857  -4.428  0.00  0.00    +0.400 C 
ATOM      2  N   UNL     1      24.268  15.433  -4.076  0.00  0.00    -0.278 N 
ATOM      3  H   UNL     1      24.059  14.662  -4.787  0.00  0.00    +0.152 HD
ATOM      4  O   UNL     1      26.147  15.203  -5.263  0.00  0.00    -0.226 OA
ENDROOT
BRANCH   2   5
ATOM      5  C   UNL     1      23.122  15.549  -3.179  0.00  0.00    +0.152 C 
BRANCH   5   6
ATOM      6  C   UNL     1      23.115  14.606  -1.958  0.00  0.00    +0.193 C 
ATOM      7  O   UNL     1      21.750  14.168  -1.778  0.00  0.00    -0.219 OA
BRANCH   6   8
ATOM      8  C   UNL     1      23.930  13.297  -2.061  0.00  0.00    +0.212 C 
ATOM      9  O   UNL     1      25.292  13.521  -1.662  0.00  0.00    -0.218 OA
BRANCH   8  10
ATOM     10  C   UNL     1      23.336  12.123  -1.193  0.00  0.00    +0.171 C 
ATOM     11  O   UNL     1      23.582  12.293   0.200  0.00  0.00    -0.343 OA
ATOM     12  C   UNL     1      23.386  11.300   1.162  0.00  0.00    +0.220 C 
ATOM     13  C   UNL     1      24.068   9.979   0.765  0.00  0.00    +0.076 C 
ATOM     14  C   UNL     1      23.584   9.615  -0.649  0.00  0.00    +0.177 C 
ATOM     15  O   UNL     1      24.155   8.378  -1.050  0.00  0.00    -0.221 OA
ATOM     16  C   UNL     1      23.944  10.757  -1.650  0.00  0.00    +0.155 C 
BRANCH  16  17
ATOM     17  N   UNL     1      23.492  10.412  -2.996  0.00  0.00    -0.202 NA
ATOM     18  C   UNL     1      24.193  10.346  -4.156  0.00  0.00    +0.242 C 
ATOM     19  C   UNL     1      23.549   9.680  -5.344  0.00  0.00    +0.096 C 
ATOM     20  O   UNL     1      25.324  10.825  -4.211  0.00  0.00    -0.273 OA
ENDBRANCH  16  17
BRANCH  12  21
ATOM     21  C   UNL     1      21.825  11.073   1.549  0.00  0.00    +0.391 C 
ATOM     22  O   UNL     1      21.826  10.029   2.400  0.00  0.00    -0.243 OA
ATOM     23  O   UNL     1      21.177  12.168   1.131  0.00  0.00    -0.243 OA
ENDBRANCH  12  21
ENDBRANCH   8  10
ENDBRANCH   6   8
ENDBRANCH   5   6
ENDBRANCH   2   5
BRANCH   1  24
ATOM     24  O   UNL     1      25.933  16.943  -3.856  0.00  0.00    -0.450 OA
BRANCH  24  25
ATOM     25  C   UNL     1      27.138  17.562  -3.469  0.00  0.00    +0.240 C 
BRANCH  25  26
ATOM     26  C   UNL     1      27.291  17.958  -1.989  0.00  0.00    +0.100 C 
BRANCH  26  28
ATOM     27  N   UNL     1      28.079  15.669  -1.487  0.00  0.00    -0.134 NA
ATOM     28  C   UNL     1      28.192  17.021  -1.295  0.00  0.00    +0.086 A 
ATOM     29  C   UNL     1      29.220  17.265  -0.410  0.00  0.00    +0.133 A 
ATOM     30  N   UNL     1      29.676  16.022  -0.086  0.00  0.00    -0.250 N 
ATOM     31  N   UNL     1      28.989  15.067  -0.736  0.00  0.00    -0.065 NA
BRANCH  30  32
ATOM     32  C   UNL     1      30.764  15.673   0.802  0.00  0.00    +0.162 C 
BRANCH  32  33
ATOM     33  C   UNL     1      30.454  14.488   1.723  0.00  0.00    +0.129 C 
BRANCH  33  34
ATOM     34  N   UNL     1      29.036  14.442   2.186  0.00  0.00    -0.193 NA
ATOM     35  H   UNL     1      28.397  14.634   1.405  0.00  0.00    +0.148 HD
BRANCH  34  36
ATOM     36  S   UNL     1      28.591  13.085   3.081  0.00  0.00    +0.027 S 
ATOM     37  O   UNL     1      29.755  12.684   3.838  0.00  0.00    -0.158 OA
ATOM     38  O   UNL     1      27.335  13.383   3.733  0.00  0.00    -0.158 OA
ATOM     39  C   UNL     1      28.320  11.885   1.797  0.00  0.00    +0.214 C 
ENDBRANCH  34  36
ENDBRANCH  33  34
ENDBRANCH  32  33
ENDBRANCH  30  32
ENDBRANCH  26  28
ENDBRANCH  25  26
ENDBRANCH  24  25
ENDBRANCH   1  24
TORSDOF 14
