REMARK VINA RESULT:    -7.370      1.671      2.266
REMARK INTER + INTRA:         -13.495
REMARK INTER:                 -11.929
REMARK INTRA:                  -1.566
REMARK UNBOUND:                -1.385
REMARK  Name = lig_assembled_56.pdb
REMARK  11 active torsions:
REMARK  status: ('A' for Active; 'I' for Inactive)
REMARK    1  A    between atoms: _2  and  _9
REMARK    2  A    between atoms: _6  and  _7
REMARK    3  A    between atoms: _6  and  _13
REMARK    4  A    between atoms: _13  and  _15
REMARK    5  A    between atoms: _14  and  _19
REMARK    6  A    between atoms: _15  and  _18
REMARK    7  A    between atoms: _23  and  _33
REMARK    8  A    between atoms: _25  and  _26
REMARK    9  A    between atoms: _27  and  _29
REMARK   10  A    between atoms: _29  and  _31
REMARK   11  A    between atoms: _31  and  _33
REMARK                            x       y       z     vdW  Elec       q    Type
REMARK                         _______ _______ _______ _____ _____    ______ ____
ROOT
ATOM      1  C   UNL     1      28.625  14.314  -0.229  0.00  0.00    +0.152 C 
ENDROOT
BRANCH   1   3
ATOM      2  C   UNL     1      28.107  16.937  -0.772  0.00  0.00    +0.400 C 
ATOM      3  N   UNL     1      28.507  15.768  -0.168  0.00  0.00    -0.278 N 
ATOM      4  H   UNL     1      28.895  16.096   0.773  0.00  0.00    +0.152 HD
ATOM      5  O   UNL     1      28.102  17.964  -0.098  0.00  0.00    -0.226 OA
BRANCH   2   6
ATOM      6  O   UNL     1      27.798  16.844  -2.023  0.00  0.00    -0.450 OA
BRANCH   6   7
ATOM      7  C   UNL     1      27.038  17.530  -2.990  0.00  0.00    +0.240 C 
BRANCH   7   8
ATOM      8  C   UNL     1      26.270  16.684  -4.023  0.00  0.00    +0.100 C 
BRANCH   8  10
ATOM      9  N   UNL     1      26.160  14.330  -3.271  0.00  0.00    -0.134 NA
ATOM     10  C   UNL     1      25.581  15.562  -3.356  0.00  0.00    +0.086 A 
ATOM     11  C   UNL     1      24.349  15.524  -2.743  0.00  0.00    +0.139 A 
ATOM     12  N   UNL     1      24.224  14.236  -2.277  0.00  0.00    -0.220 N 
ATOM     13  N   UNL     1      25.329  13.528  -2.618  0.00  0.00    -0.061 NA
BRANCH  12  14
ATOM     14  C   UNL     1      23.161  13.657  -1.543  0.00  0.00    +0.070 A 
ATOM     15  C   UNL     1      23.386  12.592  -0.667  0.00  0.00    +0.047 A 
ATOM     16  C   UNL     1      22.297  12.063   0.008  0.00  0.00    +0.113 A 
ATOM     17  N   UNL     1      21.035  12.516  -0.130  0.00  0.00    -0.263 NA
ATOM     18  C   UNL     1      20.844  13.548  -0.979  0.00  0.00    +0.113 A 
ATOM     19  C   UNL     1      21.861  14.149  -1.701  0.00  0.00    +0.047 A 
ENDBRANCH  12  14
ENDBRANCH   8  10
ENDBRANCH   7   8
ENDBRANCH   6   7
ENDBRANCH   2   6
ENDBRANCH   1   3
BRANCH   1  20
ATOM     20  C   UNL     1      30.035  13.735   0.006  0.00  0.00    +0.193 C 
ATOM     21  O   UNL     1      29.973  12.335  -0.342  0.00  0.00    -0.219 OA
BRANCH  20  22
ATOM     22  C   UNL     1      31.190  14.295  -0.854  0.00  0.00    +0.212 C 
ATOM     23  O   UNL     1      31.461  15.661  -0.501  0.00  0.00    -0.218 OA
BRANCH  22  24
ATOM     24  C   UNL     1      32.525  13.466  -0.723  0.00  0.00    +0.171 C 
ATOM     25  O   UNL     1      33.358  13.933   0.333  0.00  0.00    -0.343 OA
ATOM     26  C   UNL     1      34.688  13.548   0.516  0.00  0.00    +0.220 C 
ATOM     27  C   UNL     1      35.509  13.698  -0.777  0.00  0.00    +0.076 C 
ATOM     28  C   UNL     1      34.763  12.941  -1.888  0.00  0.00    +0.177 C 
ATOM     29  O   UNL     1      35.502  13.015  -3.100  0.00  0.00    -0.221 OA
ATOM     30  C   UNL     1      33.326  13.524  -2.064  0.00  0.00    +0.155 C 
BRANCH  30  31
ATOM     31  N   UNL     1      32.617  12.813  -3.125  0.00  0.00    -0.202 NA
ATOM     32  C   UNL     1      32.587  13.052  -4.460  0.00  0.00    +0.242 C 
ATOM     33  C   UNL     1      32.014  11.991  -5.364  0.00  0.00    +0.096 C 
ATOM     34  O   UNL     1      33.023  14.115  -4.897  0.00  0.00    -0.273 OA
ENDBRANCH  30  31
BRANCH  26  35
ATOM     35  C   UNL     1      34.849  12.064   1.157  0.00  0.00    +0.391 C 
ATOM     36  O   UNL     1      36.131  11.722   0.924  0.00  0.00    -0.243 OA
ATOM     37  O   UNL     1      33.767  11.871   1.921  0.00  0.00    -0.243 OA
ENDBRANCH  26  35
ENDBRANCH  22  24
ENDBRANCH  20  22
ENDBRANCH   1  20
TORSDOF 11
