REMARK VINA RESULT:    -6.420      2.464      3.807
REMARK INTER + INTRA:         -12.238
REMARK INTER:                 -10.709
REMARK INTRA:                  -1.528
REMARK UNBOUND:                -1.689
REMARK  Name = lig_assembled_49.pdb
REMARK  11 active torsions:
REMARK  status: ('A' for Active; 'I' for Inactive)
REMARK    1  A    between atoms: _2  and  _8
REMARK    2  A    between atoms: _5  and  _6
REMARK    3  A    between atoms: _5  and  _12
REMARK    4  A    between atoms: _12  and  _14
REMARK    5  A    between atoms: _13  and  _18
REMARK    6  A    between atoms: _14  and  _17
REMARK    7  A    between atoms: _22  and  _32
REMARK    8  A    between atoms: _24  and  _25
REMARK    9  A    between atoms: _26  and  _28
REMARK   10  A    between atoms: _28  and  _30
REMARK   11  A    between atoms: _30  and  _32
REMARK                            x       y       z     vdW  Elec       q    Type
REMARK                         _______ _______ _______ _____ _____    ______ ____
ROOT
ATOM      1  C   UNL     1      27.428  13.656  -1.168  0.00  0.00    +0.152 C 
ENDROOT
BRANCH   1   3
ATOM      2  C   UNL     1      27.168  16.131  -2.288  0.00  0.00    +0.400 C 
ATOM      3  N   UNL     1      27.399  15.096  -1.413  0.00  0.00    -0.278 N 
ATOM      4  H   UNL     1      27.667  15.594  -0.506  0.00  0.00    +0.152 HD
ATOM      5  O   UNL     1      27.133  17.273  -1.838  0.00  0.00    -0.226 OA
BRANCH   2   6
ATOM      6  O   UNL     1      27.038  15.795  -3.530  0.00  0.00    -0.450 OA
BRANCH   6   7
ATOM      7  C   UNL     1      26.212  16.084  -4.634  0.00  0.00    +0.240 C 
BRANCH   7   8
ATOM      8  C   UNL     1      25.363  14.934  -5.207  0.00  0.00    +0.100 C 
BRANCH   8  10
ATOM      9  N   UNL     1      22.934  14.640  -4.842  0.00  0.00    -0.134 NA
ATOM     10  C   UNL     1      24.205  14.666  -4.333  0.00  0.00    +0.086 A 
ATOM     11  C   UNL     1      24.154  14.419  -2.980  0.00  0.00    +0.134 A 
ATOM     12  N   UNL     1      22.823  14.259  -2.725  0.00  0.00    -0.248 N 
ATOM     13  N   UNL     1      22.094  14.391  -3.847  0.00  0.00    -0.065 NA
BRANCH  12  14
ATOM     14  C   UNL     1      22.193  14.007  -1.451  0.00  0.00    +0.109 C 
ATOM     15  C   UNL     1      20.665  14.063  -1.494  0.00  0.00    +0.027 C 
ATOM     16  C   UNL     1      20.264  13.351  -0.213  0.00  0.00    +0.002 C 
ATOM     17  C   UNL     1      21.246  12.193  -0.107  0.00  0.00    +0.002 C 
ATOM     18  C   UNL     1      22.513  12.634  -0.845  0.00  0.00    +0.027 C 
ENDBRANCH  12  14
ENDBRANCH   8  10
ENDBRANCH   7   8
ENDBRANCH   6   7
ENDBRANCH   2   6
ENDBRANCH   1   3
BRANCH   1  19
ATOM     19  C   UNL     1      27.749  13.218   0.276  0.00  0.00    +0.193 C 
ATOM     20  O   UNL     1      26.974  12.026   0.530  0.00  0.00    -0.219 OA
BRANCH  19  21
ATOM     21  C   UNL     1      29.203  12.807   0.592  0.00  0.00    +0.212 C 
ATOM     22  O   UNL     1      29.245  11.466   1.108  0.00  0.00    -0.218 OA
BRANCH  21  23
ATOM     23  C   UNL     1      30.163  12.897  -0.655  0.00  0.00    +0.171 C 
ATOM     24  O   UNL     1      30.917  11.705  -0.853  0.00  0.00    -0.343 OA
ATOM     25  C   UNL     1      32.005  11.596  -1.722  0.00  0.00    +0.220 C 
ATOM     26  C   UNL     1      33.031  12.720  -1.495  0.00  0.00    +0.076 C 
ATOM     27  C   UNL     1      32.276  14.057  -1.568  0.00  0.00    +0.177 C 
ATOM     28  O   UNL     1      33.188  15.135  -1.403  0.00  0.00    -0.221 OA
ATOM     29  C   UNL     1      31.150  14.098  -0.488  0.00  0.00    +0.155 C 
BRANCH  29  30
ATOM     30  N   UNL     1      30.435  15.370  -0.549  0.00  0.00    -0.202 NA
ATOM     31  C   UNL     1      30.484  16.434   0.292  0.00  0.00    +0.242 C 
ATOM     32  C   UNL     1      29.871  17.734  -0.162  0.00  0.00    +0.096 C 
ATOM     33  O   UNL     1      31.022  16.316   1.391  0.00  0.00    -0.273 OA
ENDBRANCH  29  30
BRANCH  25  34
ATOM     34  C   UNL     1      31.576  11.486  -3.286  0.00  0.00    +0.391 C 
ATOM     35  O   UNL     1      32.669  11.010  -3.913  0.00  0.00    -0.243 OA
ATOM     36  O   UNL     1      30.244  11.615  -3.314  0.00  0.00    -0.243 OA
ENDBRANCH  25  34
ENDBRANCH  21  23
ENDBRANCH  19  21
ENDBRANCH   1  19
TORSDOF 11
