REMARK VINA RESULT:    -7.451      2.641      9.188
REMARK INTER + INTRA:         -14.223
REMARK INTER:                 -12.703
REMARK INTRA:                  -1.520
REMARK UNBOUND:                -1.544
REMARK  Name = lig_assembled_69.pdb
REMARK  13 active torsions:
REMARK  status: ('A' for Active; 'I' for Inactive)
REMARK    1  A    between atoms: _2  and  _8
REMARK    2  A    between atoms: _5  and  _6
REMARK    3  A    between atoms: _5  and  _16
REMARK    4  A    between atoms: _10  and  _15
REMARK    5  A    between atoms: _13  and  _14
REMARK    6  A    between atoms: _16  and  _18
REMARK    7  A    between atoms: _17  and  _22
REMARK    8  A    between atoms: _18  and  _21
REMARK    9  A    between atoms: _26  and  _36
REMARK   10  A    between atoms: _28  and  _29
REMARK   11  A    between atoms: _30  and  _32
REMARK   12  A    between atoms: _32  and  _34
REMARK   13  A    between atoms: _34  and  _36
REMARK                            x       y       z     vdW  Elec       q    Type
REMARK                         _______ _______ _______ _____ _____    ______ ____
ROOT
ATOM      1  C   UNL     1      27.816  17.445  -1.180  0.00  0.00    +0.400 C 
ATOM      2  N   UNL     1      28.233  16.317  -0.513  0.00  0.00    -0.278 N 
ATOM      3  H   UNL     1      28.420  16.670   0.478  0.00  0.00    +0.152 HD
ATOM      4  O   UNL     1      27.589  18.457  -0.520  0.00  0.00    -0.226 OA
ENDROOT
BRANCH   1   5
ATOM      5  O   UNL     1      27.733  17.338  -2.465  0.00  0.00    -0.450 OA
BRANCH   5   6
ATOM      6  C   UNL     1      26.775  17.474  -3.489  0.00  0.00    +0.240 C 
BRANCH   6   7
ATOM      7  C   UNL     1      26.357  16.199  -4.246  0.00  0.00    +0.100 C 
BRANCH   7   9
ATOM      8  N   UNL     1      26.018  14.184  -2.857  0.00  0.00    -0.134 NA
ATOM      9  C   UNL     1      25.519  15.343  -3.386  0.00  0.00    +0.086 A 
ATOM     10  C   UNL     1      24.210  15.496  -2.986  0.00  0.00    +0.134 A 
ATOM     11  N   UNL     1      23.969  14.391  -2.225  0.00  0.00    -0.248 N 
ATOM     12  N   UNL     1      25.057  13.605  -2.152  0.00  0.00    -0.065 NA
BRANCH  11  13
ATOM     13  C   UNL     1      22.715  13.994  -1.586  0.00  0.00    +0.114 C 
ATOM     14  C   UNL     1      22.655  12.479  -1.359  0.00  0.00    +0.062 C 
ATOM     15  C   UNL     1      22.170  11.637  -2.542  0.00  0.00    +0.139 C 
ATOM     16  C   UNL     1      20.714  11.751  -2.893  0.00  0.00    +0.002 C 
ATOM     17  C   UNL     1      19.855  12.740  -2.599  0.00  0.00    +0.002 C 
ATOM     18  C   UNL     1      20.160  14.064  -1.967  0.00  0.00    +0.139 C 
ATOM     19  C   UNL     1      21.529  14.633  -2.322  0.00  0.00    +0.062 C 
BRANCH  18  20
ATOM     20  O   UNL     1      20.017  13.957  -0.560  0.00  0.00    -0.388 OA
ATOM     21  H   UNL     1      19.077  14.098  -0.352  0.00  0.00    +0.210 HD
ENDBRANCH  18  20
BRANCH  15  22
ATOM     22  O   UNL     1      22.371  10.263  -2.187  0.00  0.00    -0.388 OA
ATOM     23  H   UNL     1      21.959   9.721  -2.881  0.00  0.00    +0.210 HD
ENDBRANCH  15  22
ENDBRANCH  11  13
ENDBRANCH   7   9
ENDBRANCH   6   7
ENDBRANCH   5   6
ENDBRANCH   1   5
BRANCH   2  24
ATOM     24  C   UNL     1      28.513  14.884  -0.548  0.00  0.00    +0.152 C 
BRANCH  24  25
ATOM     25  C   UNL     1      29.517  14.362   0.501  0.00  0.00    +0.193 C 
ATOM     26  O   UNL     1      29.705  12.956   0.232  0.00  0.00    -0.219 OA
BRANCH  25  27
ATOM     27  C   UNL     1      30.944  14.953   0.481  0.00  0.00    +0.212 C 
ATOM     28  O   UNL     1      30.942  16.288   1.011  0.00  0.00    -0.218 OA
BRANCH  27  29
ATOM     29  C   UNL     1      31.988  14.091   1.289  0.00  0.00    +0.171 C 
ATOM     30  O   UNL     1      32.296  14.655   2.560  0.00  0.00    -0.343 OA
ATOM     31  C   UNL     1      33.355  14.239   3.370  0.00  0.00    +0.220 C 
ATOM     32  C   UNL     1      34.681  14.185   2.592  0.00  0.00    +0.076 C 
ATOM     33  C   UNL     1      34.448  13.323   1.340  0.00  0.00    +0.177 C 
ATOM     34  O   UNL     1      35.657  13.207   0.604  0.00  0.00    -0.221 OA
ATOM     35  C   UNL     1      33.310  13.940   0.468  0.00  0.00    +0.155 C 
BRANCH  35  36
ATOM     36  N   UNL     1      33.090  13.128  -0.726  0.00  0.00    -0.202 NA
ATOM     37  C   UNL     1      33.185  13.469  -2.036  0.00  0.00    +0.242 C 
ATOM     38  C   UNL     1      33.194  12.367  -3.063  0.00  0.00    +0.096 C 
ATOM     39  O   UNL     1      33.261  14.655  -2.352  0.00  0.00    -0.273 OA
ENDBRANCH  35  36
BRANCH  31  40
ATOM     40  C   UNL     1      33.063  12.845   4.152  0.00  0.00    +0.391 C 
ATOM     41  O   UNL     1      31.734  12.655   4.039  0.00  0.00    -0.243 OA
ATOM     42  O   UNL     1      34.258  12.272   4.343  0.00  0.00    -0.243 OA
ENDBRANCH  31  40
ENDBRANCH  27  29
ENDBRANCH  25  27
ENDBRANCH  24  25
ENDBRANCH   2  24
TORSDOF 13
