REMARK VINA RESULT:    -6.447      3.249      8.615
REMARK INTER + INTRA:         -14.640
REMARK INTER:                 -12.421
REMARK INTRA:                  -2.218
REMARK UNBOUND:                -2.540
REMARK  Name = lig_assembled_31.pdb
REMARK  15 active torsions:
REMARK  status: ('A' for Active; 'I' for Inactive)
REMARK    1  A    between atoms: _2  and  _10
REMARK    2  A    between atoms: _3  and  _11
REMARK    3  A    between atoms: _4  and  _13
REMARK    4  A    between atoms: _7  and  _8
REMARK    5  A    between atoms: _7  and  _19
REMARK    6  A    between atoms: _10  and  _11
REMARK    7  A    between atoms: _13  and  _14
REMARK    8  A    between atoms: _19  and  _21
REMARK    9  A    between atoms: _20  and  _25
REMARK   10  A    between atoms: _21  and  _24
REMARK   11  A    between atoms: _29  and  _39
REMARK   12  A    between atoms: _31  and  _32
REMARK   13  A    between atoms: _33  and  _35
REMARK   14  A    between atoms: _35  and  _37
REMARK   15  A    between atoms: _37  and  _39
REMARK                            x       y       z     vdW  Elec       q    Type
REMARK                         _______ _______ _______ _____ _____    ______ ____
ROOT
ATOM      1  C   UNL     1      28.595  16.996  -0.598  0.00  0.00    +0.400 C 
ATOM      2  N   UNL     1      28.939  15.978   0.259  0.00  0.00    -0.278 N 
ATOM      3  H   UNL     1      29.716  16.408   0.854  0.00  0.00    +0.152 HD
ATOM      4  O   UNL     1      29.064  18.112  -0.391  0.00  0.00    -0.226 OA
ENDROOT
BRANCH   2   5
ATOM      5  C   UNL     1      28.715  14.611   0.721  0.00  0.00    +0.152 C 
BRANCH   5   6
ATOM      6  C   UNL     1      29.891  13.942   1.461  0.00  0.00    +0.193 C 
ATOM      7  O   UNL     1      30.113  12.666   0.821  0.00  0.00    -0.219 OA
BRANCH   6   8
ATOM      8  C   UNL     1      31.265  14.646   1.405  0.00  0.00    +0.212 C 
ATOM      9  O   UNL     1      31.223  15.886   2.129  0.00  0.00    -0.218 OA
BRANCH   8  10
ATOM     10  C   UNL     1      32.441  13.766   1.978  0.00  0.00    +0.171 C 
ATOM     11  O   UNL     1      32.916  14.240   3.234  0.00  0.00    -0.343 OA
ATOM     12  C   UNL     1      34.095  13.805   3.845  0.00  0.00    +0.220 C 
ATOM     13  C   UNL     1      35.293  13.867   2.881  0.00  0.00    +0.076 C 
ATOM     14  C   UNL     1      34.903  13.099   1.608  0.00  0.00    +0.177 C 
ATOM     15  O   UNL     1      35.993  13.092   0.697  0.00  0.00    -0.221 OA
ATOM     16  C   UNL     1      33.632  13.736   0.965  0.00  0.00    +0.155 C 
BRANCH  16  17
ATOM     17  N   UNL     1      33.262  13.013  -0.250  0.00  0.00    -0.202 NA
ATOM     18  C   UNL     1      33.087  13.474  -1.514  0.00  0.00    +0.242 C 
ATOM     19  C   UNL     1      32.996  12.471  -2.635  0.00  0.00    +0.096 C 
ATOM     20  O   UNL     1      33.008  14.684  -1.714  0.00  0.00    -0.273 OA
ENDBRANCH  16  17
BRANCH  12  21
ATOM     21  C   UNL     1      33.963  12.343   4.539  0.00  0.00    +0.391 C 
ATOM     22  O   UNL     1      35.232  11.942   4.750  0.00  0.00    -0.243 OA
ATOM     23  O   UNL     1      32.682  12.223   4.909  0.00  0.00    -0.243 OA
ENDBRANCH  12  21
ENDBRANCH   8  10
ENDBRANCH   6   8
ENDBRANCH   5   6
ENDBRANCH   2   5
BRANCH   1  24
ATOM     24  O   UNL     1      27.819  16.665  -1.578  0.00  0.00    -0.450 OA
BRANCH  24  25
ATOM     25  C   UNL     1      26.872  17.255  -2.437  0.00  0.00    +0.240 C 
BRANCH  25  26
ATOM     26  C   UNL     1      26.779  16.709  -3.875  0.00  0.00    +0.100 C 
BRANCH  26  28
ATOM     27  N   UNL     1      24.892  15.174  -4.331  0.00  0.00    -0.134 NA
ATOM     28  C   UNL     1      26.169  15.365  -3.877  0.00  0.00    +0.086 A 
ATOM     29  C   UNL     1      26.688  14.155  -3.472  0.00  0.00    +0.133 A 
ATOM     30  N   UNL     1      25.673  13.272  -3.697  0.00  0.00    -0.250 N 
ATOM     31  N   UNL     1      24.598  13.885  -4.218  0.00  0.00    -0.065 NA
BRANCH  30  32
ATOM     32  C   UNL     1      25.653  11.847  -3.439  0.00  0.00    +0.164 C 
BRANCH  32  33
ATOM     33  C   UNL     1      25.151  11.545  -2.035  0.00  0.00    +0.129 C 
BRANCH  33  34
ATOM     34  N   UNL     1      23.704  11.427  -1.920  0.00  0.00    -0.298 N 
ATOM     35  H   UNL     1      23.197  10.735  -2.454  0.00  0.00    +0.150 HD
ATOM     36  C   UNL     1      23.000  12.500  -1.439  0.00  0.00    +0.300 C 
ATOM     37  O   UNL     1      23.547  13.514  -1.010  0.00  0.00    -0.253 OA
ATOM     38  N   UNL     1      21.649  12.339  -1.450  0.00  0.00    -0.292 N 
ATOM     39  H   UNL     1      21.201  11.523  -1.842  0.00  0.00    +0.151 HD
BRANCH  38  40
ATOM     40  C   UNL     1      20.821  13.413  -0.957  0.00  0.00    +0.180 C 
BRANCH  40  41
ATOM     41  C   UNL     1      20.233  14.246  -2.036  0.00  0.00    +0.122 A 
ATOM     42  O   UNL     1      18.905  14.112  -2.329  0.00  0.00    -0.466 OA
ATOM     43  C   UNL     1      18.636  14.982  -3.342  0.00  0.00    +0.195 A 
ATOM     44  C   UNL     1      19.770  15.671  -3.705  0.00  0.00    +0.041 A 
ATOM     45  C   UNL     1      20.802  15.195  -2.864  0.00  0.00    +0.046 A 
ENDBRANCH  40  41
ENDBRANCH  38  40
ENDBRANCH  33  34
ENDBRANCH  32  33
ENDBRANCH  30  32
ENDBRANCH  26  28
ENDBRANCH  25  26
ENDBRANCH  24  25
ENDBRANCH   1  24
TORSDOF 15
