REMARK VINA RESULT:    -5.442      2.371      4.047
REMARK INTER + INTRA:         -11.930
REMARK INTER:                 -10.305
REMARK INTRA:                  -1.625
REMARK UNBOUND:                -2.511
REMARK  Name = lig_assembled_1.pdb
REMARK  13 active torsions:
REMARK  status: ('A' for Active; 'I' for Inactive)
REMARK    1  A    between atoms: _2  and  _8
REMARK    2  A    between atoms: _4  and  _8
REMARK    3  A    between atoms: _4  and  _9
REMARK    4  A    between atoms: _5  and  _6
REMARK    5  A    between atoms: _5  and  _10
REMARK    6  A    between atoms: _10  and  _12
REMARK    7  A    between atoms: _11  and  _16
REMARK    8  A    between atoms: _12  and  _15
REMARK    9  A    between atoms: _20  and  _30
REMARK   10  A    between atoms: _22  and  _23
REMARK   11  A    between atoms: _24  and  _26
REMARK   12  A    between atoms: _26  and  _28
REMARK   13  A    between atoms: _28  and  _30
REMARK                            x       y       z     vdW  Elec       q    Type
REMARK                         _______ _______ _______ _____ _____    ______ ____
ROOT
ATOM      1  C   UNL     1      28.699  13.949   2.200  0.00  0.00    +0.193 C 
ATOM      2  O   UNL     1      27.545  13.266   2.737  0.00  0.00    -0.219 OA
ENDROOT
BRANCH   1   3
ATOM      3  C   UNL     1      29.857  12.941   2.370  0.00  0.00    +0.212 C 
ATOM      4  O   UNL     1      29.496  11.664   1.817  0.00  0.00    -0.218 OA
BRANCH   3   5
ATOM      5  C   UNL     1      31.203  13.417   1.701  0.00  0.00    +0.171 C 
ATOM      6  O   UNL     1      31.208  13.233   0.289  0.00  0.00    -0.343 OA
ATOM      7  C   UNL     1      32.345  13.338  -0.515  0.00  0.00    +0.220 C 
ATOM      8  C   UNL     1      33.511  12.496   0.032  0.00  0.00    +0.076 C 
ATOM      9  C   UNL     1      33.719  12.893   1.502  0.00  0.00    +0.177 C 
ATOM     10  O   UNL     1      34.814  12.170   2.046  0.00  0.00    -0.221 OA
ATOM     11  C   UNL     1      32.413  12.641   2.317  0.00  0.00    +0.155 C 
BRANCH  11  12
ATOM     12  N   UNL     1      32.608  13.010   3.717  0.00  0.00    -0.202 NA
ATOM     13  C   UNL     1      32.551  12.241   4.834  0.00  0.00    +0.242 C 
ATOM     14  C   UNL     1      33.083  12.811   6.123  0.00  0.00    +0.096 C 
ATOM     15  O   UNL     1      32.073  11.110   4.769  0.00  0.00    -0.273 OA
ENDBRANCH  11  12
BRANCH   7  16
ATOM     16  C   UNL     1      32.798  14.873  -0.796  0.00  0.00    +0.391 C 
ATOM     17  O   UNL     1      34.006  14.776  -1.386  0.00  0.00    -0.243 OA
ATOM     18  O   UNL     1      31.701  15.620  -0.622  0.00  0.00    -0.243 OA
ENDBRANCH   7  16
ENDBRANCH   3   5
ENDBRANCH   1   3
BRANCH   1  19
ATOM     19  C   UNL     1      28.332  14.380   0.766  0.00  0.00    +0.152 C 
BRANCH  19  21
ATOM     20  C   UNL     1      28.533  16.791  -0.497  0.00  0.00    +0.400 C 
ATOM     21  N   UNL     1      28.637  15.764   0.412  0.00  0.00    -0.278 N 
ATOM     22  H   UNL     1      29.183  16.203   1.219  0.00  0.00    +0.152 HD
ATOM     23  O   UNL     1      28.878  17.915  -0.142  0.00  0.00    -0.226 OA
BRANCH  20  24
ATOM     24  O   UNL     1      28.101  16.460  -1.669  0.00  0.00    -0.450 OA
BRANCH  24  25
ATOM     25  C   UNL     1      26.993  16.697  -2.506  0.00  0.00    +0.240 C 
BRANCH  25  26
ATOM     26  C   UNL     1      26.451  15.508  -3.322  0.00  0.00    +0.100 C 
BRANCH  26  28
ATOM     27  N   UNL     1      24.100  15.474  -2.542  0.00  0.00    -0.134 NA
ATOM     28  C   UNL     1      25.327  14.868  -2.613  0.00  0.00    +0.086 A 
ATOM     29  C   UNL     1      25.274  13.665  -1.947  0.00  0.00    +0.133 A 
ATOM     30  N   UNL     1      23.992  13.600  -1.488  0.00  0.00    -0.249 N 
ATOM     31  N   UNL     1      23.291  14.689  -1.843  0.00  0.00    -0.065 NA
BRANCH  30  32
ATOM     32  C   UNL     1      23.372  12.542  -0.723  0.00  0.00    +0.173 C 
BRANCH  32  33
ATOM     33  C   UNL     1      21.853  12.653  -0.690  0.00  0.00    +0.179 C 
BRANCH  33  34
ATOM     34  O   UNL     1      21.298  12.520  -1.997  0.00  0.00    -0.393 OA
ATOM     35  H   UNL     1      20.635  13.229  -2.098  0.00  0.00    +0.209 HD
ENDBRANCH  33  34
ENDBRANCH  32  33
ENDBRANCH  30  32
ENDBRANCH  26  28
ENDBRANCH  25  26
ENDBRANCH  24  25
ENDBRANCH  20  24
ENDBRANCH  19  21
ENDBRANCH   1  19
TORSDOF 13
