REMARK VINA RESULT:    -7.621      1.877      3.448
REMARK INTER + INTRA:         -15.221
REMARK INTER:                 -13.540
REMARK INTRA:                  -1.681
REMARK UNBOUND:                -1.585
REMARK  Name = lig_assembled_16.pdb
REMARK  14 active torsions:
REMARK  status: ('A' for Active; 'I' for Inactive)
REMARK    1  A    between atoms: _2  and  _8
REMARK    2  A    between atoms: _5  and  _6
REMARK    3  A    between atoms: _5  and  _17
REMARK    4  A    between atoms: _8  and  _9
REMARK    5  A    between atoms: _12  and  _13
REMARK    6  A    between atoms: _13  and  _15
REMARK    7  A    between atoms: _17  and  _19
REMARK    8  A    between atoms: _18  and  _23
REMARK    9  A    between atoms: _19  and  _22
REMARK   10  A    between atoms: _27  and  _37
REMARK   11  A    between atoms: _29  and  _30
REMARK   12  A    between atoms: _31  and  _33
REMARK   13  A    between atoms: _33  and  _35
REMARK   14  A    between atoms: _35  and  _37
REMARK                            x       y       z     vdW  Elec       q    Type
REMARK                         _______ _______ _______ _____ _____    ______ ____
ROOT
ATOM      1  C   UNL     1      27.514  17.312  -1.655  0.00  0.00    +0.400 C 
ATOM      2  N   UNL     1      27.810  16.085  -1.110  0.00  0.00    -0.278 N 
ATOM      3  H   UNL     1      28.138  16.326  -0.122  0.00  0.00    +0.152 HD
ATOM      4  O   UNL     1      27.506  18.290  -0.911  0.00  0.00    -0.226 OA
ENDROOT
BRANCH   2   5
ATOM      5  C   UNL     1      27.861  14.634  -1.268  0.00  0.00    +0.152 C 
BRANCH   5   6
ATOM      6  C   UNL     1      28.804  13.879  -0.308  0.00  0.00    +0.193 C 
ATOM      7  O   UNL     1      28.657  12.472  -0.602  0.00  0.00    -0.219 OA
BRANCH   6   8
ATOM      8  C   UNL     1      30.320  14.144  -0.440  0.00  0.00    +0.212 C 
ATOM      9  O   UNL     1      30.585  15.556  -0.440  0.00  0.00    -0.218 OA
BRANCH   8  10
ATOM     10  C   UNL     1      31.173  13.471   0.701  0.00  0.00    +0.171 C 
ATOM     11  O   UNL     1      30.724  13.828   2.004  0.00  0.00    -0.343 OA
ATOM     12  C   UNL     1      31.435  13.577   3.180  0.00  0.00    +0.220 C 
ATOM     13  C   UNL     1      32.892  14.062   3.080  0.00  0.00    +0.076 C 
ATOM     14  C   UNL     1      33.500  13.444   1.811  0.00  0.00    +0.177 C 
ATOM     15  O   UNL     1      34.862  13.830   1.692  0.00  0.00    -0.221 OA
ATOM     16  C   UNL     1      32.677  13.873   0.556  0.00  0.00    +0.155 C 
BRANCH  16  17
ATOM     17  N   UNL     1      33.256  13.293  -0.653  0.00  0.00    -0.202 NA
ATOM     18  C   UNL     1      33.734  13.905  -1.766  0.00  0.00    +0.242 C 
ATOM     19  C   UNL     1      34.545  13.089  -2.739  0.00  0.00    +0.096 C 
ATOM     20  O   UNL     1      33.498  15.097  -1.953  0.00  0.00    -0.273 OA
ENDBRANCH  16  17
BRANCH  12  21
ATOM     21  C   UNL     1      31.354  12.029   3.667  0.00  0.00    +0.391 C 
ATOM     22  O   UNL     1      32.294  11.916   4.625  0.00  0.00    -0.243 OA
ATOM     23  O   UNL     1      30.212  11.543   3.165  0.00  0.00    -0.243 OA
ENDBRANCH  12  21
ENDBRANCH   8  10
ENDBRANCH   6   8
ENDBRANCH   5   6
ENDBRANCH   2   5
BRANCH   1  24
ATOM     24  O   UNL     1      27.299  17.322  -2.930  0.00  0.00    -0.450 OA
BRANCH  24  25
ATOM     25  C   UNL     1      26.241  17.113  -3.836  0.00  0.00    +0.240 C 
BRANCH  25  26
ATOM     26  C   UNL     1      26.107  15.711  -4.460  0.00  0.00    +0.100 C 
BRANCH  26  28
ATOM     27  N   UNL     1      24.334  14.013  -4.792  0.00  0.00    -0.134 NA
ATOM     28  C   UNL     1      24.783  15.140  -4.155  0.00  0.00    +0.086 A 
ATOM     29  C   UNL     1      23.833  15.553  -3.248  0.00  0.00    +0.134 A 
ATOM     30  N   UNL     1      22.878  14.584  -3.314  0.00  0.00    -0.247 N 
ATOM     31  N   UNL     1      23.155  13.688  -4.279  0.00  0.00    -0.065 NA
BRANCH  30  32
ATOM     32  C   UNL     1      21.701  14.433  -2.482  0.00  0.00    +0.180 C 
BRANCH  32  33
ATOM     33  C   UNL     1      21.953  13.472  -1.343  0.00  0.00    -0.026 A 
ATOM     34  C   UNL     1      20.902  13.056  -0.513  0.00  0.00    +0.006 A 
ATOM     35  C   UNL     1      21.134  12.138   0.515  0.00  0.00    +0.015 A 
ATOM     36  C   UNL     1      22.418  11.634   0.737  0.00  0.00    +0.059 A 
ATOM     37  C   UNL     1      23.481  12.059  -0.074  0.00  0.00    +0.015 A 
ATOM     38  C   UNL     1      23.247  12.983  -1.098  0.00  0.00    +0.006 A 
BRANCH  36  39
ATOM     39  C   UNL     1      22.593  10.604   1.796  0.00  0.00    +0.337 C 
ATOM     40  O   UNL     1      23.439  10.698   2.668  0.00  0.00    -0.245 OA
BRANCH  39  41
ATOM     41  O   UNL     1      21.762   9.550   1.683  0.00  0.00    -0.477 OA
ATOM     42  H   UNL     1      21.670   9.188   0.783  0.00  0.00    +0.295 HD
ENDBRANCH  39  41
ENDBRANCH  36  39
ENDBRANCH  32  33
ENDBRANCH  30  32
ENDBRANCH  26  28
ENDBRANCH  25  26
ENDBRANCH  24  25
ENDBRANCH   1  24
TORSDOF 14
