REMARK VINA RESULT:    -6.905      1.674      3.473
REMARK INTER + INTRA:         -12.955
REMARK INTER:                 -11.671
REMARK INTRA:                  -1.284
REMARK UNBOUND:                -1.609
REMARK  Name = lig_assembled_87.pdb
REMARK  12 active torsions:
REMARK  status: ('A' for Active; 'I' for Inactive)
REMARK    1  A    between atoms: _2  and  _9
REMARK    2  A    between atoms: _3  and  _12
REMARK    3  A    between atoms: _6  and  _7
REMARK    4  A    between atoms: _6  and  _16
REMARK    5  A    between atoms: _16  and  _18
REMARK    6  A    between atoms: _17  and  _22
REMARK    7  A    between atoms: _18  and  _21
REMARK    8  A    between atoms: _26  and  _36
REMARK    9  A    between atoms: _28  and  _29
REMARK   10  A    between atoms: _30  and  _32
REMARK   11  A    between atoms: _32  and  _34
REMARK   12  A    between atoms: _34  and  _36
REMARK                            x       y       z     vdW  Elec       q    Type
REMARK                         _______ _______ _______ _____ _____    ______ ____
ROOT
ATOM      1  C   UNL     1      28.913  16.580  -0.637  0.00  0.00    +0.400 C 
ATOM      2  N   UNL     1      29.014  15.558   0.278  0.00  0.00    -0.278 N 
ATOM      3  H   UNL     1      29.943  15.757   0.768  0.00  0.00    +0.152 HD
ATOM      4  O   UNL     1      29.721  17.502  -0.568  0.00  0.00    -0.226 OA
ENDROOT
BRANCH   1   5
ATOM      5  O   UNL     1      27.975  16.451  -1.518  0.00  0.00    -0.450 OA
BRANCH   5   6
ATOM      6  C   UNL     1      27.060  17.252  -2.229  0.00  0.00    +0.240 C 
BRANCH   6   7
ATOM      7  C   UNL     1      26.881  16.963  -3.732  0.00  0.00    +0.100 C 
BRANCH   7   9
ATOM      8  N   UNL     1      25.562  15.390  -5.106  0.00  0.00    -0.134 NA
ATOM      9  C   UNL     1      25.711  16.092  -3.944  0.00  0.00    +0.086 A 
ATOM     10  C   UNL     1      24.651  15.813  -3.110  0.00  0.00    +0.134 A 
ATOM     11  N   UNL     1      23.950  14.840  -3.768  0.00  0.00    -0.248 N 
ATOM     12  N   UNL     1      24.447  14.686  -5.013  0.00  0.00    -0.065 NA
BRANCH  11  13
ATOM     13  C   UNL     1      22.806  14.011  -3.340  0.00  0.00    +0.112 C 
ATOM     14  C   UNL     1      22.261  14.335  -1.921  0.00  0.00    +0.045 C 
ATOM     15  C   UNL     1      22.299  13.176  -0.912  0.00  0.00    +0.059 C 
ATOM     16  C   UNL     1      21.151  12.180  -1.137  0.00  0.00    +0.020 C 
ATOM     17  C   UNL     1      21.763  11.073  -1.994  0.00  0.00    +0.020 C 
ATOM     18  C   UNL     1      23.153  11.604  -2.344  0.00  0.00    +0.059 C 
ATOM     19  N   UNL     1      23.452  12.306  -1.099  0.00  0.00    -0.299 NA
ATOM     20  C   UNL     1      24.766  12.896  -0.961  0.00  0.00    +0.105 C 
ATOM     21  C   UNL     1      23.089  12.499  -3.584  0.00  0.00    +0.045 C 
ENDBRANCH  11  13
ENDBRANCH   7   9
ENDBRANCH   6   7
ENDBRANCH   5   6
ENDBRANCH   1   5
BRANCH   2  22
ATOM     22  C   UNL     1      28.430  14.360   0.875  0.00  0.00    +0.152 C 
BRANCH  22  23
ATOM     23  C   UNL     1      29.155  13.796   2.114  0.00  0.00    +0.193 C 
ATOM     24  O   UNL     1      28.135  13.250   2.980  0.00  0.00    -0.219 OA
BRANCH  23  25
ATOM     25  C   UNL     1      30.141  12.627   1.896  0.00  0.00    +0.212 C 
ATOM     26  O   UNL     1      29.488  11.540   1.219  0.00  0.00    -0.218 OA
BRANCH  25  27
ATOM     27  C   UNL     1      31.422  13.036   1.073  0.00  0.00    +0.171 C 
ATOM     28  O   UNL     1      31.188  13.054  -0.331  0.00  0.00    -0.343 OA
ATOM     29  C   UNL     1      32.194  13.142  -1.296  0.00  0.00    +0.220 C 
ATOM     30  C   UNL     1      33.304  12.103  -1.059  0.00  0.00    +0.076 C 
ATOM     31  C   UNL     1      33.784  12.262   0.393  0.00  0.00    +0.177 C 
ATOM     32  O   UNL     1      34.841  11.349   0.653  0.00  0.00    -0.221 OA
ATOM     33  C   UNL     1      32.594  12.048   1.379  0.00  0.00    +0.155 C 
BRANCH  33  34
ATOM     34  N   UNL     1      33.048  12.191   2.760  0.00  0.00    -0.202 NA
ATOM     35  C   UNL     1      33.509  13.288   3.413  0.00  0.00    +0.242 C 
ATOM     36  C   UNL     1      33.630  13.229   4.913  0.00  0.00    +0.096 C 
ATOM     37  O   UNL     1      33.812  14.293   2.773  0.00  0.00    -0.273 OA
ENDBRANCH  33  34
BRANCH  29  38
ATOM     38  C   UNL     1      32.803  14.639  -1.461  0.00  0.00    +0.391 C 
ATOM     39  O   UNL     1      33.527  14.597  -2.597  0.00  0.00    -0.243 OA
ATOM     40  O   UNL     1      32.129  15.410  -0.599  0.00  0.00    -0.243 OA
ENDBRANCH  29  38
ENDBRANCH  25  27
ENDBRANCH  23  25
ENDBRANCH  22  23
ENDBRANCH   2  22
TORSDOF 11
