REMARK VINA RESULT:    -7.774      1.608      3.146
REMARK INTER + INTRA:         -16.176
REMARK INTER:                 -14.003
REMARK INTRA:                  -2.174
REMARK UNBOUND:                -2.494
REMARK  Name = lig_assembled_79.pdb
REMARK  15 active torsions:
REMARK  status: ('A' for Active; 'I' for Inactive)
REMARK    1  A    between atoms: _2  and  _9
REMARK    2  A    between atoms: _6  and  _7
REMARK    3  A    between atoms: _6  and  _21
REMARK    4  A    between atoms: _9  and  _10
REMARK    5  A    between atoms: _9  and  _11
REMARK    6  A    between atoms: _9  and  _12
REMARK    7  A    between atoms: _12  and  _13
REMARK    8  A    between atoms: _21  and  _23
REMARK    9  A    between atoms: _22  and  _27
REMARK   10  A    between atoms: _23  and  _26
REMARK   11  A    between atoms: _31  and  _41
REMARK   12  A    between atoms: _33  and  _34
REMARK   13  A    between atoms: _35  and  _37
REMARK   14  A    between atoms: _37  and  _39
REMARK   15  A    between atoms: _39  and  _41
REMARK                            x       y       z     vdW  Elec       q    Type
REMARK                         _______ _______ _______ _____ _____    ______ ____
ROOT
ATOM      1  O   UNL     1      27.726  17.060  -1.927  0.00  0.00    -0.450 OA
ENDROOT
BRANCH   1   2
ATOM      2  C   UNL     1      27.926  17.228  -0.662  0.00  0.00    +0.400 C 
ATOM      3  N   UNL     1      28.394  16.128   0.019  0.00  0.00    -0.278 N 
ATOM      4  H   UNL     1      28.672  16.526   0.971  0.00  0.00    +0.152 HD
ATOM      5  O   UNL     1      27.766  18.272  -0.034  0.00  0.00    -0.226 OA
BRANCH   3   6
ATOM      6  C   UNL     1      28.660  14.692   0.029  0.00  0.00    +0.152 C 
BRANCH   6   7
ATOM      7  C   UNL     1      29.737  14.208   1.022  0.00  0.00    +0.193 C 
ATOM      8  O   UNL     1      29.956  12.807   0.746  0.00  0.00    -0.219 OA
BRANCH   7   9
ATOM      9  C   UNL     1      31.141  14.845   0.922  0.00  0.00    +0.212 C 
ATOM     10  O   UNL     1      31.126  16.178   1.456  0.00  0.00    -0.218 OA
BRANCH   9  11
ATOM     11  C   UNL     1      32.257  14.016   1.664  0.00  0.00    +0.171 C 
ATOM     12  O   UNL     1      32.650  14.609   2.898  0.00  0.00    -0.343 OA
ATOM     13  C   UNL     1      33.774  14.227   3.633  0.00  0.00    +0.220 C 
ATOM     14  C   UNL     1      35.039  14.178   2.758  0.00  0.00    +0.076 C 
ATOM     15  C   UNL     1      34.727  13.289   1.543  0.00  0.00    +0.177 C 
ATOM     16  O   UNL     1      35.879  13.177   0.719  0.00  0.00    -0.221 OA
ATOM     17  C   UNL     1      33.516  13.870   0.749  0.00  0.00    +0.155 C 
BRANCH  17  18
ATOM     18  N   UNL     1      33.221  13.031  -0.410  0.00  0.00    -0.202 NA
ATOM     19  C   UNL     1      33.137  13.364  -1.724  0.00  0.00    +0.242 C 
ATOM     20  C   UNL     1      33.111  12.255  -2.743  0.00  0.00    +0.096 C 
ATOM     21  O   UNL     1      33.088  14.549  -2.048  0.00  0.00    -0.273 OA
ENDBRANCH  17  18
BRANCH  13  22
ATOM     22  C   UNL     1      33.567  12.844   4.460  0.00  0.00    +0.391 C 
ATOM     23  O   UNL     1      34.802  12.494   4.868  0.00  0.00    -0.243 OA
ATOM     24  O   UNL     1      32.250  12.738   4.679  0.00  0.00    -0.243 OA
ENDBRANCH  13  22
ENDBRANCH   9  11
ENDBRANCH   7   9
ENDBRANCH   6   7
ENDBRANCH   3   6
ENDBRANCH   1   2
BRANCH   1  25
ATOM     25  C   UNL     1      26.783  17.405  -2.915  0.00  0.00    +0.240 C 
BRANCH  25  26
ATOM     26  C   UNL     1      26.792  16.591  -4.223  0.00  0.00    +0.100 C 
BRANCH  26  28
ATOM     27  N   UNL     1      25.283  15.075  -5.450  0.00  0.00    -0.134 NA
ATOM     28  C   UNL     1      25.590  15.741  -4.299  0.00  0.00    +0.086 A 
ATOM     29  C   UNL     1      24.630  15.473  -3.351  0.00  0.00    +0.134 A 
ATOM     30  N   UNL     1      23.803  14.561  -3.946  0.00  0.00    -0.238 N 
ATOM     31  N   UNL     1      24.166  14.394  -5.242  0.00  0.00    -0.065 NA
BRANCH  30  32
ATOM     32  C   UNL     1      22.536  13.935  -3.470  0.00  0.00    +0.122 C 
ATOM     33  C   UNL     1      21.540  14.004  -4.653  0.00  0.00    +0.044 C 
ATOM     34  C   UNL     1      22.125  14.756  -2.233  0.00  0.00    +0.044 C 
BRANCH  32  35
ATOM     35  C   UNL     1      22.690  12.448  -3.086  0.00  0.00    +0.192 C 
ATOM     36  O   UNL     1      22.281  11.564  -3.844  0.00  0.00    -0.289 OA
BRANCH  35  37
ATOM     37  C   UNL     1      23.308  12.010  -1.801  0.00  0.00    +0.045 A 
ATOM     38  C   UNL     1      24.654  11.660  -1.765  0.00  0.00    +0.095 A 
ATOM     39  N   UNL     1      24.992  11.269  -0.505  0.00  0.00    -0.360 N 
ATOM     40  H   UNL     1      25.909  10.956  -0.217  0.00  0.00    +0.165 HD
ATOM     41  C   UNL     1      23.901  11.349   0.320  0.00  0.00    +0.047 A 
ATOM     42  C   UNL     1      23.804  11.032   1.683  0.00  0.00    +0.026 A 
ATOM     43  C   UNL     1      22.570  11.191   2.312  0.00  0.00    +0.002 A 
ATOM     44  C   UNL     1      21.474  11.654   1.601  0.00  0.00    +0.001 A 
ATOM     45  C   UNL     1      21.591  11.966   0.242  0.00  0.00    +0.011 A 
ATOM     46  C   UNL     1      22.823  11.816  -0.445  0.00  0.00    +0.010 A 
ENDBRANCH  35  37
ENDBRANCH  32  35
ENDBRANCH  30  32
ENDBRANCH  26  28
ENDBRANCH  25  26
ENDBRANCH   1  25
TORSDOF 13
