REMARK VINA RESULT:    -7.448      1.305      2.866
REMARK INTER + INTRA:         -15.301
REMARK INTER:                 -12.952
REMARK INTRA:                  -2.349
REMARK UNBOUND:                -1.975
REMARK  Name = lig_assembled_77.pdb
REMARK  14 active torsions:
REMARK  status: ('A' for Active; 'I' for Inactive)
REMARK    1  A    between atoms: _2  and  _9
REMARK    2  A    between atoms: _3  and  _16
REMARK    3  A    between atoms: _6  and  _7
REMARK    4  A    between atoms: _6  and  _22
REMARK    5  A    between atoms: _12  and  _50
REMARK    6  A    between atoms: _13  and  _50
REMARK    7  A    between atoms: _22  and  _24
REMARK    8  A    between atoms: _23  and  _28
REMARK    9  A    between atoms: _24  and  _27
REMARK   10  A    between atoms: _32  and  _42
REMARK   11  A    between atoms: _34  and  _35
REMARK   12  A    between atoms: _36  and  _38
REMARK   13  A    between atoms: _38  and  _40
REMARK   14  A    between atoms: _40  and  _42
REMARK                            x       y       z     vdW  Elec       q    Type
REMARK                         _______ _______ _______ _____ _____    ______ ____
ROOT
ATOM      1  C   UNL     1      26.049  15.733  -4.520  0.00  0.00    +0.240 C 
ENDROOT
BRANCH   1   2
ATOM      2  C   UNL     1      26.087  17.005  -3.651  0.00  0.00    +0.100 C 
BRANCH   2   4
ATOM      3  N   UNL     1      27.579  17.909  -1.899  0.00  0.00    -0.134 NA
ATOM      4  C   UNL     1      27.024  16.832  -2.524  0.00  0.00    +0.086 A 
ATOM      5  C   UNL     1      27.485  15.680  -1.930  0.00  0.00    +0.139 A 
ATOM      6  N   UNL     1      28.322  16.108  -0.924  0.00  0.00    -0.220 N 
ATOM      7  N   UNL     1      28.372  17.463  -0.934  0.00  0.00    -0.061 NA
BRANCH   6   8
ATOM      8  C   UNL     1      29.008  15.340   0.053  0.00  0.00    +0.067 A 
ATOM      9  C   UNL     1      30.388  15.497   0.257  0.00  0.00    +0.030 A 
ATOM     10  C   UNL     1      31.067  14.649   1.136  0.00  0.00    +0.029 A 
ATOM     11  C   UNL     1      30.367  13.648   1.812  0.00  0.00    +0.094 A 
ATOM     12  C   UNL     1      28.979  13.542   1.688  0.00  0.00    +0.029 A 
ATOM     13  C   UNL     1      28.302  14.380   0.798  0.00  0.00    +0.030 A 
BRANCH  11  14
ATOM     14  S   UNL     1      31.246  12.523   2.879  0.00  0.00    +0.025 S 
ATOM     15  O   UNL     1      30.798  12.813   4.230  0.00  0.00    -0.164 OA
ATOM     16  O   UNL     1      31.100  11.193   2.320  0.00  0.00    -0.164 OA
BRANCH  14  17
ATOM     17  C   UNL     1      32.984  12.907   2.813  0.00  0.00    +0.094 A 
ATOM     18  C   UNL     1      33.803  12.367   1.820  0.00  0.00    +0.029 A 
ATOM     19  C   UNL     1      35.175  12.641   1.834  0.00  0.00    +0.024 A 
ATOM     20  C   UNL     1      35.734  13.485   2.803  0.00  0.00    +0.025 A 
ATOM     21  C   UNL     1      34.904  13.991   3.808  0.00  0.00    +0.024 A 
ATOM     22  C   UNL     1      33.531  13.725   3.806  0.00  0.00    +0.029 A 
BRANCH  20  23
ATOM     23  N   UNL     1      37.122  13.612   2.910  0.00  0.00    -0.358 N 
ATOM     24  H   UNL     1      37.513  13.287   3.788  0.00  0.00    +0.142 HD
ATOM     25  H   UNL     1      37.637  13.270   2.105  0.00  0.00    +0.142 HD
ENDBRANCH  20  23
ENDBRANCH  14  17
ENDBRANCH  11  14
ENDBRANCH   6   8
ENDBRANCH   2   4
ENDBRANCH   1   2
BRANCH   1  26
ATOM     26  O   UNL     1      24.812  15.073  -4.651  0.00  0.00    -0.450 OA
BRANCH  26  27
ATOM     27  C   UNL     1      23.780  14.772  -3.933  0.00  0.00    +0.400 C 
ATOM     28  N   UNL     1      23.787  13.514  -3.379  0.00  0.00    -0.278 N 
ATOM     29  H   UNL     1      22.972  13.544  -2.687  0.00  0.00    +0.152 HD
ATOM     30  O   UNL     1      22.829  15.509  -3.685  0.00  0.00    -0.226 OA
BRANCH  28  31
ATOM     31  C   UNL     1      24.384  12.182  -3.322  0.00  0.00    +0.152 C 
BRANCH  31  32
ATOM     32  C   UNL     1      23.425  10.997  -3.556  0.00  0.00    +0.193 C 
ATOM     33  O   UNL     1      24.166  10.004  -4.300  0.00  0.00    -0.219 OA
BRANCH  32  34
ATOM     34  C   UNL     1      22.908  10.240  -2.312  0.00  0.00    +0.212 C 
ATOM     35  O   UNL     1      23.385   8.885  -2.315  0.00  0.00    -0.218 OA
BRANCH  34  36
ATOM     36  C   UNL     1      23.323  10.918  -0.951  0.00  0.00    +0.171 C 
ATOM     37  O   UNL     1      24.379  10.226  -0.294  0.00  0.00    -0.343 OA
ATOM     38  C   UNL     1      24.774  10.460   1.025  0.00  0.00    +0.220 C 
ATOM     39  C   UNL     1      23.578  10.434   1.992  0.00  0.00    +0.076 C 
ATOM     40  C   UNL     1      22.523  11.413   1.449  0.00  0.00    +0.177 C 
ATOM     41  O   UNL     1      21.409  11.457   2.329  0.00  0.00    -0.221 OA
ATOM     42  C   UNL     1      22.091  10.993   0.010  0.00  0.00    +0.155 C 
BRANCH  42  43
ATOM     43  N   UNL     1      21.084  11.915  -0.507  0.00  0.00    -0.202 NA
ATOM     44  C   UNL     1      21.231  13.167  -1.011  0.00  0.00    +0.242 C 
ATOM     45  C   UNL     1      20.069  13.783  -1.746  0.00  0.00    +0.096 C 
ATOM     46  O   UNL     1      22.296  13.762  -0.860  0.00  0.00    -0.273 OA
ENDBRANCH  42  43
BRANCH  38  47
ATOM     47  C   UNL     1      25.659  11.811   1.205  0.00  0.00    +0.391 C 
ATOM     48  O   UNL     1      25.601  12.426   0.009  0.00  0.00    -0.243 OA
ATOM     49  O   UNL     1      25.852  11.953   2.522  0.00  0.00    -0.243 OA
ENDBRANCH  38  47
ENDBRANCH  34  36
ENDBRANCH  32  34
ENDBRANCH  31  32
ENDBRANCH  28  31
ENDBRANCH  26  27
ENDBRANCH   1  26
TORSDOF 14
