REMARK VINA RESULT:    -6.920      1.601      2.606
REMARK INTER + INTRA:         -13.727
REMARK INTER:                 -12.406
REMARK INTRA:                  -1.321
REMARK UNBOUND:                -1.952
REMARK  Name = lig_assembled_44.pdb
REMARK  12 active torsions:
REMARK  status: ('A' for Active; 'I' for Inactive)
REMARK    1  A    between atoms: _2  and  _8
REMARK    2  A    between atoms: _5  and  _6
REMARK    3  A    between atoms: _5  and  _14
REMARK    4  A    between atoms: _8  and  _9
REMARK    5  A    between atoms: _14  and  _16
REMARK    6  A    between atoms: _15  and  _20
REMARK    7  A    between atoms: _16  and  _19
REMARK    8  A    between atoms: _24  and  _34
REMARK    9  A    between atoms: _26  and  _27
REMARK   10  A    between atoms: _28  and  _30
REMARK   11  A    between atoms: _30  and  _32
REMARK   12  A    between atoms: _32  and  _34
REMARK                            x       y       z     vdW  Elec       q    Type
REMARK                         _______ _______ _______ _____ _____    ______ ____
ROOT
ATOM      1  C   UNL     1      28.358  16.984  -0.559  0.00  0.00    +0.400 C 
ATOM      2  N   UNL     1      28.823  15.975   0.252  0.00  0.00    -0.278 N 
ATOM      3  H   UNL     1      29.197  16.496   1.106  0.00  0.00    +0.152 HD
ATOM      4  O   UNL     1      28.303  18.120  -0.095  0.00  0.00    -0.226 OA
ENDROOT
BRANCH   2   5
ATOM      5  C   UNL     1      29.016  14.543   0.470  0.00  0.00    +0.152 C 
BRANCH   5   6
ATOM      6  C   UNL     1      30.439  14.004   0.221  0.00  0.00    +0.193 C 
ATOM      7  O   UNL     1      30.980  14.755  -0.889  0.00  0.00    -0.219 OA
BRANCH   6   8
ATOM      8  C   UNL     1      31.479  14.181   1.349  0.00  0.00    +0.212 C 
ATOM      9  O   UNL     1      31.246  15.410   2.057  0.00  0.00    -0.218 OA
BRANCH   8  10
ATOM     10  C   UNL     1      31.483  12.995   2.387  0.00  0.00    +0.171 C 
ATOM     11  O   UNL     1      30.360  13.028   3.261  0.00  0.00    -0.343 OA
ATOM     12  C   UNL     1      30.237  12.252   4.417  0.00  0.00    +0.220 C 
ATOM     13  C   UNL     1      31.483  12.364   5.313  0.00  0.00    +0.076 C 
ATOM     14  C   UNL     1      32.709  12.042   4.444  0.00  0.00    +0.177 C 
ATOM     15  O   UNL     1      33.887  12.092   5.236  0.00  0.00    -0.221 OA
ATOM     16  C   UNL     1      32.792  13.033   3.242  0.00  0.00    +0.155 C 
BRANCH  16  17
ATOM     17  N   UNL     1      33.960  12.734   2.417  0.00  0.00    -0.202 NA
ATOM     18  C   UNL     1      35.213  13.254   2.467  0.00  0.00    +0.242 C 
ATOM     19  C   UNL     1      36.306  12.559   1.698  0.00  0.00    +0.096 C 
ATOM     20  O   UNL     1      35.425  14.266   3.132  0.00  0.00    -0.273 OA
ENDBRANCH  16  17
BRANCH  12  21
ATOM     21  C   UNL     1      29.855  10.702   4.118  0.00  0.00    +0.391 C 
ATOM     22  O   UNL     1      30.089  10.057   5.277  0.00  0.00    -0.243 OA
ATOM     23  O   UNL     1      29.181  10.704   2.961  0.00  0.00    -0.243 OA
ENDBRANCH  12  21
ENDBRANCH   8  10
ENDBRANCH   6   8
ENDBRANCH   5   6
ENDBRANCH   2   5
BRANCH   1  24
ATOM     24  O   UNL     1      28.048  16.636  -1.764  0.00  0.00    -0.450 OA
BRANCH  24  25
ATOM     25  C   UNL     1      27.073  15.876  -2.439  0.00  0.00    +0.240 C 
BRANCH  25  26
ATOM     26  C   UNL     1      26.173  16.611  -3.451  0.00  0.00    +0.100 C 
BRANCH  26  28
ATOM     27  N   UNL     1      24.944  15.004  -4.883  0.00  0.00    -0.134 NA
ATOM     28  C   UNL     1      24.983  15.799  -3.767  0.00  0.00    +0.086 A 
ATOM     29  C   UNL     1      23.801  15.665  -3.077  0.00  0.00    +0.134 A 
ATOM     30  N   UNL     1      23.117  14.718  -3.780  0.00  0.00    -0.247 N 
ATOM     31  N   UNL     1      23.789  14.353  -4.887  0.00  0.00    -0.065 NA
BRANCH  30  32
ATOM     32  C   UNL     1      21.834  14.118  -3.465  0.00  0.00    +0.180 C 
BRANCH  32  33
ATOM     33  C   UNL     1      21.871  13.404  -2.134  0.00  0.00    -0.026 A 
ATOM     34  C   UNL     1      22.972  12.610  -1.778  0.00  0.00    +0.006 A 
ATOM     35  C   UNL     1      22.996  11.939  -0.553  0.00  0.00    +0.015 A 
ATOM     36  C   UNL     1      21.920  12.060   0.323  0.00  0.00    +0.018 A 
ATOM     37 BR   UNL     1      21.962  11.166   1.988  0.00  0.00    -0.050 Br
ATOM     38  C   UNL     1      20.813  12.834  -0.019  0.00  0.00    +0.015 A 
ATOM     39  C   UNL     1      20.787  13.500  -1.248  0.00  0.00    +0.006 A 
ENDBRANCH  32  33
ENDBRANCH  30  32
ENDBRANCH  26  28
ENDBRANCH  25  26
ENDBRANCH  24  25
ENDBRANCH   1  24
TORSDOF 12
