REMARK VINA RESULT:    -7.471      1.383      3.662
REMARK INTER + INTRA:         -14.139
REMARK INTER:                 -12.773
REMARK INTRA:                  -1.366
REMARK UNBOUND:                -1.427
REMARK  Name = lig_assembled_6.pdb
REMARK  12 active torsions:
REMARK  status: ('A' for Active; 'I' for Inactive)
REMARK    1  A    between atoms: _2  and  _9
REMARK    2  A    between atoms: _3  and  _12
REMARK    3  A    between atoms: _6  and  _7
REMARK    4  A    between atoms: _6  and  _16
REMARK    5  A    between atoms: _16  and  _18
REMARK    6  A    between atoms: _17  and  _22
REMARK    7  A    between atoms: _18  and  _21
REMARK    8  A    between atoms: _26  and  _36
REMARK    9  A    between atoms: _28  and  _29
REMARK   10  A    between atoms: _30  and  _32
REMARK   11  A    between atoms: _32  and  _34
REMARK   12  A    between atoms: _34  and  _36
REMARK                            x       y       z     vdW  Elec       q    Type
REMARK                         _______ _______ _______ _____ _____    ______ ____
ROOT
ATOM      1  C   UNL     1      27.874  17.396  -0.825  0.00  0.00    +0.400 C 
ATOM      2  N   UNL     1      28.555  16.526  -0.006  0.00  0.00    -0.278 N 
ATOM      3  H   UNL     1      28.721  17.100   0.880  0.00  0.00    +0.152 HD
ATOM      4  O   UNL     1      27.479  18.455  -0.345  0.00  0.00    -0.226 OA
ENDROOT
BRANCH   2   5
ATOM      5  C   UNL     1      29.126  15.197   0.197  0.00  0.00    +0.152 C 
BRANCH   5   6
ATOM      6  C   UNL     1      30.479  14.926  -0.492  0.00  0.00    +0.193 C 
ATOM      7  O   UNL     1      31.205  16.176  -0.486  0.00  0.00    -0.219 OA
BRANCH   6   8
ATOM      8  C   UNL     1      31.437  13.922   0.185  0.00  0.00    +0.212 C 
ATOM      9  O   UNL     1      30.759  12.683   0.452  0.00  0.00    -0.218 OA
BRANCH   8  10
ATOM     10  C   UNL     1      32.727  13.616  -0.669  0.00  0.00    +0.171 C 
ATOM     11  O   UNL     1      32.432  12.919  -1.875  0.00  0.00    -0.343 OA
ATOM     12  C   UNL     1      33.392  12.315  -2.691  0.00  0.00    +0.220 C 
ATOM     13  C   UNL     1      34.330  11.400  -1.886  0.00  0.00    +0.076 C 
ATOM     14  C   UNL     1      34.899  12.229  -0.722  0.00  0.00    +0.177 C 
ATOM     15  O   UNL     1      35.806  11.439   0.033  0.00  0.00    -0.221 OA
ATOM     16  C   UNL     1      33.738  12.769   0.170  0.00  0.00    +0.155 C 
BRANCH  16  17
ATOM     17  N   UNL     1      34.275  13.551   1.281  0.00  0.00    -0.202 NA
ATOM     18  C   UNL     1      34.046  13.436   2.614  0.00  0.00    +0.242 C 
ATOM     19  C   UNL     1      34.953  14.176   3.562  0.00  0.00    +0.096 C 
ATOM     20  O   UNL     1      33.117  12.737   3.013  0.00  0.00    -0.273 OA
ENDBRANCH  16  17
BRANCH  12  21
ATOM     21  C   UNL     1      34.225  13.372  -3.602  0.00  0.00    +0.391 C 
ATOM     22  O   UNL     1      35.374  12.738  -3.905  0.00  0.00    -0.243 OA
ATOM     23  O   UNL     1      33.353  14.326  -3.952  0.00  0.00    -0.243 OA
ENDBRANCH  12  21
ENDBRANCH   8  10
ENDBRANCH   6   8
ENDBRANCH   5   6
ENDBRANCH   2   5
BRANCH   1  24
ATOM     24  O   UNL     1      27.741  17.019  -2.055  0.00  0.00    -0.450 OA
BRANCH  24  25
ATOM     25  C   UNL     1      26.906  17.263  -3.162  0.00  0.00    +0.240 C 
BRANCH  25  26
ATOM     26  C   UNL     1      26.350  16.041  -3.917  0.00  0.00    +0.100 C 
BRANCH  26  28
ATOM     27  N   UNL     1      23.996  15.858  -3.174  0.00  0.00    -0.134 NA
ATOM     28  C   UNL     1      25.281  15.397  -3.133  0.00  0.00    +0.086 A 
ATOM     29  C   UNL     1      25.340  14.307  -2.295  0.00  0.00    +0.139 A 
ATOM     30  N   UNL     1      24.046  14.117  -1.867  0.00  0.00    -0.220 N 
ATOM     31  N   UNL     1      23.254  15.080  -2.396  0.00  0.00    -0.061 NA
BRANCH  30  32
ATOM     32  C   UNL     1      23.527  13.085  -1.042  0.00  0.00    +0.067 A 
ATOM     33  C   UNL     1      22.142  12.874  -0.945  0.00  0.00    +0.034 A 
ATOM     34  C   UNL     1      21.639  11.895  -0.082  0.00  0.00    +0.086 A 
ATOM     35  C   UNL     1      22.521  11.122   0.683  0.00  0.00    +0.273 A 
ATOM     36  C   UNL     1      23.904  11.305   0.574  0.00  0.00    +0.086 A 
ATOM     37  C   UNL     1      24.404  12.285  -0.290  0.00  0.00    +0.034 A 
BRANCH  35  38
ATOM     38  N   UNL     1      21.986  10.125   1.619  0.00  0.00    +0.080 N 
ATOM     39  O   UNL     1      21.763   8.986   1.182  0.00  0.00    +0.041 OA
ATOM     40  O   UNL     1      21.781  10.480   2.787  0.00  0.00    -0.576 OA
ENDBRANCH  35  38
ENDBRANCH  30  32
ENDBRANCH  26  28
ENDBRANCH  25  26
ENDBRANCH  24  25
ENDBRANCH   1  24
TORSDOF 12
