REMARK VINA RESULT:    -6.658     19.689     23.222
REMARK INTER + INTRA:         -13.107
REMARK INTER:                 -11.237
REMARK INTRA:                  -1.869
REMARK UNBOUND:                -2.168
REMARK  Name = lig_assembled_86.pdb
REMARK  12 active torsions:
REMARK  status: ('A' for Active; 'I' for Inactive)
REMARK    1  A    between atoms: _2  and  _9
REMARK    2  A    between atoms: _3  and  _12
REMARK    3  A    between atoms: _6  and  _7
REMARK    4  A    between atoms: _6  and  _16
REMARK    5  A    between atoms: _16  and  _18
REMARK    6  A    between atoms: _17  and  _22
REMARK    7  A    between atoms: _18  and  _21
REMARK    8  A    between atoms: _26  and  _36
REMARK    9  A    between atoms: _28  and  _29
REMARK   10  A    between atoms: _30  and  _32
REMARK   11  A    between atoms: _32  and  _34
REMARK   12  A    between atoms: _34  and  _36
REMARK                            x       y       z     vdW  Elec       q    Type
REMARK                         _______ _______ _______ _____ _____    ______ ____
ROOT
ATOM      1  C   UNL     1      46.991  21.763   7.303  0.00  0.00    +0.400 C 
ATOM      2  N   UNL     1      47.909  22.210   8.224  0.00  0.00    -0.278 N 
ATOM      3  H   UNL     1      47.507  21.877   9.156  0.00  0.00    +0.152 HD
ATOM      4  O   UNL     1      46.111  20.997   7.687  0.00  0.00    -0.226 OA
ENDROOT
BRANCH   1   5
ATOM      5  O   UNL     1      47.130  22.226   6.104  0.00  0.00    -0.450 OA
BRANCH   5   6
ATOM      6  C   UNL     1      46.843  21.855   4.776  0.00  0.00    +0.240 C 
BRANCH   6   7
ATOM      7  C   UNL     1      45.486  22.295   4.192  0.00  0.00    +0.100 C 
BRANCH   7   9
ATOM      8  N   UNL     1      44.050  21.675   2.268  0.00  0.00    -0.134 NA
ATOM      9  C   UNL     1      45.286  21.694   2.860  0.00  0.00    +0.086 A 
ATOM     10  C   UNL     1      46.195  21.103   2.015  0.00  0.00    +0.134 A 
ATOM     11  N   UNL     1      45.462  20.780   0.914  0.00  0.00    -0.248 N 
ATOM     12  N   UNL     1      44.166  21.096   1.080  0.00  0.00    -0.065 NA
BRANCH  11  13
ATOM     13  C   UNL     1      45.942  20.179  -0.321  0.00  0.00    +0.112 C 
ATOM     14  C   UNL     1      44.941  20.368  -1.480  0.00  0.00    +0.045 C 
ATOM     15  C   UNL     1      45.568  20.833  -2.797  0.00  0.00    +0.059 C 
ATOM     16  C   UNL     1      45.909  22.326  -2.750  0.00  0.00    +0.020 C 
ATOM     17  C   UNL     1      47.370  22.373  -2.308  0.00  0.00    +0.020 C 
ATOM     18  C   UNL     1      47.740  20.911  -2.052  0.00  0.00    +0.059 C 
ATOM     19  N   UNL     1      46.886  20.244  -3.035  0.00  0.00    -0.299 NA
ATOM     20  C   UNL     1      46.957  18.796  -3.076  0.00  0.00    +0.105 C 
ATOM     21  C   UNL     1      47.428  20.500  -0.607  0.00  0.00    +0.045 C 
ENDBRANCH  11  13
ENDBRANCH   7   9
ENDBRANCH   6   7
ENDBRANCH   5   6
ENDBRANCH   1   5
BRANCH   2  22
ATOM     22  C   UNL     1      49.165  22.907   8.492  0.00  0.00    +0.152 C 
BRANCH  22  23
ATOM     23  C   UNL     1      49.238  24.377   8.031  0.00  0.00    +0.193 C 
ATOM     24  O   UNL     1      49.278  24.358   6.587  0.00  0.00    -0.219 OA
BRANCH  23  25
ATOM     25  C   UNL     1      48.042  25.294   8.371  0.00  0.00    +0.212 C 
ATOM     26  O   UNL     1      47.026  25.189   7.360  0.00  0.00    -0.218 OA
BRANCH  25  27
ATOM     27  C   UNL     1      47.392  24.978   9.772  0.00  0.00    +0.171 C 
ATOM     28  O   UNL     1      46.227  24.168   9.666  0.00  0.00    -0.343 OA
ATOM     29  C   UNL     1      45.326  23.942  10.709  0.00  0.00    +0.220 C 
ATOM     30  C   UNL     1      44.875  25.257  11.369  0.00  0.00    +0.076 C 
ATOM     31  C   UNL     1      46.141  26.034  11.764  0.00  0.00    +0.177 C 
ATOM     32  O   UNL     1      45.780  27.244  12.415  0.00  0.00    -0.221 OA
ATOM     33  C   UNL     1      47.018  26.310  10.502  0.00  0.00    +0.155 C 
BRANCH  33  34
ATOM     34  N   UNL     1      48.219  27.055  10.872  0.00  0.00    -0.202 NA
ATOM     35  C   UNL     1      48.519  28.365  10.687  0.00  0.00    +0.242 C 
ATOM     36  C   UNL     1      49.699  28.941  11.426  0.00  0.00    +0.096 C 
ATOM     37  O   UNL     1      47.828  29.045   9.930  0.00  0.00    -0.273 OA
ENDBRANCH  33  34
BRANCH  29  38
ATOM     38  C   UNL     1      45.866  22.876  11.811  0.00  0.00    +0.391 C 
ATOM     39  O   UNL     1      45.013  22.986  12.848  0.00  0.00    -0.243 OA
ATOM     40  O   UNL     1      46.746  22.096  11.170  0.00  0.00    -0.243 OA
ENDBRANCH  29  38
ENDBRANCH  25  27
ENDBRANCH  23  25
ENDBRANCH  22  23
ENDBRANCH   2  22
TORSDOF 11
