REMARK VINA RESULT:    -5.972      3.377      9.052
REMARK INTER + INTRA:         -13.176
REMARK INTER:                 -11.323
REMARK INTRA:                  -1.852
REMARK UNBOUND:                -1.966
REMARK  Name = lig_assembled_17.pdb
REMARK  17 active torsions:
REMARK  status: ('A' for Active; 'I' for Inactive)
REMARK    1  A    between atoms: _2  and  _9
REMARK    2  A    between atoms: _3  and  _10
REMARK    3  A    between atoms: _3  and  _11
REMARK    4  A    between atoms: _3  and  _13
REMARK    5  A    between atoms: _5  and  _13
REMARK    6  A    between atoms: _6  and  _7
REMARK    7  A    between atoms: _6  and  _14
REMARK    8  A    between atoms: _9  and  _10
REMARK    9  A    between atoms: _11  and  _12
REMARK   10  A    between atoms: _14  and  _16
REMARK   11  A    between atoms: _15  and  _20
REMARK   12  A    between atoms: _16  and  _19
REMARK   13  A    between atoms: _24  and  _34
REMARK   14  A    between atoms: _26  and  _27
REMARK   15  A    between atoms: _28  and  _30
REMARK   16  A    between atoms: _30  and  _32
REMARK   17  A    between atoms: _32  and  _34
REMARK                            x       y       z     vdW  Elec       q    Type
REMARK                         _______ _______ _______ _____ _____    ______ ____
ROOT
ATOM      1  C   UNL     1      27.895  17.743  -1.144  0.00  0.00    +0.400 C 
ATOM      2  N   UNL     1      27.171  17.619  -2.307  0.00  0.00    -0.278 N 
ATOM      3  H   UNL     1      26.255  18.122  -2.083  0.00  0.00    +0.152 HD
ATOM      4  O   UNL     1      27.460  18.487  -0.268  0.00  0.00    -0.226 OA
ENDROOT
BRANCH   2   5
ATOM      5  C   UNL     1      27.101  17.133  -3.682  0.00  0.00    +0.152 C 
BRANCH   5   6
ATOM      6  C   UNL     1      25.920  16.196  -4.012  0.00  0.00    +0.193 C 
ATOM      7  O   UNL     1      26.037  15.858  -5.412  0.00  0.00    -0.219 OA
BRANCH   6   8
ATOM      8  C   UNL     1      25.867  14.832  -3.290  0.00  0.00    +0.212 C 
ATOM      9  O   UNL     1      26.400  14.946  -1.961  0.00  0.00    -0.218 OA
BRANCH   8  10
ATOM     10  C   UNL     1      24.412  14.230  -3.199  0.00  0.00    +0.171 C 
ATOM     11  O   UNL     1      23.402  15.232  -3.236  0.00  0.00    -0.343 OA
ATOM     12  C   UNL     1      22.057  15.007  -2.933  0.00  0.00    +0.220 C 
ATOM     13  C   UNL     1      21.890  14.280  -1.587  0.00  0.00    +0.076 C 
ATOM     14  C   UNL     1      22.764  13.016  -1.633  0.00  0.00    +0.177 C 
ATOM     15  O   UNL     1      22.615  12.283  -0.425  0.00  0.00    -0.221 OA
ATOM     16  C   UNL     1      24.255  13.401  -1.882  0.00  0.00    +0.155 C 
BRANCH  16  17
ATOM     17  N   UNL     1      25.090  12.203  -1.920  0.00  0.00    -0.202 NA
ATOM     18  C   UNL     1      25.849  11.643  -0.944  0.00  0.00    +0.242 C 
ATOM     19  C   UNL     1      26.375  10.248  -1.158  0.00  0.00    +0.096 C 
ATOM     20  O   UNL     1      26.085  12.279   0.082  0.00  0.00    -0.273 OA
ENDBRANCH  16  17
BRANCH  12  21
ATOM     21  C   UNL     1      21.242  14.258  -4.121  0.00  0.00    +0.391 C 
ATOM     22  O   UNL     1      20.111  13.812  -3.539  0.00  0.00    -0.243 OA
ATOM     23  O   UNL     1      21.837  14.620  -5.264  0.00  0.00    -0.243 OA
ENDBRANCH  12  21
ENDBRANCH   8  10
ENDBRANCH   6   8
ENDBRANCH   5   6
ENDBRANCH   2   5
BRANCH   1  24
ATOM     24  O   UNL     1      28.968  17.026  -1.073  0.00  0.00    -0.450 OA
BRANCH  24  25
ATOM     25  C   UNL     1      29.478  15.937  -0.340  0.00  0.00    +0.240 C 
BRANCH  25  26
ATOM     26  C   UNL     1      30.878  16.093   0.283  0.00  0.00    +0.100 C 
BRANCH  26  28
ATOM     27  N   UNL     1      32.067  13.933   0.457  0.00  0.00    -0.134 NA
ATOM     28  C   UNL     1      31.245  14.872   1.022  0.00  0.00    +0.086 A 
ATOM     29  C   UNL     1      30.898  14.463   2.290  0.00  0.00    +0.133 A 
ATOM     30  N   UNL     1      31.555  13.281   2.441  0.00  0.00    -0.250 N 
ATOM     31  N   UNL     1      32.248  12.957   1.336  0.00  0.00    -0.065 NA
BRANCH  30  32
ATOM     32  C   UNL     1      31.615  12.424   3.609  0.00  0.00    +0.160 C 
BRANCH  32  33
ATOM     33  C   UNL     1      30.271  12.427   4.350  0.00  0.00    +0.107 C 
BRANCH  33  34
ATOM     34  N   UNL     1      29.420  11.226   4.159  0.00  0.00    -0.301 NA
BRANCH  34  35
ATOM     35  C   UNL     1      30.083  10.323   3.195  0.00  0.00    +0.081 C 
ATOM     36  C   UNL     1      29.268  10.013   1.943  0.00  0.00    +0.020 C 
ENDBRANCH  34  35
BRANCH  34  37
ATOM     37  C   UNL     1      28.028  11.549   3.796  0.00  0.00    +0.081 C 
ATOM     38  C   UNL     1      27.708  13.024   3.571  0.00  0.00    +0.020 C 
ENDBRANCH  34  37
ENDBRANCH  33  34
ENDBRANCH  32  33
ENDBRANCH  30  32
ENDBRANCH  26  28
ENDBRANCH  25  26
ENDBRANCH  24  25
ENDBRANCH   1  24
TORSDOF 15
