REMARK VINA RESULT:    -6.299      2.964      9.148
REMARK INTER + INTRA:         -13.847
REMARK INTER:                 -11.477
REMARK INTRA:                  -2.370
REMARK UNBOUND:                -2.025
REMARK  Name = lig_assembled_10.pdb
REMARK  16 active torsions:
REMARK  status: ('A' for Active; 'I' for Inactive)
REMARK    1  A    between atoms: _2  and  _8
REMARK    2  A    between atoms: _4  and  _8
REMARK    3  A    between atoms: _4  and  _11
REMARK    4  A    between atoms: _5  and  _6
REMARK    5  A    between atoms: _5  and  _15
REMARK    6  A    between atoms: _8  and  _9
REMARK    7  A    between atoms: _9  and  _10
REMARK    8  A    between atoms: _10  and  _13
REMARK    9  A    between atoms: _15  and  _17
REMARK   10  A    between atoms: _16  and  _21
REMARK   11  A    between atoms: _17  and  _20
REMARK   12  A    between atoms: _25  and  _35
REMARK   13  A    between atoms: _27  and  _28
REMARK   14  A    between atoms: _29  and  _31
REMARK   15  A    between atoms: _31  and  _33
REMARK   16  A    between atoms: _33  and  _35
REMARK                            x       y       z     vdW  Elec       q    Type
REMARK                         _______ _______ _______ _____ _____    ______ ____
ROOT
ATOM      1  C   UNL     1      25.914  15.672  -4.835  0.00  0.00    +0.400 C 
ATOM      2  N   UNL     1      24.681  15.069  -4.913  0.00  0.00    -0.278 N 
ATOM      3  H   UNL     1      24.672  14.651  -5.897  0.00  0.00    +0.152 HD
ATOM      4  O   UNL     1      26.721  15.458  -5.736  0.00  0.00    -0.226 OA
ENDROOT
BRANCH   2   5
ATOM      5  C   UNL     1      23.415  14.738  -4.265  0.00  0.00    +0.152 C 
BRANCH   5   6
ATOM      6  C   UNL     1      23.367  13.393  -3.511  0.00  0.00    +0.193 C 
ATOM      7  O   UNL     1      23.944  12.404  -4.392  0.00  0.00    -0.219 OA
BRANCH   6   8
ATOM      8  C   UNL     1      24.188  13.274  -2.208  0.00  0.00    +0.212 C 
ATOM      9  O   UNL     1      24.002  14.441  -1.390  0.00  0.00    -0.218 OA
BRANCH   8  10
ATOM     10  C   UNL     1      23.825  11.999  -1.356  0.00  0.00    +0.171 C 
ATOM     11  O   UNL     1      22.450  11.956  -0.991  0.00  0.00    -0.343 OA
ATOM     12  C   UNL     1      21.912  11.080  -0.045  0.00  0.00    +0.220 C 
ATOM     13  C   UNL     1      22.705  11.106   1.273  0.00  0.00    +0.076 C 
ATOM     14  C   UNL     1      24.183  10.860   0.929  0.00  0.00    +0.177 C 
ATOM     15  O   UNL     1      24.957  10.834   2.120  0.00  0.00    -0.221 OA
ATOM     16  C   UNL     1      24.695  11.955  -0.057  0.00  0.00    +0.155 C 
BRANCH  16  17
ATOM     17  N   UNL     1      26.101  11.728  -0.381  0.00  0.00    -0.202 NA
ATOM     18  C   UNL     1      27.219  12.222   0.210  0.00  0.00    +0.242 C 
ATOM     19  C   UNL     1      28.546  11.596  -0.133  0.00  0.00    +0.096 C 
ATOM     20  O   UNL     1      27.124  13.155   1.004  0.00  0.00    -0.273 OA
ENDBRANCH  16  17
BRANCH  12  21
ATOM     21  C   UNL     1      21.726   9.564  -0.600  0.00  0.00    +0.391 C 
ATOM     22  O   UNL     1      21.780   8.784   0.497  0.00  0.00    -0.243 OA
ATOM     23  O   UNL     1      21.295   9.683  -1.862  0.00  0.00    -0.243 OA
ENDBRANCH  12  21
ENDBRANCH   8  10
ENDBRANCH   6   8
ENDBRANCH   5   6
ENDBRANCH   2   5
BRANCH   1  24
ATOM     24  O   UNL     1      26.096  16.445  -3.815  0.00  0.00    -0.450 OA
BRANCH  24  25
ATOM     25  C   UNL     1      27.074  17.316  -3.296  0.00  0.00    +0.240 C 
BRANCH  25  26
ATOM     26  C   UNL     1      27.078  17.553  -1.774  0.00  0.00    +0.100 C 
BRANCH  26  28
ATOM     27  N   UNL     1      29.360  17.718  -0.826  0.00  0.00    -0.134 NA
ATOM     28  C   UNL     1      28.279  16.951  -1.167  0.00  0.00    +0.086 A 
ATOM     29  C   UNL     1      28.538  15.639  -0.843  0.00  0.00    +0.134 A 
ATOM     30  N   UNL     1      29.772  15.674  -0.268  0.00  0.00    -0.237 N 
ATOM     31  N   UNL     1      30.272  16.926  -0.284  0.00  0.00    -0.065 NA
BRANCH  30  32
ATOM     32  C   UNL     1      30.577  14.619   0.324  0.00  0.00    +0.227 C 
BRANCH  32  33
ATOM     33  C   UNL     1      30.503  14.543   1.834  0.00  0.00    +0.330 C 
ATOM     34  O   UNL     1      31.490  14.729   2.538  0.00  0.00    -0.249 OA
BRANCH  33  35
ATOM     35  O   UNL     1      29.295  14.307   2.386  0.00  0.00    -0.479 OA
ATOM     36  H   UNL     1      28.711  13.656   1.917  0.00  0.00    +0.295 HD
ENDBRANCH  33  35
ENDBRANCH  32  33
BRANCH  32  37
ATOM     37  C   UNL     1      32.022  14.564  -0.192  0.00  0.00    +0.158 C 
BRANCH  37  38
ATOM     38  C   UNL     1      32.222  13.465  -1.198  0.00  0.00    +0.307 C 
ATOM     39  O   UNL     1      31.849  13.534  -2.362  0.00  0.00    -0.251 OA
BRANCH  38  40
ATOM     40  O   UNL     1      32.926  12.420  -0.724  0.00  0.00    -0.481 OA
ATOM     41  H   UNL     1      33.840  12.344  -1.065  0.00  0.00    +0.295 HD
ENDBRANCH  38  40
ENDBRANCH  37  38
ENDBRANCH  32  37
ENDBRANCH  30  32
ENDBRANCH  26  28
ENDBRANCH  25  26
ENDBRANCH  24  25
ENDBRANCH   1  24
TORSDOF 16
