REMARK VINA RESULT:    -6.331      2.148      2.771
REMARK INTER + INTRA:         -12.612
REMARK INTER:                 -11.077
REMARK INTRA:                  -1.535
REMARK UNBOUND:                -1.839
REMARK  Name = lig_assembled_61.pdb
REMARK  12 active torsions:
REMARK  status: ('A' for Active; 'I' for Inactive)
REMARK    1  A    between atoms: _2  and  _8
REMARK    2  A    between atoms: _5  and  _6
REMARK    3  A    between atoms: _5  and  _12
REMARK    4  A    between atoms: _8  and  _9
REMARK    5  A    between atoms: _12  and  _14
REMARK    6  A    between atoms: _13  and  _18
REMARK    7  A    between atoms: _14  and  _17
REMARK    8  A    between atoms: _22  and  _32
REMARK    9  A    between atoms: _24  and  _25
REMARK   10  A    between atoms: _26  and  _28
REMARK   11  A    between atoms: _28  and  _30
REMARK   12  A    between atoms: _30  and  _32
REMARK                            x       y       z     vdW  Elec       q    Type
REMARK                         _______ _______ _______ _____ _____    ______ ____
ROOT
ATOM      1  C   UNL     1      28.711  14.539  -0.406  0.00  0.00    +0.152 C 
ENDROOT
BRANCH   1   3
ATOM      2  C   UNL     1      28.013  17.146  -0.807  0.00  0.00    +0.400 C 
ATOM      3  N   UNL     1      28.445  15.966  -0.248  0.00  0.00    -0.278 N 
ATOM      4  H   UNL     1      28.676  16.240   0.759  0.00  0.00    +0.152 HD
ATOM      5  O   UNL     1      27.822  18.104  -0.063  0.00  0.00    -0.226 OA
BRANCH   2   6
ATOM      6  O   UNL     1      27.877  17.139  -2.093  0.00  0.00    -0.450 OA
BRANCH   6   7
ATOM      7  C   UNL     1      26.940  17.529  -3.070  0.00  0.00    +0.240 C 
BRANCH   7   8
ATOM      8  C   UNL     1      26.393  16.435  -4.006  0.00  0.00    +0.100 C 
BRANCH   8  10
ATOM      9  N   UNL     1      26.442  14.132  -3.099  0.00  0.00    -0.134 NA
ATOM     10  C   UNL     1      25.798  15.336  -3.223  0.00  0.00    +0.086 A 
ATOM     11  C   UNL     1      24.610  15.286  -2.526  0.00  0.00    +0.134 A 
ATOM     12  N   UNL     1      24.563  14.007  -2.053  0.00  0.00    -0.247 N 
ATOM     13  N   UNL     1      25.684  13.330  -2.363  0.00  0.00    -0.065 NA
BRANCH  12  14
ATOM     14  C   UNL     1      23.514  13.376  -1.273  0.00  0.00    +0.180 C 
BRANCH  14  15
ATOM     15  C   UNL     1      22.180  13.459  -1.962  0.00  0.00    -0.019 A 
ATOM     16  C   UNL     1      21.009  14.072  -1.397  0.00  0.00    +0.013 A 
ATOM     17  C   UNL     1      19.908  13.977  -2.221  0.00  0.00    +0.045 A 
ATOM     18  S   UNL     1      20.267  13.167  -3.679  0.00  0.00    -0.105 S 
ATOM     19  C   UNL     1      21.893  12.929  -3.209  0.00  0.00    +0.050 A 
ENDBRANCH  14  15
ENDBRANCH  12  14
ENDBRANCH   8  10
ENDBRANCH   7   8
ENDBRANCH   6   7
ENDBRANCH   2   6
ENDBRANCH   1   3
BRANCH   1  20
ATOM     20  C   UNL     1      28.305  13.638   0.779  0.00  0.00    +0.193 C 
ATOM     21  O   UNL     1      28.820  12.319   0.493  0.00  0.00    -0.219 OA
BRANCH  20  22
ATOM     22  C   UNL     1      28.881  13.983   2.170  0.00  0.00    +0.212 C 
ATOM     23  O   UNL     1      27.856  13.898   3.173  0.00  0.00    -0.218 OA
BRANCH  22  24
ATOM     24  C   UNL     1      30.082  13.054   2.596  0.00  0.00    +0.171 C 
ATOM     25  O   UNL     1      29.790  12.281   3.756  0.00  0.00    -0.343 OA
ATOM     26  C   UNL     1      30.743  11.566   4.486  0.00  0.00    +0.220 C 
ATOM     27  C   UNL     1      31.958  12.438   4.847  0.00  0.00    +0.076 C 
ATOM     28  C   UNL     1      32.479  13.067   3.544  0.00  0.00    +0.177 C 
ATOM     29  O   UNL     1      33.630  13.854   3.815  0.00  0.00    -0.221 OA
ATOM     30  C   UNL     1      31.357  13.917   2.870  0.00  0.00    +0.155 C 
BRANCH  30  31
ATOM     31  N   UNL     1      31.850  14.521   1.636  0.00  0.00    -0.202 NA
ATOM     32  C   UNL     1      32.248  13.932   0.480  0.00  0.00    +0.242 C 
ATOM     33  C   UNL     1      32.431  14.799  -0.739  0.00  0.00    +0.096 C 
ATOM     34  O   UNL     1      32.447  12.719   0.453  0.00  0.00    -0.273 OA
ENDBRANCH  30  31
BRANCH  26  35
ATOM     35  C   UNL     1      31.195  10.177   3.774  0.00  0.00    +0.391 C 
ATOM     36  O   UNL     1      32.153   9.672   4.575  0.00  0.00    -0.243 OA
ATOM     37  O   UNL     1      30.261   9.913   2.853  0.00  0.00    -0.243 OA
ENDBRANCH  26  35
ENDBRANCH  22  24
ENDBRANCH  20  22
ENDBRANCH   1  20
TORSDOF 12
