REMARK VINA RESULT:    -6.863      2.262      3.514
REMARK INTER + INTRA:         -13.419
REMARK INTER:                 -11.344
REMARK INTRA:                  -2.074
REMARK UNBOUND:                -2.544
REMARK  Name = lig_assembled_65.pdb
REMARK  11 active torsions:
REMARK  status: ('A' for Active; 'I' for Inactive)
REMARK    1  A    between atoms: _8  and  _14
REMARK    2  A    between atoms: _9  and  _10
REMARK    3  A    between atoms: _9  and  _15
REMARK    4  A    between atoms: _15  and  _17
REMARK    5  A    between atoms: _16  and  _21
REMARK    6  A    between atoms: _17  and  _20
REMARK    7  A    between atoms: _25  and  _35
REMARK    8  A    between atoms: _27  and  _28
REMARK    9  A    between atoms: _29  and  _31
REMARK   10  A    between atoms: _31  and  _33
REMARK   11  A    between atoms: _33  and  _35
REMARK                            x       y       z     vdW  Elec       q    Type
REMARK                         _______ _______ _______ _____ _____    ______ ____
ROOT
ATOM      1  C   UNL     1      27.828  17.453  -0.979  0.00  0.00    +0.400 C 
ATOM      2  N   UNL     1      28.649  16.652  -0.222  0.00  0.00    -0.278 N 
ATOM      3  H   UNL     1      28.888  17.267   0.619  0.00  0.00    +0.152 HD
ATOM      4  O   UNL     1      27.434  18.508  -0.488  0.00  0.00    -0.226 OA
ENDROOT
BRANCH   1   5
ATOM      5  O   UNL     1      27.570  17.023  -2.171  0.00  0.00    -0.450 OA
BRANCH   5   6
ATOM      6  C   UNL     1      26.862  17.423  -3.321  0.00  0.00    +0.240 C 
BRANCH   6   7
ATOM      7  C   UNL     1      26.173  16.322  -4.150  0.00  0.00    +0.100 C 
BRANCH   7   9
ATOM      8  N   UNL     1      23.978  15.714  -3.180  0.00  0.00    -0.134 NA
ATOM      9  C   UNL     1      25.321  15.484  -3.286  0.00  0.00    +0.087 A 
ATOM     10  C   UNL     1      25.657  14.415  -2.489  0.00  0.00    +0.146 A 
ATOM     11  N   UNL     1      24.473  14.024  -1.902  0.00  0.00    -0.155 N 
ATOM     12  C   UNL     1      24.284  12.962  -0.969  0.00  0.00    +0.416 C 
ATOM     13  N   UNL     1      23.050  12.728  -0.506  0.00  0.00    +0.041 NA
ATOM     14  C   UNL     1      22.957  11.732   0.372  0.00  0.00    +0.339 C 
ATOM     15  C   UNL     1      21.604  11.430   0.936  0.00  0.00    +0.149 C 
ATOM     16  N   UNL     1      23.985  10.995   0.791  0.00  0.00    +0.007 NA
ATOM     17  C   UNL     1      25.165  11.318   0.283  0.00  0.00    +0.386 C 
ATOM     18  N   UNL     1      26.257  10.587   0.700  0.00  0.00    -0.296 N 
ATOM     19  H   UNL     1      25.970   9.686   1.056  0.00  0.00    +0.148 HD
ATOM     20  H   UNL     1      26.994  10.603   0.009  0.00  0.00    +0.148 HD
ATOM     21  N   UNL     1      25.373  12.269  -0.610  0.00  0.00    -0.290 NA
ATOM     22  N   UNL     1      23.465  14.821  -2.341  0.00  0.00    -0.056 NA
ENDBRANCH   7   9
ENDBRANCH   6   7
ENDBRANCH   5   6
ENDBRANCH   1   5
BRANCH   2  23
ATOM     23  C   UNL     1      29.314  15.363  -0.048  0.00  0.00    +0.152 C 
BRANCH  23  24
ATOM     24  C   UNL     1      30.797  15.415   0.375  0.00  0.00    +0.193 C 
ATOM     25  O   UNL     1      31.015  16.715   0.967  0.00  0.00    -0.219 OA
BRANCH  24  26
ATOM     26  C   UNL     1      31.268  14.416   1.455  0.00  0.00    +0.212 C 
ATOM     27  O   UNL     1      31.614  15.110   2.664  0.00  0.00    -0.218 OA
BRANCH  26  28
ATOM     28  C   UNL     1      30.194  13.314   1.797  0.00  0.00    +0.171 C 
ATOM     29  O   UNL     1      29.920  13.230   3.191  0.00  0.00    -0.343 OA
ATOM     30  C   UNL     1      29.203  12.192   3.793  0.00  0.00    +0.220 C 
ATOM     31  C   UNL     1      29.741  10.812   3.377  0.00  0.00    +0.076 C 
ATOM     32  C   UNL     1      29.772  10.771   1.841  0.00  0.00    +0.177 C 
ATOM     33  O   UNL     1      30.226   9.498   1.402  0.00  0.00    -0.221 OA
ATOM     34  C   UNL     1      30.679  11.916   1.291  0.00  0.00    +0.155 C 
BRANCH  34  35
ATOM     35  N   UNL     1      30.718  11.876  -0.169  0.00  0.00    -0.202 NA
ATOM     36  C   UNL     1      31.781  11.780  -1.006  0.00  0.00    +0.242 C 
ATOM     37  C   UNL     1      31.523  11.461  -2.456  0.00  0.00    +0.096 C 
ATOM     38  O   UNL     1      32.917  11.951  -0.568  0.00  0.00    -0.273 OA
ENDBRANCH  34  35
BRANCH  30  39
ATOM     39  C   UNL     1      27.598  12.300   3.568  0.00  0.00    +0.391 C 
ATOM     40  O   UNL     1      27.149  11.033   3.655  0.00  0.00    -0.243 OA
ATOM     41  O   UNL     1      27.295  13.599   3.683  0.00  0.00    -0.243 OA
ENDBRANCH  30  39
ENDBRANCH  26  28
ENDBRANCH  24  26
ENDBRANCH  23  24
ENDBRANCH   2  23
TORSDOF 10
