REMARK VINA RESULT:    -6.127      2.364      4.227
REMARK INTER + INTRA:         -14.021
REMARK INTER:                 -11.510
REMARK INTRA:                  -2.511
REMARK UNBOUND:                -2.880
REMARK  Name = lig_assembled_21.pdb
REMARK  15 active torsions:
REMARK  status: ('A' for Active; 'I' for Inactive)
REMARK    1  A    between atoms: _2  and  _8
REMARK    2  A    between atoms: _5  and  _6
REMARK    3  A    between atoms: _5  and  _18
REMARK    4  A    between atoms: _8  and  _9
REMARK    5  A    between atoms: _10  and  _17
REMARK    6  A    between atoms: _11  and  _12
REMARK    7  A    between atoms: _11  and  _17
REMARK    8  A    between atoms: _18  and  _20
REMARK    9  A    between atoms: _19  and  _24
REMARK   10  A    between atoms: _20  and  _23
REMARK   11  A    between atoms: _28  and  _38
REMARK   12  A    between atoms: _30  and  _31
REMARK   13  A    between atoms: _32  and  _34
REMARK   14  A    between atoms: _34  and  _36
REMARK   15  A    between atoms: _36  and  _38
REMARK                            x       y       z     vdW  Elec       q    Type
REMARK                         _______ _______ _______ _____ _____    ______ ____
ROOT
ATOM      1  C   UNL     1      27.856  17.449  -0.778  0.00  0.00    +0.400 C 
ATOM      2  N   UNL     1      28.600  16.500  -0.117  0.00  0.00    -0.278 N 
ATOM      3  H   UNL     1      28.834  16.974   0.812  0.00  0.00    +0.152 HD
ATOM      4  O   UNL     1      27.498  18.444  -0.153  0.00  0.00    -0.226 OA
ENDROOT
BRANCH   2   5
ATOM      5  C   UNL     1      29.187  15.163  -0.109  0.00  0.00    +0.152 C 
BRANCH   5   6
ATOM      6  C   UNL     1      28.246  14.006  -0.502  0.00  0.00    +0.193 C 
ATOM      7  O   UNL     1      28.209  13.973  -1.946  0.00  0.00    -0.219 OA
BRANCH   6   8
ATOM      8  C   UNL     1      28.663  12.575  -0.095  0.00  0.00    +0.212 C 
ATOM      9  O   UNL     1      29.584  12.029  -1.054  0.00  0.00    -0.218 OA
BRANCH   8  10
ATOM     10  C   UNL     1      29.322  12.500   1.335  0.00  0.00    +0.171 C 
ATOM     11  O   UNL     1      30.738  12.360   1.280  0.00  0.00    -0.343 OA
ATOM     12  C   UNL     1      31.540  12.029   2.374  0.00  0.00    +0.220 C 
ATOM     13  C   UNL     1      31.015  10.785   3.111  0.00  0.00    +0.076 C 
ATOM     14  C   UNL     1      29.536  11.036   3.446  0.00  0.00    +0.177 C 
ATOM     15  O   UNL     1      29.011   9.930   4.166  0.00  0.00    -0.221 OA
ATOM     16  C   UNL     1      28.726  11.298   2.139  0.00  0.00    +0.155 C 
BRANCH  16  17
ATOM     17  N   UNL     1      27.318  11.530   2.452  0.00  0.00    -0.202 NA
ATOM     18  C   UNL     1      26.221  10.812   2.102  0.00  0.00    +0.242 C 
ATOM     19  C   UNL     1      24.920  11.105   2.803  0.00  0.00    +0.096 C 
ATOM     20  O   UNL     1      26.313   9.948   1.232  0.00  0.00    -0.273 OA
ENDBRANCH  16  17
BRANCH  12  21
ATOM     21  C   UNL     1      31.786  13.269   3.395  0.00  0.00    +0.391 C 
ATOM     22  O   UNL     1      32.271  12.704   4.518  0.00  0.00    -0.243 OA
ATOM     23  O   UNL     1      31.706  14.381   2.653  0.00  0.00    -0.243 OA
ENDBRANCH  12  21
ENDBRANCH   8  10
ENDBRANCH   6   8
ENDBRANCH   5   6
ENDBRANCH   2   5
BRANCH   1  24
ATOM     24  O   UNL     1      27.627  17.210  -2.028  0.00  0.00    -0.450 OA
BRANCH  24  25
ATOM     25  C   UNL     1      26.583  17.334  -2.965  0.00  0.00    +0.240 C 
BRANCH  25  26
ATOM     26  C   UNL     1      26.668  16.475  -4.241  0.00  0.00    +0.100 C 
BRANCH  26  28
ATOM     27  N   UNL     1      26.079  14.168  -4.906  0.00  0.00    -0.134 NA
ATOM     28  C   UNL     1      25.883  15.237  -4.076  0.00  0.00    +0.086 A 
ATOM     29  C   UNL     1      24.925  14.912  -3.142  0.00  0.00    +0.134 A 
ATOM     30  N   UNL     1      24.642  13.597  -3.401  0.00  0.00    -0.247 N 
ATOM     31  N   UNL     1      25.313  13.172  -4.486  0.00  0.00    -0.065 NA
BRANCH  30  32
ATOM     32  C   UNL     1      23.809  12.723  -2.582  0.00  0.00    +0.184 C 
BRANCH  32  33
ATOM     33  C   UNL     1      22.383  13.175  -2.382  0.00  0.00    +0.016 A 
ATOM     34  C   UNL     1      21.754  13.119  -1.125  0.00  0.00    +0.137 A 
ATOM     35  C   UNL     1      20.437  13.546  -0.959  0.00  0.00    +0.047 A 
ATOM     36  C   UNL     1      19.733  14.052  -2.052  0.00  0.00    +0.004 A 
ATOM     37  C   UNL     1      20.331  14.103  -3.308  0.00  0.00    +0.001 A 
ATOM     38  C   UNL     1      21.648  13.670  -3.472  0.00  0.00    +0.009 A 
BRANCH  34  39
ATOM     39  O   UNL     1      22.493  12.534  -0.068  0.00  0.00    -0.426 OA
BRANCH  39  40
ATOM     40  C   UNL     1      21.956  11.556   0.772  0.00  0.00    +0.309 C 
ATOM     41  O   UNL     1      21.504  11.713   1.899  0.00  0.00    -0.251 OA
ATOM     42  C   UNL     1      21.939  10.244   0.042  0.00  0.00    +0.136 C 
ENDBRANCH  39  40
ENDBRANCH  34  39
ENDBRANCH  32  33
ENDBRANCH  30  32
ENDBRANCH  26  28
ENDBRANCH  25  26
ENDBRANCH  24  25
ENDBRANCH   1  24
TORSDOF 14
