REMARK VINA RESULT:    -6.873      2.167      5.652
REMARK INTER + INTRA:         -13.068
REMARK INTER:                 -10.968
REMARK INTRA:                  -2.100
REMARK UNBOUND:                -1.775
REMARK  Name = lig_assembled_42.pdb
REMARK  11 active torsions:
REMARK  status: ('A' for Active; 'I' for Inactive)
REMARK    1  A    between atoms: _2  and  _8
REMARK    2  A    between atoms: _5  and  _6
REMARK    3  A    between atoms: _5  and  _16
REMARK    4  A    between atoms: _16  and  _18
REMARK    5  A    between atoms: _17  and  _22
REMARK    6  A    between atoms: _18  and  _21
REMARK    7  A    between atoms: _26  and  _36
REMARK    8  A    between atoms: _28  and  _29
REMARK    9  A    between atoms: _30  and  _32
REMARK   10  A    between atoms: _32  and  _34
REMARK   11  A    between atoms: _34  and  _36
REMARK                            x       y       z     vdW  Elec       q    Type
REMARK                         _______ _______ _______ _____ _____    ______ ____
ROOT
ATOM      1  C   UNL     1      24.380   9.531   1.135  0.00  0.00    +0.400 C 
ATOM      2  N   UNL     1      25.504  10.176   0.676  0.00  0.00    -0.278 N 
ATOM      3  H   UNL     1      26.006   9.424   0.107  0.00  0.00    +0.152 HD
ATOM      4  O   UNL     1      24.127   8.417   0.684  0.00  0.00    -0.226 OA
ENDROOT
BRANCH   1   5
ATOM      5  O   UNL     1      23.703  10.161   2.038  0.00  0.00    -0.450 OA
BRANCH   5   6
ATOM      6  C   UNL     1      22.828  11.259   2.145  0.00  0.00    +0.240 C 
BRANCH   6   7
ATOM      7  C   UNL     1      21.599  11.282   1.217  0.00  0.00    +0.100 C 
BRANCH   7   9
ATOM      8  N   UNL     1      20.803  12.838  -0.545  0.00  0.00    -0.134 NA
ATOM      9  C   UNL     1      21.830  12.186   0.075  0.00  0.00    +0.086 A 
ATOM     10  C   UNL     1      23.010  12.523  -0.542  0.00  0.00    +0.139 A 
ATOM     11  N   UNL     1      22.656  13.394  -1.544  0.00  0.00    -0.220 N 
ATOM     12  N   UNL     1      21.312  13.571  -1.528  0.00  0.00    -0.061 NA
BRANCH  11  13
ATOM     13  C   UNL     1      23.499  14.041  -2.485  0.00  0.00    +0.071 A 
ATOM     14  C   UNL     1      24.483  14.939  -2.045  0.00  0.00    +0.077 A 
ATOM     15  C   UNL     1      25.276  15.541  -2.998  0.00  0.00    +0.168 A 
ATOM     16  O   UNL     1      26.273  16.428  -2.740  0.00  0.00    -0.453 OA
ATOM     17  C   UNL     1      26.741  16.702  -4.075  0.00  0.00    +0.466 C 
ATOM     18  O   UNL     1      26.015  15.985  -5.096  0.00  0.00    -0.453 OA
ATOM     19  C   UNL     1      25.127  15.286  -4.339  0.00  0.00    +0.166 A 
ATOM     20  C   UNL     1      24.171  14.412  -4.808  0.00  0.00    +0.051 A 
ATOM     21  C   UNL     1      23.346  13.780  -3.867  0.00  0.00    +0.031 A 
ENDBRANCH  11  13
ENDBRANCH   7   9
ENDBRANCH   6   7
ENDBRANCH   5   6
ENDBRANCH   1   5
BRANCH   2  22
ATOM     22  C   UNL     1      26.293  11.403   0.606  0.00  0.00    +0.152 C 
BRANCH  22  23
ATOM     23  C   UNL     1      27.238  11.672   1.796  0.00  0.00    +0.193 C 
ATOM     24  O   UNL     1      28.475  10.982   1.507  0.00  0.00    -0.219 OA
BRANCH  23  25
ATOM     25  C   UNL     1      27.664  13.134   2.055  0.00  0.00    +0.212 C 
ATOM     26  O   UNL     1      27.559  13.446   3.454  0.00  0.00    -0.218 OA
BRANCH  25  27
ATOM     27  C   UNL     1      29.132  13.451   1.577  0.00  0.00    +0.171 C 
ATOM     28  O   UNL     1      30.013  13.729   2.660  0.00  0.00    -0.343 OA
ATOM     29  C   UNL     1      31.292  14.273   2.516  0.00  0.00    +0.220 C 
ATOM     30  C   UNL     1      31.279  15.537   1.639  0.00  0.00    +0.076 C 
ATOM     31  C   UNL     1      30.576  15.177   0.319  0.00  0.00    +0.177 C 
ATOM     32  O   UNL     1      30.572  16.302  -0.547  0.00  0.00    -0.221 OA
ATOM     33  C   UNL     1      29.126  14.674   0.602  0.00  0.00    +0.155 C 
BRANCH  33  34
ATOM     34  N   UNL     1      28.453  14.337  -0.650  0.00  0.00    -0.202 NA
ATOM     35  C   UNL     1      28.721  13.348  -1.540  0.00  0.00    +0.242 C 
ATOM     36  C   UNL     1      27.692  13.040  -2.597  0.00  0.00    +0.096 C 
ATOM     37  O   UNL     1      29.783  12.734  -1.465  0.00  0.00    -0.273 OA
ENDBRANCH  33  34
BRANCH  29  38
ATOM     38  C   UNL     1      32.397  13.200   2.001  0.00  0.00    +0.391 C 
ATOM     39  O   UNL     1      33.284  13.926   1.293  0.00  0.00    -0.243 OA
ATOM     40  O   UNL     1      32.185  12.083   2.708  0.00  0.00    -0.243 OA
ENDBRANCH  29  38
ENDBRANCH  25  27
ENDBRANCH  23  25
ENDBRANCH  22  23
ENDBRANCH   2  22
TORSDOF 11
