REMARK VINA RESULT:    -6.955      1.700      2.296
REMARK INTER + INTRA:         -14.762
REMARK INTER:                 -13.447
REMARK INTRA:                  -1.315
REMARK UNBOUND:                -2.115
REMARK  Name = lig_assembled_26.pdb
REMARK  15 active torsions:
REMARK  status: ('A' for Active; 'I' for Inactive)
REMARK    1  A    between atoms: _2  and  _8
REMARK    2  A    between atoms: _5  and  _6
REMARK    3  A    between atoms: _5  and  _18
REMARK    4  A    between atoms: _8  and  _9
REMARK    5  A    between atoms: _8  and  _10
REMARK    6  A    between atoms: _10  and  _11
REMARK    7  A    between atoms: _11  and  _12
REMARK    8  A    between atoms: _18  and  _20
REMARK    9  A    between atoms: _19  and  _24
REMARK   10  A    between atoms: _20  and  _23
REMARK   11  A    between atoms: _28  and  _38
REMARK   12  A    between atoms: _30  and  _31
REMARK   13  A    between atoms: _32  and  _34
REMARK   14  A    between atoms: _34  and  _36
REMARK   15  A    between atoms: _36  and  _38
REMARK                            x       y       z     vdW  Elec       q    Type
REMARK                         _______ _______ _______ _____ _____    ______ ____
ROOT
ATOM      1  C   UNL     1      26.363  17.332  -3.378  0.00  0.00    +0.400 C 
ATOM      2  N   UNL     1      27.141  17.778  -2.335  0.00  0.00    -0.278 N 
ATOM      3  H   UNL     1      26.567  18.581  -1.925  0.00  0.00    +0.152 HD
ATOM      4  O   UNL     1      25.222  17.774  -3.480  0.00  0.00    -0.226 OA
ENDROOT
BRANCH   2   5
ATOM      5  C   UNL     1      28.362  17.641  -1.546  0.00  0.00    +0.152 C 
BRANCH   5   6
ATOM      6  C   UNL     1      28.481  16.360  -0.695  0.00  0.00    +0.193 C 
ATOM      7  O   UNL     1      27.884  15.293  -1.465  0.00  0.00    -0.219 OA
BRANCH   6   8
ATOM      8  C   UNL     1      29.901  15.849  -0.366  0.00  0.00    +0.212 C 
ATOM      9  O   UNL     1      30.588  16.787   0.479  0.00  0.00    -0.218 OA
BRANCH   8  10
ATOM     10  C   UNL     1      29.910  14.438   0.336  0.00  0.00    +0.171 C 
ATOM     11  O   UNL     1      29.359  14.476   1.649  0.00  0.00    -0.343 OA
ATOM     12  C   UNL     1      29.463  13.437   2.577  0.00  0.00    +0.220 C 
ATOM     13  C   UNL     1      30.916  12.957   2.736  0.00  0.00    +0.076 C 
ATOM     14  C   UNL     1      31.450  12.626   1.332  0.00  0.00    +0.177 C 
ATOM     15  O   UNL     1      32.780  12.138   1.426  0.00  0.00    -0.221 OA
ATOM     16  C   UNL     1      31.371  13.887   0.417  0.00  0.00    +0.155 C 
BRANCH  16  17
ATOM     17  N   UNL     1      31.884  13.579  -0.916  0.00  0.00    -0.202 NA
ATOM     18  C   UNL     1      32.835  14.212  -1.648  0.00  0.00    +0.242 C 
ATOM     19  C   UNL     1      33.383  13.515  -2.866  0.00  0.00    +0.096 C 
ATOM     20  O   UNL     1      33.225  15.326  -1.303  0.00  0.00    -0.273 OA
ENDBRANCH  16  17
BRANCH  12  21
ATOM     21  C   UNL     1      28.454  12.199   2.279  0.00  0.00    +0.391 C 
ATOM     22  O   UNL     1      28.040  11.788   3.493  0.00  0.00    -0.243 OA
ATOM     23  O   UNL     1      28.183  12.250   0.969  0.00  0.00    -0.243 OA
ENDBRANCH  12  21
ENDBRANCH   8  10
ENDBRANCH   6   8
ENDBRANCH   5   6
ENDBRANCH   2   5
BRANCH   1  24
ATOM     24  O   UNL     1      26.933  16.497  -4.184  0.00  0.00    -0.450 OA
BRANCH  24  25
ATOM     25  C   UNL     1      26.582  15.563  -5.177  0.00  0.00    +0.240 C 
BRANCH  25  26
ATOM     26  C   UNL     1      25.984  14.221  -4.712  0.00  0.00    +0.100 C 
BRANCH  26  28
ATOM     27  N   UNL     1      23.626  14.270  -5.483  0.00  0.00    -0.134 NA
ATOM     28  C   UNL     1      24.538  14.362  -4.466  0.00  0.00    +0.086 A 
ATOM     29  C   UNL     1      23.873  14.586  -3.284  0.00  0.00    +0.134 A 
ATOM     30  N   UNL     1      22.560  14.649  -3.644  0.00  0.00    -0.248 N 
ATOM     31  N   UNL     1      22.413  14.429  -4.966  0.00  0.00    -0.065 NA
BRANCH  30  32
ATOM     32  C   UNL     1      21.380  14.834  -2.814  0.00  0.00    +0.113 C 
ATOM     33  C   UNL     1      20.366  15.844  -3.370  0.00  0.00    +0.033 C 
BRANCH  32  34
ATOM     34  C   UNL     1      20.708  13.504  -2.429  0.00  0.00    +0.106 C 
BRANCH  34  35
ATOM     35  C   UNL     1      20.573  13.291  -0.932  0.00  0.00    +0.165 C 
ATOM     36  O   UNL     1      19.986  14.089  -0.205  0.00  0.00    -0.292 OA
BRANCH  35  37
ATOM     37  C   UNL     1      21.211  12.090  -0.316  0.00  0.00    +0.017 A 
ATOM     38  C   UNL     1      21.417  11.972   1.064  0.00  0.00    +0.011 A 
ATOM     39  C   UNL     1      21.981  10.807   1.591  0.00  0.00    +0.001 A 
ATOM     40  C   UNL     1      22.348   9.761   0.745  0.00  0.00    +0.000 A 
ATOM     41  C   UNL     1      22.157   9.875  -0.629  0.00  0.00    +0.001 A 
ATOM     42  C   UNL     1      21.591  11.035  -1.160  0.00  0.00    +0.011 A 
ENDBRANCH  35  37
ENDBRANCH  34  35
ENDBRANCH  32  34
ENDBRANCH  30  32
ENDBRANCH  26  28
ENDBRANCH  25  26
ENDBRANCH  24  25
ENDBRANCH   1  24
TORSDOF 14
