REMARK VINA RESULT:    -6.843      1.609      2.283
REMARK INTER + INTRA:         -13.595
REMARK INTER:                 -12.061
REMARK INTRA:                  -1.534
REMARK UNBOUND:                -1.952
REMARK  Name = lig_assembled_44.pdb
REMARK  12 active torsions:
REMARK  status: ('A' for Active; 'I' for Inactive)
REMARK    1  A    between atoms: _2  and  _8
REMARK    2  A    between atoms: _5  and  _6
REMARK    3  A    between atoms: _5  and  _14
REMARK    4  A    between atoms: _8  and  _9
REMARK    5  A    between atoms: _14  and  _16
REMARK    6  A    between atoms: _15  and  _20
REMARK    7  A    between atoms: _16  and  _19
REMARK    8  A    between atoms: _24  and  _34
REMARK    9  A    between atoms: _26  and  _27
REMARK   10  A    between atoms: _28  and  _30
REMARK   11  A    between atoms: _30  and  _32
REMARK   12  A    between atoms: _32  and  _34
REMARK                            x       y       z     vdW  Elec       q    Type
REMARK                         _______ _______ _______ _____ _____    ______ ____
ROOT
ATOM      1  C   UNL     1      26.646  13.625  -1.533  0.00  0.00    +0.400 C 
ATOM      2  N   UNL     1      27.443  13.799  -0.426  0.00  0.00    -0.278 N 
ATOM      3  H   UNL     1      27.269  12.912   0.145  0.00  0.00    +0.152 HD
ATOM      4  O   UNL     1      26.117  12.529  -1.700  0.00  0.00    -0.226 OA
ENDROOT
BRANCH   2   5
ATOM      5  C   UNL     1      28.408  14.624   0.295  0.00  0.00    +0.152 C 
BRANCH   5   6
ATOM      6  C   UNL     1      29.451  15.362  -0.569  0.00  0.00    +0.193 C 
ATOM      7  O   UNL     1      28.927  16.687  -0.811  0.00  0.00    -0.219 OA
BRANCH   6   8
ATOM      8  C   UNL     1      30.846  15.606   0.046  0.00  0.00    +0.212 C 
ATOM      9  O   UNL     1      30.826  16.768   0.891  0.00  0.00    -0.218 OA
BRANCH   8  10
ATOM     10  C   UNL     1      31.381  14.383   0.884  0.00  0.00    +0.171 C 
ATOM     11  O   UNL     1      31.619  14.715   2.248  0.00  0.00    -0.343 OA
ATOM     12  C   UNL     1      32.315  13.904   3.148  0.00  0.00    +0.220 C 
ATOM     13  C   UNL     1      33.668  13.448   2.576  0.00  0.00    +0.076 C 
ATOM     14  C   UNL     1      33.399  12.810   1.203  0.00  0.00    +0.177 C 
ATOM     15  O   UNL     1      34.616  12.334   0.646  0.00  0.00    -0.221 OA
ATOM     16  C   UNL     1      32.708  13.840   0.257  0.00  0.00    +0.155 C 
BRANCH  16  17
ATOM     17  N   UNL     1      32.456  13.240  -1.050  0.00  0.00    -0.202 NA
ATOM     18  C   UNL     1      32.881  13.628  -2.280  0.00  0.00    +0.242 C 
ATOM     19  C   UNL     1      32.723  12.666  -3.428  0.00  0.00    +0.096 C 
ATOM     20  O   UNL     1      33.379  14.743  -2.426  0.00  0.00    -0.273 OA
ENDBRANCH  16  17
BRANCH  12  21
ATOM     21  C   UNL     1      31.443  12.646   3.693  0.00  0.00    +0.391 C 
ATOM     22  O   UNL     1      32.341  11.822   4.266  0.00  0.00    -0.243 OA
ATOM     23  O   UNL     1      30.162  13.034   3.641  0.00  0.00    -0.243 OA
ENDBRANCH  12  21
ENDBRANCH   8  10
ENDBRANCH   6   8
ENDBRANCH   5   6
ENDBRANCH   2   5
BRANCH   1  24
ATOM     24  O   UNL     1      26.502  14.665  -2.288  0.00  0.00    -0.450 OA
BRANCH  24  25
ATOM     25  C   UNL     1      25.514  15.607  -2.631  0.00  0.00    +0.240 C 
BRANCH  25  26
ATOM     26  C   UNL     1      24.462  15.186  -3.675  0.00  0.00    +0.100 C 
BRANCH  26  28
ATOM     27  N   UNL     1      21.990  15.354  -3.626  0.00  0.00    -0.134 NA
ATOM     28  C   UNL     1      23.156  14.956  -3.027  0.00  0.00    +0.086 A 
ATOM     29  C   UNL     1      22.864  14.346  -1.831  0.00  0.00    +0.134 A 
ATOM     30  N   UNL     1      21.501  14.332  -1.795  0.00  0.00    -0.247 N 
ATOM     31  N   UNL     1      20.979  14.976  -2.855  0.00  0.00    -0.065 NA
BRANCH  30  32
ATOM     32  C   UNL     1      20.634  13.734  -0.797  0.00  0.00    +0.180 C 
BRANCH  32  33
ATOM     33  C   UNL     1      21.126  12.365  -0.388  0.00  0.00    -0.026 A 
ATOM     34  C   UNL     1      21.419  12.082   0.955  0.00  0.00    +0.006 A 
ATOM     35  C   UNL     1      21.887  10.820   1.327  0.00  0.00    +0.015 A 
ATOM     36  C   UNL     1      22.066   9.835   0.358  0.00  0.00    +0.018 A 
ATOM     37 BR   UNL     1      22.684   8.122   0.866  0.00  0.00    -0.050 Br
ATOM     38  C   UNL     1      21.793  10.102  -0.981  0.00  0.00    +0.015 A 
ATOM     39  C   UNL     1      21.329  11.367  -1.353  0.00  0.00    +0.006 A 
ENDBRANCH  32  33
ENDBRANCH  30  32
ENDBRANCH  26  28
ENDBRANCH  25  26
ENDBRANCH  24  25
ENDBRANCH   1  24
TORSDOF 12
