REMARK VINA RESULT:    -6.738      2.548      4.234
REMARK INTER + INTRA:         -14.912
REMARK INTER:                 -12.727
REMARK INTRA:                  -2.185
REMARK UNBOUND:                -1.675
REMARK  Name = lig_assembled_33.pdb
REMARK  17 active torsions:
REMARK  status: ('A' for Active; 'I' for Inactive)
REMARK    1  A    between atoms: _2  and  _8
REMARK    2  A    between atoms: _4  and  _12
REMARK    3  A    between atoms: _4  and  _13
REMARK    4  A    between atoms: _5  and  _6
REMARK    5  A    between atoms: _5  and  _15
REMARK    6  A    between atoms: _8  and  _9
REMARK    7  A    between atoms: _9  and  _10
REMARK    8  A    between atoms: _10  and  _11
REMARK    9  A    between atoms: _11  and  _12
REMARK   10  A    between atoms: _15  and  _17
REMARK   11  A    between atoms: _16  and  _21
REMARK   12  A    between atoms: _17  and  _20
REMARK   13  A    between atoms: _25  and  _35
REMARK   14  A    between atoms: _27  and  _28
REMARK   15  A    between atoms: _29  and  _31
REMARK   16  A    between atoms: _31  and  _33
REMARK   17  A    between atoms: _33  and  _35
REMARK                            x       y       z     vdW  Elec       q    Type
REMARK                         _______ _______ _______ _____ _____    ______ ____
ROOT
ATOM      1  C   UNL     1      27.857  17.314  -0.921  0.00  0.00    +0.400 C 
ATOM      2  N   UNL     1      28.292  16.228  -0.198  0.00  0.00    -0.278 N 
ATOM      3  H   UNL     1      28.471  16.634   0.774  0.00  0.00    +0.152 HD
ATOM      4  O   UNL     1      27.611  18.353  -0.314  0.00  0.00    -0.226 OA
ENDROOT
BRANCH   1   5
ATOM      5  O   UNL     1      27.778  17.140  -2.200  0.00  0.00    -0.450 OA
BRANCH   5   6
ATOM      6  C   UNL     1      26.906  17.433  -3.266  0.00  0.00    +0.240 C 
BRANCH   6   7
ATOM      7  C   UNL     1      26.478  16.265  -4.176  0.00  0.00    +0.100 C 
BRANCH   7   9
ATOM      8  N   UNL     1      24.314  15.862  -3.049  0.00  0.00    -0.134 NA
ATOM      9  C   UNL     1      25.527  15.386  -3.473  0.00  0.00    +0.086 A 
ATOM     10  C   UNL     1      25.635  14.057  -3.126  0.00  0.00    +0.133 A 
ATOM     11  N   UNL     1      24.455  13.786  -2.502  0.00  0.00    -0.251 N 
ATOM     12  N   UNL     1      23.672  14.876  -2.440  0.00  0.00    -0.065 NA
BRANCH  11  13
ATOM     13  C   UNL     1      24.011  12.531  -1.930  0.00  0.00    +0.145 C 
BRANCH  13  14
ATOM     14  C   UNL     1      23.348  12.725  -0.567  0.00  0.00    +0.023 C 
BRANCH  14  15
ATOM     15  C   UNL     1      22.146  11.800  -0.360  0.00  0.00    +0.002 C 
BRANCH  15  16
ATOM     16  C   UNL     1      21.062  12.115  -1.395  0.00  0.00    +0.011 C 
BRANCH  16  17
ATOM     17  C   UNL     1      20.465  13.508  -1.222  0.00  0.00    +0.120 C 
BRANCH  17  18
ATOM     18  C   UNL     1      20.146  14.137  -2.560  0.00  0.00    +0.305 C 
ATOM     19  O   UNL     1      19.161  14.816  -2.806  0.00  0.00    -0.251 OA
BRANCH  18  20
ATOM     20  O   UNL     1      21.091  13.874  -3.493  0.00  0.00    -0.481 OA
ATOM     21  H   UNL     1      21.054  14.462  -4.268  0.00  0.00    +0.295 HD
ENDBRANCH  18  20
ENDBRANCH  17  18
ENDBRANCH  16  17
ENDBRANCH  15  16
ENDBRANCH  14  15
ENDBRANCH  13  14
ENDBRANCH  11  13
ENDBRANCH   7   9
ENDBRANCH   6   7
ENDBRANCH   5   6
ENDBRANCH   1   5
BRANCH   2  22
ATOM     22  C   UNL     1      28.598  14.801  -0.160  0.00  0.00    +0.152 C 
BRANCH  22  23
ATOM     23  C   UNL     1      29.617  14.352   0.909  0.00  0.00    +0.193 C 
ATOM     24  O   UNL     1      29.809  12.932   0.729  0.00  0.00    -0.219 OA
BRANCH  23  25
ATOM     25  C   UNL     1      31.040  14.947   0.833  0.00  0.00    +0.212 C 
ATOM     26  O   UNL     1      31.064  16.267   1.399  0.00  0.00    -0.218 OA
BRANCH  25  27
ATOM     27  C   UNL     1      32.124  14.066   1.564  0.00  0.00    +0.171 C 
ATOM     28  O   UNL     1      32.531  14.620   2.811  0.00  0.00    -0.343 OA
ATOM     29  C   UNL     1      33.638  14.185   3.543  0.00  0.00    +0.220 C 
ATOM     30  C   UNL     1      34.905  14.112   2.673  0.00  0.00    +0.076 C 
ATOM     31  C   UNL     1      34.569  13.259   1.439  0.00  0.00    +0.177 C 
ATOM     32  O   UNL     1      35.721  13.126   0.618  0.00  0.00    -0.221 OA
ATOM     33  C   UNL     1      33.383  13.896   0.651  0.00  0.00    +0.155 C 
BRANCH  33  34
ATOM     34  N   UNL     1      33.066  13.093  -0.527  0.00  0.00    -0.202 NA
ATOM     35  C   UNL     1      33.065  13.439  -1.839  0.00  0.00    +0.242 C 
ATOM     36  C   UNL     1      32.987  12.342  -2.869  0.00  0.00    +0.096 C 
ATOM     37  O   UNL     1      33.128  14.626  -2.154  0.00  0.00    -0.273 OA
ENDBRANCH  33  34
BRANCH  29  38
ATOM     38  C   UNL     1      33.379  12.793   4.340  0.00  0.00    +0.391 C 
ATOM     39  O   UNL     1      34.596  12.410   4.774  0.00  0.00    -0.243 OA
ATOM     40  O   UNL     1      32.056  12.711   4.523  0.00  0.00    -0.243 OA
ENDBRANCH  29  38
ENDBRANCH  25  27
ENDBRANCH  23  25
ENDBRANCH  22  23
ENDBRANCH   2  22
TORSDOF 17
