REMARK VINA RESULT:    -7.114      1.955      3.907
REMARK INTER + INTRA:         -14.614
REMARK INTER:                 -12.831
REMARK INTRA:                  -1.783
REMARK UNBOUND:                -2.094
REMARK  Name = lig_assembled_24.pdb
REMARK  14 active torsions:
REMARK  status: ('A' for Active; 'I' for Inactive)
REMARK    1  A    between atoms: _2  and  _8
REMARK    2  A    between atoms: _5  and  _6
REMARK    3  A    between atoms: _5  and  _16
REMARK    4  A    between atoms: _8  and  _9
REMARK    5  A    between atoms: _12  and  _15
REMARK    6  A    between atoms: _13  and  _15
REMARK    7  A    between atoms: _16  and  _18
REMARK    8  A    between atoms: _17  and  _22
REMARK    9  A    between atoms: _18  and  _21
REMARK   10  A    between atoms: _26  and  _36
REMARK   11  A    between atoms: _28  and  _29
REMARK   12  A    between atoms: _30  and  _32
REMARK   13  A    between atoms: _32  and  _34
REMARK   14  A    between atoms: _34  and  _36
REMARK                            x       y       z     vdW  Elec       q    Type
REMARK                         _______ _______ _______ _____ _____    ______ ____
ROOT
ATOM      1  C   UNL     1      28.310  17.583  -0.511  0.00  0.00    +0.400 C 
ATOM      2  N   UNL     1      29.495  17.500   0.182  0.00  0.00    -0.278 N 
ATOM      3  H   UNL     1      29.453  18.337   0.845  0.00  0.00    +0.152 HD
ATOM      4  O   UNL     1      27.470  18.394  -0.126  0.00  0.00    -0.226 OA
ENDROOT
BRANCH   1   5
ATOM      5  O   UNL     1      28.206  16.806  -1.538  0.00  0.00    -0.450 OA
BRANCH   5   6
ATOM      6  C   UNL     1      27.253  15.971  -2.154  0.00  0.00    +0.240 C 
BRANCH   6   7
ATOM      7  C   UNL     1      26.490  16.537  -3.366  0.00  0.00    +0.100 C 
BRANCH   7   9
ATOM      8  N   UNL     1      25.012  15.037  -4.669  0.00  0.00    -0.134 NA
ATOM      9  C   UNL     1      25.221  15.811  -3.558  0.00  0.00    +0.086 A 
ATOM     10  C   UNL     1      24.110  15.744  -2.747  0.00  0.00    +0.134 A 
ATOM     11  N   UNL     1      23.287  14.860  -3.381  0.00  0.00    -0.247 N 
ATOM     12  N   UNL     1      23.822  14.467  -4.555  0.00  0.00    -0.065 NA
BRANCH  11  13
ATOM     13  C   UNL     1      22.022  14.274  -2.966  0.00  0.00    +0.180 C 
BRANCH  13  14
ATOM     14  C   UNL     1      22.101  13.408  -1.732  0.00  0.00    -0.026 A 
ATOM     15  C   UNL     1      23.307  12.793  -1.370  0.00  0.00    +0.009 A 
ATOM     16  C   UNL     1      23.372  11.993  -0.226  0.00  0.00    +0.046 A 
ATOM     17  C   UNL     1      22.248  11.811   0.580  0.00  0.00    +0.120 A 
ATOM     18  C   UNL     1      21.040  12.399   0.213  0.00  0.00    +0.046 A 
ATOM     19  C   UNL     1      20.966  13.195  -0.936  0.00  0.00    +0.009 A 
BRANCH  17  20
ATOM     20  O   UNL     1      22.428  10.993   1.661  0.00  0.00    -0.495 OA
ATOM     21  C   UNL     1      22.759   9.642   1.358  0.00  0.00    +0.277 C 
ENDBRANCH  17  20
ENDBRANCH  13  14
ENDBRANCH  11  13
ENDBRANCH   7   9
ENDBRANCH   6   7
ENDBRANCH   5   6
ENDBRANCH   1   5
BRANCH   2  22
ATOM     22  C   UNL     1      30.748  16.790   0.422  0.00  0.00    +0.152 C 
BRANCH  22  23
ATOM     23  C   UNL     1      30.728  15.269   0.163  0.00  0.00    +0.193 C 
ATOM     24  O   UNL     1      31.708  15.010  -0.866  0.00  0.00    -0.219 OA
BRANCH  23  25
ATOM     25  C   UNL     1      31.136  14.340   1.327  0.00  0.00    +0.212 C 
ATOM     26  O   UNL     1      31.491  15.113   2.485  0.00  0.00    -0.218 OA
BRANCH  25  27
ATOM     27  C   UNL     1      30.009  13.314   1.732  0.00  0.00    +0.171 C 
ATOM     28  O   UNL     1      28.709  13.895   1.719  0.00  0.00    -0.343 OA
ATOM     29  C   UNL     1      27.572  13.293   2.262  0.00  0.00    +0.220 C 
ATOM     30  C   UNL     1      27.813  12.815   3.705  0.00  0.00    +0.076 C 
ATOM     31  C   UNL     1      29.071  11.931   3.695  0.00  0.00    +0.177 C 
ATOM     32  O   UNL     1      29.317  11.429   5.000  0.00  0.00    -0.221 OA
ATOM     33  C   UNL     1      30.293  12.740   3.159  0.00  0.00    +0.155 C 
BRANCH  33  34
ATOM     34  N   UNL     1      31.491  11.905   3.154  0.00  0.00    -0.202 NA
ATOM     35  C   UNL     1      32.575  11.938   3.972  0.00  0.00    +0.242 C 
ATOM     36  C   UNL     1      33.533  10.776   3.935  0.00  0.00    +0.096 C 
ATOM     37  O   UNL     1      32.746  12.902   4.715  0.00  0.00    -0.273 OA
ENDBRANCH  33  34
BRANCH  29  38
ATOM     38  C   UNL     1      26.961  12.107   1.335  0.00  0.00    +0.391 C 
ATOM     39  O   UNL     1      26.128  11.427   2.145  0.00  0.00    -0.243 OA
ATOM     40  O   UNL     1      27.272  12.428   0.072  0.00  0.00    -0.243 OA
ENDBRANCH  29  38
ENDBRANCH  25  27
ENDBRANCH  23  25
ENDBRANCH  22  23
ENDBRANCH   2  22
TORSDOF 13
