REMARK VINA RESULT:    -6.230      3.679      8.098
REMARK INTER + INTRA:         -12.236
REMARK INTER:                 -11.266
REMARK INTRA:                  -0.970
REMARK UNBOUND:                -1.999
REMARK  Name = lig_assembled_57.pdb
REMARK  12 active torsions:
REMARK  status: ('A' for Active; 'I' for Inactive)
REMARK    1  A    between atoms: _2  and  _9
REMARK    2  A    between atoms: _3  and  _12
REMARK    3  A    between atoms: _6  and  _7
REMARK    4  A    between atoms: _6  and  _14
REMARK    5  A    between atoms: _14  and  _16
REMARK    6  A    between atoms: _15  and  _20
REMARK    7  A    between atoms: _16  and  _19
REMARK    8  A    between atoms: _24  and  _34
REMARK    9  A    between atoms: _26  and  _27
REMARK   10  A    between atoms: _28  and  _30
REMARK   11  A    between atoms: _30  and  _32
REMARK   12  A    between atoms: _32  and  _34
REMARK                            x       y       z     vdW  Elec       q    Type
REMARK                         _______ _______ _______ _____ _____    ______ ____
ROOT
ATOM      1  C   UNL     1      28.223  17.594  -0.582  0.00  0.00    +0.400 C 
ATOM      2  N   UNL     1      29.381  17.227   0.062  0.00  0.00    -0.278 N 
ATOM      3  H   UNL     1      29.467  17.949   0.846  0.00  0.00    +0.152 HD
ATOM      4  O   UNL     1      27.516  18.453  -0.059  0.00  0.00    -0.226 OA
ENDROOT
BRANCH   1   5
ATOM      5  O   UNL     1      28.003  17.010  -1.714  0.00  0.00    -0.450 OA
BRANCH   5   6
ATOM      6  C   UNL     1      26.980  16.896  -2.676  0.00  0.00    +0.240 C 
BRANCH   6   7
ATOM      7  C   UNL     1      26.751  15.511  -3.310  0.00  0.00    +0.100 C 
BRANCH   7   9
ATOM      8  N   UNL     1      25.602  13.830  -1.912  0.00  0.00    -0.134 NA
ATOM      9  C   UNL     1      25.528  14.901  -2.757  0.00  0.00    +0.086 A 
ATOM     10  C   UNL     1      24.205  15.250  -2.930  0.00  0.00    +0.134 A 
ATOM     11  N   UNL     1      23.528  14.412  -2.094  0.00  0.00    -0.248 N 
ATOM     12  N   UNL     1      24.371  13.515  -1.541  0.00  0.00    -0.065 NA
BRANCH  11  13
ATOM     13  C   UNL     1      22.129  14.393  -1.686  0.00  0.00    +0.111 C 
ATOM     14  C   UNL     1      21.241  15.041  -2.759  0.00  0.00    +0.042 C 
ATOM     15  C   UNL     1      21.083  14.109  -3.958  0.00  0.00    +0.086 C 
ATOM     16  N   UNL     1      20.494  12.814  -3.602  0.00  0.00    -0.305 NA
ATOM     17  C   UNL     1      21.227  12.140  -2.529  0.00  0.00    +0.086 C 
ATOM     18  C   UNL     1      19.062  12.909  -3.339  0.00  0.00    +0.104 C 
ATOM     19  C   UNL     1      21.548  13.020  -1.312  0.00  0.00    +0.042 C 
ENDBRANCH  11  13
ENDBRANCH   7   9
ENDBRANCH   6   7
ENDBRANCH   5   6
ENDBRANCH   1   5
BRANCH   2  20
ATOM     20  C   UNL     1      30.511  16.308   0.162  0.00  0.00    +0.152 C 
BRANCH  20  21
ATOM     21  C   UNL     1      30.205  14.915   0.750  0.00  0.00    +0.193 C 
ATOM     22  O   UNL     1      29.293  14.269  -0.165  0.00  0.00    -0.219 OA
BRANCH  21  23
ATOM     23  C   UNL     1      31.380  13.923   0.889  0.00  0.00    +0.212 C 
ATOM     24  O   UNL     1      32.515  14.381   0.136  0.00  0.00    -0.218 OA
BRANCH  23  25
ATOM     25  C   UNL     1      31.827  13.689   2.382  0.00  0.00    +0.171 C 
ATOM     26  O   UNL     1      33.214  13.391   2.499  0.00  0.00    -0.343 OA
ATOM     27  C   UNL     1      33.822  12.907   3.659  0.00  0.00    +0.220 C 
ATOM     28  C   UNL     1      33.073  11.690   4.230  0.00  0.00    +0.076 C 
ATOM     29  C   UNL     1      31.597  12.088   4.390  0.00  0.00    +0.177 C 
ATOM     30  O   UNL     1      30.865  11.009   4.953  0.00  0.00    -0.221 OA
ATOM     31  C   UNL     1      31.004  12.518   3.012  0.00  0.00    +0.155 C 
BRANCH  31  32
ATOM     32  N   UNL     1      29.599  12.891   3.159  0.00  0.00    -0.202 NA
ATOM     33  C   UNL     1      28.485  12.280   2.682  0.00  0.00    +0.242 C 
ATOM     34  C   UNL     1      27.146  12.706   3.226  0.00  0.00    +0.096 C 
ATOM     35  O   UNL     1      28.592  11.402   1.828  0.00  0.00    -0.273 OA
ENDBRANCH  31  32
BRANCH  27  36
ATOM     36  C   UNL     1      34.056  14.048   4.792  0.00  0.00    +0.391 C 
ATOM     37  O   UNL     1      34.188  15.199   4.103  0.00  0.00    -0.243 OA
ATOM     38  O   UNL     1      33.734  13.481   5.961  0.00  0.00    -0.243 OA
ENDBRANCH  27  36
ENDBRANCH  23  25
ENDBRANCH  21  23
ENDBRANCH  20  21
ENDBRANCH   2  20
TORSDOF 11
