REMARK VINA RESULT:    -6.486      1.619      3.595
REMARK INTER + INTRA:         -16.995
REMARK INTER:                 -13.739
REMARK INTRA:                  -3.256
REMARK UNBOUND:                -2.358
REMARK  Name = lig_assembled_30.pdb
REMARK  22 active torsions:
REMARK  status: ('A' for Active; 'I' for Inactive)
REMARK    1  A    between atoms: _2  and  _8
REMARK    2  A    between atoms: _4  and  _17
REMARK    3  A    between atoms: _4  and  _18
REMARK    4  A    between atoms: _5  and  _6
REMARK    5  A    between atoms: _5  and  _20
REMARK    6  A    between atoms: _8  and  _9
REMARK    7  A    between atoms: _9  and  _10
REMARK    8  A    between atoms: _10  and  _11
REMARK    9  A    between atoms: _11  and  _12
REMARK   10  A    between atoms: _12  and  _13
REMARK   11  A    between atoms: _13  and  _14
REMARK   12  A    between atoms: _14  and  _15
REMARK   13  A    between atoms: _15  and  _16
REMARK   14  A    between atoms: _16  and  _17
REMARK   15  A    between atoms: _20  and  _22
REMARK   16  A    between atoms: _21  and  _26
REMARK   17  A    between atoms: _22  and  _25
REMARK   18  A    between atoms: _30  and  _40
REMARK   19  A    between atoms: _32  and  _33
REMARK   20  A    between atoms: _34  and  _36
REMARK   21  A    between atoms: _36  and  _38
REMARK   22  A    between atoms: _38  and  _40
REMARK                            x       y       z     vdW  Elec       q    Type
REMARK                         _______ _______ _______ _____ _____    ______ ____
ROOT
ATOM      1  C   UNL     1      27.461  14.622  -2.147  0.00  0.00    +0.400 C 
ATOM      2  N   UNL     1      28.212  15.175  -1.137  0.00  0.00    -0.278 N 
ATOM      3  H   UNL     1      28.784  14.348  -0.772  0.00  0.00    +0.152 HD
ATOM      4  O   UNL     1      27.722  13.475  -2.501  0.00  0.00    -0.226 OA
ENDROOT
BRANCH   1   5
ATOM      5  O   UNL     1      26.515  15.369  -2.614  0.00  0.00    -0.450 OA
BRANCH   5   6
ATOM      6  C   UNL     1      26.073  15.886  -3.848  0.00  0.00    +0.240 C 
BRANCH   6   7
ATOM      7  C   UNL     1      25.134  15.004  -4.693  0.00  0.00    +0.100 C 
BRANCH   7   9
ATOM      8  N   UNL     1      23.210  15.772  -3.338  0.00  0.00    -0.134 NA
ATOM      9  C   UNL     1      23.877  14.753  -3.967  0.00  0.00    +0.086 A 
ATOM     10  C   UNL     1      23.182  13.578  -3.780  0.00  0.00    +0.133 A 
ATOM     11  N   UNL     1      22.106  13.951  -3.033  0.00  0.00    -0.251 N 
ATOM     12  N   UNL     1      22.125  15.267  -2.766  0.00  0.00    -0.065 NA
BRANCH  11  13
ATOM     13  C   UNL     1      21.056  13.109  -2.506  0.00  0.00    +0.145 C 
BRANCH  13  14
ATOM     14  C   UNL     1      20.399  13.745  -1.286  0.00  0.00    +0.023 C 
BRANCH  14  15
ATOM     15  C   UNL     1      20.687  12.960  -0.008  0.00  0.00    +0.002 C 
BRANCH  15  16
ATOM     16  C   UNL     1      21.426  11.663  -0.341  0.00  0.00    +0.000 C 
BRANCH  16  17
ATOM     17  C   UNL     1      22.575  11.401   0.628  0.00  0.00    +0.000 C 
BRANCH  17  18
ATOM     18  C   UNL     1      22.041  11.018   2.011  0.00  0.00    +0.000 C 
BRANCH  18  19
ATOM     19  C   UNL     1      23.114  10.310   2.832  0.00  0.00    +0.000 C 
BRANCH  19  20
ATOM     20  C   UNL     1      24.441  10.228   2.075  0.00  0.00    +0.001 C 
BRANCH  20  21
ATOM     21  C   UNL     1      25.570  10.831   2.910  0.00  0.00    +0.011 C 
BRANCH  21  22
ATOM     22  C   UNL     1      26.711  11.345   2.037  0.00  0.00    +0.120 C 
BRANCH  22  23
ATOM     23  C   UNL     1      27.091  12.763   2.403  0.00  0.00    +0.305 C 
ATOM     24  O   UNL     1      27.179  13.202   3.539  0.00  0.00    -0.251 OA
BRANCH  23  25
ATOM     25  O   UNL     1      27.333  13.528   1.315  0.00  0.00    -0.481 OA
ATOM     26  H   UNL     1      28.053  13.189   0.749  0.00  0.00    +0.295 HD
ENDBRANCH  23  25
ENDBRANCH  22  23
ENDBRANCH  21  22
ENDBRANCH  20  21
ENDBRANCH  19  20
ENDBRANCH  18  19
ENDBRANCH  17  18
ENDBRANCH  16  17
ENDBRANCH  15  16
ENDBRANCH  14  15
ENDBRANCH  13  14
ENDBRANCH  11  13
ENDBRANCH   7   9
ENDBRANCH   6   7
ENDBRANCH   5   6
ENDBRANCH   1   5
BRANCH   2  27
ATOM     27  C   UNL     1      28.581  16.360  -0.366  0.00  0.00    +0.152 C 
BRANCH  27  28
ATOM     28  C   UNL     1      30.091  16.579  -0.138  0.00  0.00    +0.193 C 
ATOM     29  O   UNL     1      30.228  17.845   0.545  0.00  0.00    -0.219 OA
BRANCH  28  30
ATOM     30  C   UNL     1      30.831  15.570   0.768  0.00  0.00    +0.212 C 
ATOM     31  O   UNL     1      29.890  14.759   1.489  0.00  0.00    -0.218 OA
BRANCH  30  32
ATOM     32  C   UNL     1      31.811  14.622  -0.024  0.00  0.00    +0.171 C 
ATOM     33  O   UNL     1      31.212  14.067  -1.191  0.00  0.00    -0.343 OA
ATOM     34  C   UNL     1      31.759  13.019  -1.935  0.00  0.00    +0.220 C 
ATOM     35  C   UNL     1      32.145  11.827  -1.043  0.00  0.00    +0.076 C 
ATOM     36  C   UNL     1      33.047  12.362   0.081  0.00  0.00    +0.177 C 
ATOM     37  O   UNL     1      33.466  11.291   0.915  0.00  0.00    -0.221 OA
ATOM     38  C   UNL     1      32.294  13.456   0.900  0.00  0.00    +0.155 C 
BRANCH  38  39
ATOM     39  N   UNL     1      33.145  13.963   1.973  0.00  0.00    -0.202 NA
ATOM     40  C   UNL     1      33.072  13.752   3.312  0.00  0.00    +0.242 C 
ATOM     41  C   UNL     1      34.248  14.152   4.165  0.00  0.00    +0.096 C 
ATOM     42  O   UNL     1      32.061  13.243   3.793  0.00  0.00    -0.273 OA
ENDBRANCH  38  39
BRANCH  34  43
ATOM     43  C   UNL     1      32.994  13.477  -2.886  0.00  0.00    +0.391 C 
ATOM     44  O   UNL     1      33.044  12.548  -3.861  0.00  0.00    -0.243 OA
ATOM     45  O   UNL     1      33.291  14.732  -2.528  0.00  0.00    -0.243 OA
ENDBRANCH  34  43
ENDBRANCH  30  32
ENDBRANCH  28  30
ENDBRANCH  27  28
ENDBRANCH   2  27
TORSDOF 22
