REMARK VINA RESULT:    -7.451      1.502      3.382
REMARK INTER + INTRA:         -14.916
REMARK INTER:                 -13.579
REMARK INTRA:                  -1.337
REMARK UNBOUND:                -1.585
REMARK  Name = lig_assembled_16.pdb
REMARK  14 active torsions:
REMARK  status: ('A' for Active; 'I' for Inactive)
REMARK    1  A    between atoms: _2  and  _8
REMARK    2  A    between atoms: _5  and  _6
REMARK    3  A    between atoms: _5  and  _17
REMARK    4  A    between atoms: _8  and  _9
REMARK    5  A    between atoms: _12  and  _13
REMARK    6  A    between atoms: _13  and  _15
REMARK    7  A    between atoms: _17  and  _19
REMARK    8  A    between atoms: _18  and  _23
REMARK    9  A    between atoms: _19  and  _22
REMARK   10  A    between atoms: _27  and  _37
REMARK   11  A    between atoms: _29  and  _30
REMARK   12  A    between atoms: _31  and  _33
REMARK   13  A    between atoms: _33  and  _35
REMARK   14  A    between atoms: _35  and  _37
REMARK                            x       y       z     vdW  Elec       q    Type
REMARK                         _______ _______ _______ _____ _____    ______ ____
ROOT
ATOM      1  C   UNL     1      28.461  16.785  -0.596  0.00  0.00    +0.400 C 
ATOM      2  N   UNL     1      28.628  15.746   0.289  0.00  0.00    -0.278 N 
ATOM      3  H   UNL     1      29.273  16.157   1.035  0.00  0.00    +0.152 HD
ATOM      4  O   UNL     1      28.883  17.893  -0.275  0.00  0.00    -0.226 OA
ENDROOT
BRANCH   2   5
ATOM      5  C   UNL     1      28.314  14.370   0.666  0.00  0.00    +0.152 C 
BRANCH   5   6
ATOM      6  C   UNL     1      28.633  13.975   2.123  0.00  0.00    +0.193 C 
ATOM      7  O   UNL     1      27.503  13.213   2.603  0.00  0.00    -0.219 OA
BRANCH   6   8
ATOM      8  C   UNL     1      29.849  13.054   2.364  0.00  0.00    +0.212 C 
ATOM      9  O   UNL     1      29.581  11.730   1.877  0.00  0.00    -0.218 OA
BRANCH   8  10
ATOM     10  C   UNL     1      31.174  13.580   1.691  0.00  0.00    +0.171 C 
ATOM     11  O   UNL     1      31.159  13.445   0.273  0.00  0.00    -0.343 OA
ATOM     12  C   UNL     1      32.280  13.601  -0.545  0.00  0.00    +0.220 C 
ATOM     13  C   UNL     1      33.471  12.764  -0.047  0.00  0.00    +0.076 C 
ATOM     14  C   UNL     1      33.696  13.115   1.433  0.00  0.00    +0.177 C 
ATOM     15  O   UNL     1      34.815  12.396   1.933  0.00  0.00    -0.221 OA
ATOM     16  C   UNL     1      32.409  12.808   2.260  0.00  0.00    +0.155 C 
BRANCH  16  17
ATOM     17  N   UNL     1      32.621  13.134   3.668  0.00  0.00    -0.202 NA
ATOM     18  C   UNL     1      32.649  12.318   4.752  0.00  0.00    +0.242 C 
ATOM     19  C   UNL     1      33.180  12.871   6.050  0.00  0.00    +0.096 C 
ATOM     20  O   UNL     1      32.246  11.161   4.653  0.00  0.00    -0.273 OA
ENDBRANCH  16  17
BRANCH  12  21
ATOM     21  C   UNL     1      32.698  15.153  -0.781  0.00  0.00    +0.391 C 
ATOM     22  O   UNL     1      33.850  15.101  -1.476  0.00  0.00    -0.243 OA
ATOM     23  O   UNL     1      31.616  15.879  -0.472  0.00  0.00    -0.243 OA
ENDBRANCH  12  21
ENDBRANCH   8  10
ENDBRANCH   6   8
ENDBRANCH   5   6
ENDBRANCH   2   5
BRANCH   1  24
ATOM     24  O   UNL     1      27.892  16.480  -1.716  0.00  0.00    -0.450 OA
BRANCH  24  25
ATOM     25  C   UNL     1      26.815  16.906  -2.518  0.00  0.00    +0.240 C 
BRANCH  25  26
ATOM     26  C   UNL     1      26.531  16.112  -3.807  0.00  0.00    +0.100 C 
BRANCH  26  28
ATOM     27  N   UNL     1      24.698  14.755  -4.775  0.00  0.00    -0.134 NA
ATOM     28  C   UNL     1      25.146  15.608  -3.800  0.00  0.00    +0.086 A 
ATOM     29  C   UNL     1      24.129  15.836  -2.900  0.00  0.00    +0.134 A 
ATOM     30  N   UNL     1      23.126  15.021  -3.331  0.00  0.00    -0.247 N 
ATOM     31  N   UNL     1      23.450  14.413  -4.487  0.00  0.00    -0.065 NA
BRANCH  30  32
ATOM     32  C   UNL     1      21.855  14.754  -2.687  0.00  0.00    +0.180 C 
BRANCH  32  33
ATOM     33  C   UNL     1      22.003  13.737  -1.578  0.00  0.00    -0.026 A 
ATOM     34  C   UNL     1      23.259  13.202  -1.260  0.00  0.00    +0.006 A 
ATOM     35  C   UNL     1      23.396  12.292  -0.209  0.00  0.00    +0.015 A 
ATOM     36  C   UNL     1      22.279  11.893   0.529  0.00  0.00    +0.059 A 
ATOM     37  C   UNL     1      21.013  12.405   0.208  0.00  0.00    +0.015 A 
ATOM     38  C   UNL     1      20.880  13.312  -0.849  0.00  0.00    +0.006 A 
BRANCH  36  39
ATOM     39  C   UNL     1      22.492  10.979   1.684  0.00  0.00    +0.337 C 
ATOM     40  O   UNL     1      21.666  10.150   2.025  0.00  0.00    -0.245 OA
BRANCH  39  41
ATOM     41  O   UNL     1      23.656  11.174   2.333  0.00  0.00    -0.477 OA
ATOM     42  H   UNL     1      23.962  10.421   2.872  0.00  0.00    +0.295 HD
ENDBRANCH  39  41
ENDBRANCH  36  39
ENDBRANCH  32  33
ENDBRANCH  30  32
ENDBRANCH  26  28
ENDBRANCH  25  26
ENDBRANCH  24  25
ENDBRANCH   1  24
TORSDOF 14
