REMARK VINA RESULT:    -5.757      2.516      3.798
REMARK INTER + INTRA:         -12.474
REMARK INTER:                 -10.436
REMARK INTRA:                  -2.038
REMARK UNBOUND:                -2.511
REMARK  Name = lig_assembled_1.pdb
REMARK  13 active torsions:
REMARK  status: ('A' for Active; 'I' for Inactive)
REMARK    1  A    between atoms: _2  and  _8
REMARK    2  A    between atoms: _4  and  _8
REMARK    3  A    between atoms: _4  and  _9
REMARK    4  A    between atoms: _5  and  _6
REMARK    5  A    between atoms: _5  and  _10
REMARK    6  A    between atoms: _10  and  _12
REMARK    7  A    between atoms: _11  and  _16
REMARK    8  A    between atoms: _12  and  _15
REMARK    9  A    between atoms: _20  and  _30
REMARK   10  A    between atoms: _22  and  _23
REMARK   11  A    between atoms: _24  and  _26
REMARK   12  A    between atoms: _26  and  _28
REMARK   13  A    between atoms: _28  and  _30
REMARK                            x       y       z     vdW  Elec       q    Type
REMARK                         _______ _______ _______ _____ _____    ______ ____
ROOT
ATOM      1  C   UNL     1      31.072  14.823  -0.122  0.00  0.00    +0.193 C 
ATOM      2  O   UNL     1      31.578  16.064  -0.661  0.00  0.00    -0.219 OA
ENDROOT
BRANCH   1   3
ATOM      3  C   UNL     1      31.673  14.746   1.299  0.00  0.00    +0.212 C 
ATOM      4  O   UNL     1      31.248  15.871   2.085  0.00  0.00    -0.218 OA
BRANCH   3   5
ATOM      5  C   UNL     1      31.295  13.422   2.066  0.00  0.00    +0.171 C 
ATOM      6  O   UNL     1      30.040  13.515   2.733  0.00  0.00    -0.343 OA
ATOM      7  C   UNL     1      29.578  12.594   3.675  0.00  0.00    +0.220 C 
ATOM      8  C   UNL     1      30.625  12.322   4.769  0.00  0.00    +0.076 C 
ATOM      9  C   UNL     1      31.936  11.929   4.068  0.00  0.00    +0.177 C 
ATOM     10  O   UNL     1      32.930  11.628   5.037  0.00  0.00    -0.221 OA
ATOM     11  C   UNL     1      32.401  13.075   3.116  0.00  0.00    +0.155 C 
BRANCH  11  12
ATOM     12  N   UNL     1      33.649  12.708   2.453  0.00  0.00    -0.202 NA
ATOM     13  C   UNL     1      34.871  13.296   2.516  0.00  0.00    +0.242 C 
ATOM     14  C   UNL     1      36.056  12.544   1.968  0.00  0.00    +0.096 C 
ATOM     15  O   UNL     1      34.982  14.414   3.015  0.00  0.00    -0.273 OA
ENDBRANCH  11  12
BRANCH   7  16
ATOM     16  C   UNL     1      29.032  11.213   3.016  0.00  0.00    +0.391 C 
ATOM     17  O   UNL     1      28.805  11.511   1.722  0.00  0.00    -0.243 OA
ATOM     18  O   UNL     1      29.295  10.248   3.907  0.00  0.00    -0.243 OA
ENDBRANCH   7  16
ENDBRANCH   3   5
ENDBRANCH   1   3
BRANCH   1  19
ATOM     19  C   UNL     1      29.535  14.880  -0.245  0.00  0.00    +0.152 C 
BRANCH  19  21
ATOM     20  C   UNL     1      28.206  17.222  -0.683  0.00  0.00    +0.400 C 
ATOM     21  N   UNL     1      28.928  16.201  -0.111  0.00  0.00    -0.278 N 
ATOM     22  H   UNL     1      29.103  16.550   0.884  0.00  0.00    +0.152 HD
ATOM     23  O   UNL     1      27.798  18.123   0.046  0.00  0.00    -0.226 OA
BRANCH  20  24
ATOM     24  O   UNL     1      28.050  17.148  -1.964  0.00  0.00    -0.450 OA
BRANCH  24  25
ATOM     25  C   UNL     1      27.117  17.521  -2.950  0.00  0.00    +0.240 C 
BRANCH  25  26
ATOM     26  C   UNL     1      26.573  16.412  -3.871  0.00  0.00    +0.100 C 
BRANCH  26  28
ATOM     27  N   UNL     1      27.150  14.153  -3.036  0.00  0.00    -0.134 NA
ATOM     28  C   UNL     1      26.267  15.200  -3.089  0.00  0.00    +0.086 A 
ATOM     29  C   UNL     1      25.159  14.892  -2.333  0.00  0.00    +0.133 A 
ATOM     30  N   UNL     1      25.425  13.645  -1.852  0.00  0.00    -0.249 N 
ATOM     31  N   UNL     1      26.619  13.202  -2.279  0.00  0.00    -0.065 NA
BRANCH  30  32
ATOM     32  C   UNL     1      24.603  12.830  -0.986  0.00  0.00    +0.173 C 
BRANCH  32  33
ATOM     33  C   UNL     1      25.421  12.045   0.032  0.00  0.00    +0.179 C 
BRANCH  33  34
ATOM     34  O   UNL     1      26.399  12.875   0.656  0.00  0.00    -0.393 OA
ATOM     35  H   UNL     1      26.695  13.519  -0.016  0.00  0.00    +0.209 HD
ENDBRANCH  33  34
ENDBRANCH  32  33
ENDBRANCH  30  32
ENDBRANCH  26  28
ENDBRANCH  25  26
ENDBRANCH  24  25
ENDBRANCH  20  24
ENDBRANCH  19  21
ENDBRANCH   1  19
TORSDOF 13
