REMARK VINA RESULT:    -6.391      3.073      9.346
REMARK INTER + INTRA:         -13.606
REMARK INTER:                 -10.874
REMARK INTRA:                  -2.732
REMARK UNBOUND:                -2.732
REMARK  Name = lig_assembled_85.pdb
REMARK  14 active torsions:
REMARK  status: ('A' for Active; 'I' for Inactive)
REMARK    1  A    between atoms: _2  and  _9
REMARK    2  A    between atoms: _3  and  _5
REMARK    3  A    between atoms: _3  and  _16
REMARK    4  A    between atoms: _6  and  _7
REMARK    5  A    between atoms: _6  and  _18
REMARK    6  A    between atoms: _14  and  _15
REMARK    7  A    between atoms: _18  and  _20
REMARK    8  A    between atoms: _19  and  _24
REMARK    9  A    between atoms: _20  and  _23
REMARK   10  A    between atoms: _28  and  _38
REMARK   11  A    between atoms: _30  and  _31
REMARK   12  A    between atoms: _32  and  _34
REMARK   13  A    between atoms: _34  and  _36
REMARK   14  A    between atoms: _36  and  _38
REMARK                            x       y       z     vdW  Elec       q    Type
REMARK                         _______ _______ _______ _____ _____    ______ ____
ROOT
ATOM      1  C   UNL     1      24.780   8.724   1.125  0.00  0.00    +0.400 C 
ATOM      2  N   UNL     1      23.992   9.582   0.395  0.00  0.00    -0.278 N 
ATOM      3  H   UNL     1      23.877   9.076  -0.540  0.00  0.00    +0.152 HD
ATOM      4  O   UNL     1      24.995   7.604   0.669  0.00  0.00    -0.226 OA
ENDROOT
BRANCH   2   5
ATOM      5  C   UNL     1      23.247  10.837   0.330  0.00  0.00    +0.152 C 
BRANCH   5   6
ATOM      6  C   UNL     1      23.886  11.963  -0.509  0.00  0.00    +0.193 C 
ATOM      7  O   UNL     1      24.986  12.486   0.268  0.00  0.00    -0.219 OA
BRANCH   6   8
ATOM      8  C   UNL     1      24.519  11.575  -1.863  0.00  0.00    +0.212 C 
ATOM      9  O   UNL     1      23.730  10.568  -2.516  0.00  0.00    -0.218 OA
BRANCH   8  10
ATOM     10  C   UNL     1      24.691  12.796  -2.845  0.00  0.00    +0.171 C 
ATOM     11  O   UNL     1      25.953  13.440  -2.703  0.00  0.00    -0.343 OA
ATOM     12  C   UNL     1      26.274  14.678  -3.265  0.00  0.00    +0.220 C 
ATOM     13  C   UNL     1      25.211  15.743  -2.943  0.00  0.00    +0.076 C 
ATOM     14  C   UNL     1      23.845  15.176  -3.363  0.00  0.00    +0.177 C 
ATOM     15  O   UNL     1      22.829  16.139  -3.123  0.00  0.00    -0.221 OA
ATOM     16  C   UNL     1      23.557  13.846  -2.600  0.00  0.00    +0.155 C 
BRANCH  16  17
ATOM     17  N   UNL     1      22.257  13.307  -2.991  0.00  0.00    -0.202 NA
ATOM     18  C   UNL     1      21.047  13.437  -2.390  0.00  0.00    +0.242 C 
ATOM     19  C   UNL     1      19.818  13.029  -3.160  0.00  0.00    +0.096 C 
ATOM     20  O   UNL     1      20.982  13.880  -1.245  0.00  0.00    -0.273 OA
ENDBRANCH  16  17
BRANCH  12  21
ATOM     21  C   UNL     1      26.582  14.606  -4.858  0.00  0.00    +0.391 C 
ATOM     22  O   UNL     1      26.342  15.850  -5.316  0.00  0.00    -0.243 OA
ATOM     23  O   UNL     1      27.233  13.453  -5.057  0.00  0.00    -0.243 OA
ENDBRANCH  12  21
ENDBRANCH   8  10
ENDBRANCH   6   8
ENDBRANCH   5   6
ENDBRANCH   2   5
BRANCH   1  24
ATOM     24  O   UNL     1      25.253   9.202   2.230  0.00  0.00    -0.450 OA
BRANCH  24  25
ATOM     25  C   UNL     1      26.321  10.006   2.675  0.00  0.00    +0.240 C 
BRANCH  25  26
ATOM     26  C   UNL     1      27.486  10.248   1.696  0.00  0.00    +0.100 C 
BRANCH  26  28
ATOM     27  N   UNL     1      27.589  12.499   2.704  0.00  0.00    -0.134 NA
ATOM     28  C   UNL     1      27.807  11.683   1.631  0.00  0.00    +0.086 A 
ATOM     29  C   UNL     1      28.385  12.413   0.615  0.00  0.00    +0.139 A 
ATOM     30  N   UNL     1      28.506  13.683   1.125  0.00  0.00    -0.219 N 
ATOM     31  N   UNL     1      28.043  13.705   2.397  0.00  0.00    -0.061 NA
BRANCH  30  32
ATOM     32  C   UNL     1      29.097  14.828   0.551  0.00  0.00    +0.080 A 
ATOM     33  C   UNL     1      30.437  15.204   0.738  0.00  0.00    +0.062 A 
ATOM     34  C   UNL     1      30.821  16.496   0.313  0.00  0.00    +0.016 A 
ATOM     35  C   UNL     1      29.919  17.374  -0.298  0.00  0.00    +0.021 A 
ATOM     36  C   UNL     1      28.619  16.956  -0.540  0.00  0.00    +0.043 A 
ATOM     37 CL   UNL     1      27.488  18.034  -1.258  0.00  0.00    -0.083 Cl
ATOM     38  C   UNL     1      28.213  15.684  -0.146  0.00  0.00    +0.048 A 
BRANCH  33  39
ATOM     39  C   UNL     1      31.531  14.444   1.410  0.00  0.00    +0.248 C 
ATOM     40  O   UNL     1      31.770  14.791   2.570  0.00  0.00    -0.270 OA
ATOM     41  N   UNL     1      32.294  13.454   0.782  0.00  0.00    -0.304 N 
ATOM     42  C   UNL     1      32.066  12.841  -0.519  0.00  0.00    +0.132 C 
ATOM     43  C   UNL     1      33.331  12.822   1.592  0.00  0.00    +0.132 C 
ENDBRANCH  33  39
ENDBRANCH  30  32
ENDBRANCH  26  28
ENDBRANCH  25  26
ENDBRANCH  24  25
ENDBRANCH   1  24
TORSDOF 12
