REMARK VINA RESULT:    -6.268      2.896      5.181
REMARK INTER + INTRA:         -12.490
REMARK INTER:                 -10.983
REMARK INTRA:                  -1.507
REMARK UNBOUND:                -2.191
REMARK  Name = lig_assembled_93.pdb
REMARK  11 active torsions:
REMARK  status: ('A' for Active; 'I' for Inactive)
REMARK    1  A    between atoms: _2  and  _8
REMARK    2  A    between atoms: _5  and  _6
REMARK    3  A    between atoms: _5  and  _13
REMARK    4  A    between atoms: _13  and  _15
REMARK    5  A    between atoms: _14  and  _19
REMARK    6  A    between atoms: _15  and  _18
REMARK    7  A    between atoms: _23  and  _33
REMARK    8  A    between atoms: _25  and  _26
REMARK    9  A    between atoms: _27  and  _29
REMARK   10  A    between atoms: _29  and  _31
REMARK   11  A    between atoms: _31  and  _33
REMARK                            x       y       z     vdW  Elec       q    Type
REMARK                         _______ _______ _______ _____ _____    ______ ____
ROOT
ATOM      1  C   UNL     1      23.622  10.797   1.721  0.00  0.00    +0.400 C 
ATOM      2  N   UNL     1      24.989  10.904   1.814  0.00  0.00    -0.278 N 
ATOM      3  H   UNL     1      25.171  10.844   2.866  0.00  0.00    +0.152 HD
ATOM      4  O   UNL     1      22.994  10.494   2.732  0.00  0.00    -0.226 OA
ENDROOT
BRANCH   1   5
ATOM      5  O   UNL     1      23.117  11.061   0.560  0.00  0.00    -0.450 OA
BRANCH   5   6
ATOM      6  C   UNL     1      21.855  11.188  -0.052  0.00  0.00    +0.240 C 
BRANCH   6   7
ATOM      7  C   UNL     1      21.209  12.586  -0.066  0.00  0.00    +0.100 C 
BRANCH   7   9
ATOM      8  N   UNL     1      21.028  14.325  -1.807  0.00  0.00    -0.134 NA
ATOM      9  C   UNL     1      21.781  13.403  -1.152  0.00  0.00    +0.086 A 
ATOM     10  C   UNL     1      23.053  13.413  -1.676  0.00  0.00    +0.139 A 
ATOM     11  N   UNL     1      23.042  14.391  -2.659  0.00  0.00    -0.219 N 
ATOM     12  N   UNL     1      21.796  14.910  -2.714  0.00  0.00    -0.061 NA
BRANCH  11  13
ATOM     13  C   UNL     1      24.126  14.824  -3.486  0.00  0.00    +0.080 A 
ATOM     14  C   UNL     1      24.920  15.897  -3.016  0.00  0.00    +0.029 A 
ATOM     15  C   UNL     1      25.989  16.404  -3.760  0.00  0.00    +0.002 A 
ATOM     16  C   UNL     1      26.295  15.855  -4.994  0.00  0.00    +0.001 A 
ATOM     17  C   UNL     1      25.534  14.794  -5.479  0.00  0.00    +0.016 A 
ATOM     18  C   UNL     1      24.453  14.268  -4.741  0.00  0.00    +0.039 A 
ATOM     19  I   UNL     1      23.502  12.662  -5.739  0.00  0.00    -0.042 I 
ENDBRANCH  11  13
ENDBRANCH   7   9
ENDBRANCH   6   7
ENDBRANCH   5   6
ENDBRANCH   1   5
BRANCH   2  20
ATOM     20  C   UNL     1      26.275  11.046   1.136  0.00  0.00    +0.152 C 
BRANCH  20  21
ATOM     21  C   UNL     1      27.446  11.557   2.001  0.00  0.00    +0.193 C 
ATOM     22  O   UNL     1      28.652  10.990   1.443  0.00  0.00    -0.219 OA
BRANCH  21  23
ATOM     23  C   UNL     1      27.709  13.079   2.021  0.00  0.00    +0.212 C 
ATOM     24  O   UNL     1      27.532  13.601   3.348  0.00  0.00    -0.218 OA
BRANCH  23  25
ATOM     25  C   UNL     1      29.149  13.470   1.514  0.00  0.00    +0.171 C 
ATOM     26  O   UNL     1      30.056  13.725   2.581  0.00  0.00    -0.343 OA
ATOM     27  C   UNL     1      31.311  14.319   2.426  0.00  0.00    +0.220 C 
ATOM     28  C   UNL     1      31.227  15.624   1.614  0.00  0.00    +0.076 C 
ATOM     29  C   UNL     1      30.494  15.305   0.301  0.00  0.00    +0.177 C 
ATOM     30  O   UNL     1      30.424  16.472  -0.507  0.00  0.00    -0.221 OA
ATOM     31  C   UNL     1      29.071  14.739   0.603  0.00  0.00    +0.155 C 
BRANCH  31  32
ATOM     32  N   UNL     1      28.369  14.442  -0.643  0.00  0.00    -0.202 NA
ATOM     33  C   UNL     1      28.636  13.505  -1.588  0.00  0.00    +0.242 C 
ATOM     34  C   UNL     1      27.584  13.216  -2.626  0.00  0.00    +0.096 C 
ATOM     35  O   UNL     1      29.717  12.920  -1.574  0.00  0.00    -0.273 OA
ENDBRANCH  31  32
BRANCH  27  36
ATOM     36  C   UNL     1      32.433  13.312   1.822  0.00  0.00    +0.391 C 
ATOM     37  O   UNL     1      33.122  14.052   0.932  0.00  0.00    -0.243 OA
ATOM     38  O   UNL     1      32.449  12.247   2.633  0.00  0.00    -0.243 OA
ENDBRANCH  27  36
ENDBRANCH  23  25
ENDBRANCH  21  23
ENDBRANCH  20  21
ENDBRANCH   2  20
TORSDOF 11
