REMARK VINA RESULT:    -5.792      2.338      3.268
REMARK INTER + INTRA:         -12.838
REMARK INTER:                 -10.898
REMARK INTRA:                  -1.940
REMARK UNBOUND:                -1.966
REMARK  Name = lig_assembled_17.pdb
REMARK  17 active torsions:
REMARK  status: ('A' for Active; 'I' for Inactive)
REMARK    1  A    between atoms: _2  and  _9
REMARK    2  A    between atoms: _3  and  _10
REMARK    3  A    between atoms: _3  and  _11
REMARK    4  A    between atoms: _3  and  _13
REMARK    5  A    between atoms: _5  and  _13
REMARK    6  A    between atoms: _6  and  _7
REMARK    7  A    between atoms: _6  and  _14
REMARK    8  A    between atoms: _9  and  _10
REMARK    9  A    between atoms: _11  and  _12
REMARK   10  A    between atoms: _14  and  _16
REMARK   11  A    between atoms: _15  and  _20
REMARK   12  A    between atoms: _16  and  _19
REMARK   13  A    between atoms: _24  and  _34
REMARK   14  A    between atoms: _26  and  _27
REMARK   15  A    between atoms: _28  and  _30
REMARK   16  A    between atoms: _30  and  _32
REMARK   17  A    between atoms: _32  and  _34
REMARK                            x       y       z     vdW  Elec       q    Type
REMARK                         _______ _______ _______ _____ _____    ______ ____
ROOT
ATOM      1  C   UNL     1      27.779  17.488  -0.897  0.00  0.00    +0.400 C 
ATOM      2  N   UNL     1      28.480  16.568  -0.153  0.00  0.00    -0.278 N 
ATOM      3  H   UNL     1      28.671  17.085   0.763  0.00  0.00    +0.152 HD
ATOM      4  O   UNL     1      27.399  18.515  -0.340  0.00  0.00    -0.226 OA
ENDROOT
BRANCH   2   5
ATOM      5  C   UNL     1      29.054  15.229  -0.050  0.00  0.00    +0.152 C 
BRANCH   5   6
ATOM      6  C   UNL     1      30.587  15.158   0.105  0.00  0.00    +0.193 C 
ATOM      7  O   UNL     1      31.041  16.502   0.376  0.00  0.00    -0.219 OA
BRANCH   6   8
ATOM      8  C   UNL     1      31.149  14.319   1.274  0.00  0.00    +0.212 C 
ATOM      9  O   UNL     1      31.474  15.165   2.389  0.00  0.00    -0.218 OA
BRANCH   8  10
ATOM     10  C   UNL     1      30.161  13.194   1.767  0.00  0.00    +0.171 C 
ATOM     11  O   UNL     1      29.952  13.227   3.175  0.00  0.00    -0.343 OA
ATOM     12  C   UNL     1      29.327  12.212   3.903  0.00  0.00    +0.220 C 
ATOM     13  C   UNL     1      29.931  10.832   3.592  0.00  0.00    +0.076 C 
ATOM     14  C   UNL     1      29.901  10.646   2.066  0.00  0.00    +0.177 C 
ATOM     15  O   UNL     1      30.413   9.366   1.726  0.00  0.00    -0.221 OA
ATOM     16  C   UNL     1      30.711  11.784   1.370  0.00  0.00    +0.155 C 
BRANCH  16  17
ATOM     17  N   UNL     1      30.690  11.608  -0.080  0.00  0.00    -0.202 NA
ATOM     18  C   UNL     1      29.649  11.676  -0.947  0.00  0.00    +0.242 C 
ATOM     19  C   UNL     1      29.949  11.748  -2.422  0.00  0.00    +0.096 C 
ATOM     20  O   UNL     1      28.497  11.680  -0.516  0.00  0.00    -0.273 OA
ENDBRANCH  16  17
BRANCH  12  21
ATOM     21  C   UNL     1      27.710  12.205   3.746  0.00  0.00    +0.391 C 
ATOM     22  O   UNL     1      27.343  10.931   3.988  0.00  0.00    -0.243 OA
ATOM     23  O   UNL     1      27.333  13.489   3.738  0.00  0.00    -0.243 OA
ENDBRANCH  12  21
ENDBRANCH   8  10
ENDBRANCH   6   8
ENDBRANCH   5   6
ENDBRANCH   2   5
BRANCH   1  24
ATOM     24  O   UNL     1      27.612  17.189  -2.143  0.00  0.00    -0.450 OA
BRANCH  24  25
ATOM     25  C   UNL     1      26.698  17.432  -3.187  0.00  0.00    +0.240 C 
BRANCH  25  26
ATOM     26  C   UNL     1      26.552  16.347  -4.271  0.00  0.00    +0.100 C 
BRANCH  26  28
ATOM     27  N   UNL     1      26.880  14.176  -3.135  0.00  0.00    -0.134 NA
ATOM     28  C   UNL     1      26.030  15.103  -3.678  0.00  0.00    +0.086 A 
ATOM     29  C   UNL     1      24.733  14.658  -3.543  0.00  0.00    +0.133 A 
ATOM     30  N   UNL     1      24.864  13.468  -2.895  0.00  0.00    -0.250 N 
ATOM     31  N   UNL     1      26.154  13.174  -2.660  0.00  0.00    -0.065 NA
BRANCH  30  32
ATOM     32  C   UNL     1      23.822  12.578  -2.425  0.00  0.00    +0.160 C 
BRANCH  32  33
ATOM     33  C   UNL     1      23.665  12.687  -0.901  0.00  0.00    +0.107 C 
BRANCH  33  34
ATOM     34  N   UNL     1      23.511  11.406  -0.169  0.00  0.00    -0.301 NA
BRANCH  34  35
ATOM     35  C   UNL     1      22.077  11.050  -0.129  0.00  0.00    +0.081 C 
ATOM     36  C   UNL     1      21.156  12.158   0.372  0.00  0.00    +0.020 C 
ENDBRANCH  34  35
BRANCH  34  37
ATOM     37  C   UNL     1      24.149  11.412   1.160  0.00  0.00    +0.081 C 
ATOM     38  C   UNL     1      24.963  10.176   1.531  0.00  0.00    +0.020 C 
ENDBRANCH  34  37
ENDBRANCH  33  34
ENDBRANCH  32  33
ENDBRANCH  30  32
ENDBRANCH  26  28
ENDBRANCH  25  26
ENDBRANCH  24  25
ENDBRANCH   1  24
TORSDOF 15
