REMARK VINA RESULT:    -6.530     21.905     25.312
REMARK INTER + INTRA:         -12.490
REMARK INTER:                  -9.910
REMARK INTRA:                  -2.580
REMARK UNBOUND:                -1.188
REMARK  Name = lig_assembled_35.pdb
REMARK  14 active torsions:
REMARK  status: ('A' for Active; 'I' for Inactive)
REMARK    1  A    between atoms: _2  and  _8
REMARK    2  A    between atoms: _4  and  _8
REMARK    3  A    between atoms: _4  and  _10
REMARK    4  A    between atoms: _5  and  _6
REMARK    5  A    between atoms: _5  and  _12
REMARK    6  A    between atoms: _8  and  _9
REMARK    7  A    between atoms: _12  and  _14
REMARK    8  A    between atoms: _13  and  _18
REMARK    9  A    between atoms: _14  and  _17
REMARK   10  A    between atoms: _22  and  _32
REMARK   11  A    between atoms: _24  and  _25
REMARK   12  A    between atoms: _26  and  _28
REMARK   13  A    between atoms: _28  and  _30
REMARK   14  A    between atoms: _30  and  _32
REMARK                            x       y       z     vdW  Elec       q    Type
REMARK                         _______ _______ _______ _____ _____    ______ ____
ROOT
ATOM      1  C   UNL     1      45.441  26.699  12.020  0.00  0.00    +0.152 C 
ENDROOT
BRANCH   1   3
ATOM      2  C   UNL     1      46.470  29.204  11.678  0.00  0.00    +0.400 C 
ATOM      3  N   UNL     1      45.976  27.939  11.461  0.00  0.00    -0.278 N 
ATOM      4  H   UNL     1      46.024  27.833  10.399  0.00  0.00    +0.152 HD
ATOM      5  O   UNL     1      46.982  29.795  10.731  0.00  0.00    -0.226 OA
BRANCH   2   6
ATOM      6  O   UNL     1      46.316  29.668  12.874  0.00  0.00    -0.450 OA
BRANCH   6   7
ATOM      7  C   UNL     1      46.993  29.685  14.109  0.00  0.00    +0.240 C 
BRANCH   7   8
ATOM      8  C   UNL     1      47.557  28.349  14.629  0.00  0.00    +0.100 C 
BRANCH   8  10
ATOM      9  N   UNL     1      45.314  27.824  15.533  0.00  0.00    -0.134 NA
ATOM     10  C   UNL     1      46.676  27.794  15.674  0.00  0.00    +0.086 A 
ATOM     11  C   UNL     1      46.990  27.200  16.876  0.00  0.00    +0.134 A 
ATOM     12  N   UNL     1      45.778  26.879  17.412  0.00  0.00    -0.238 N 
ATOM     13  N   UNL     1      44.774  27.275  16.611  0.00  0.00    -0.065 NA
BRANCH  12  14
ATOM     14  C   UNL     1      45.464  26.233  18.672  0.00  0.00    +0.214 C 
ATOM     15  C   UNL     1      44.471  27.064  19.479  0.00  0.00    +0.045 C 
BRANCH  14  16
ATOM     16  C   UNL     1      44.983  24.812  18.463  0.00  0.00    +0.329 C 
ATOM     17  O   UNL     1      44.283  24.195  19.255  0.00  0.00    -0.249 OA
BRANCH  16  18
ATOM     18  O   UNL     1      45.414  24.239  17.312  0.00  0.00    -0.479 OA
ATOM     19  H   UNL     1      44.958  23.414  17.050  0.00  0.00    +0.295 HD
ENDBRANCH  16  18
ENDBRANCH  14  16
ENDBRANCH  12  14
ENDBRANCH   8  10
ENDBRANCH   7   8
ENDBRANCH   6   7
ENDBRANCH   2   6
ENDBRANCH   1   3
BRANCH   1  20
ATOM     20  C   UNL     1      45.267  25.528  11.031  0.00  0.00    +0.193 C 
ATOM     21  O   UNL     1      44.425  26.009   9.961  0.00  0.00    -0.219 OA
BRANCH  20  22
ATOM     22  C   UNL     1      46.532  25.000  10.319  0.00  0.00    +0.212 C 
ATOM     23  O   UNL     1      47.701  25.682  10.800  0.00  0.00    -0.218 OA
BRANCH  22  24
ATOM     24  C   UNL     1      46.746  23.448  10.494  0.00  0.00    +0.171 C 
ATOM     25  O   UNL     1      45.896  22.679   9.649  0.00  0.00    -0.343 OA
ATOM     26  C   UNL     1      45.702  21.301   9.770  0.00  0.00    +0.220 C 
ATOM     27  C   UNL     1      45.350  20.899  11.213  0.00  0.00    +0.076 C 
ATOM     28  C   UNL     1      46.433  21.484  12.134  0.00  0.00    +0.177 C 
ATOM     29  O   UNL     1      46.177  21.107  13.480  0.00  0.00    -0.221 OA
ATOM     30  C   UNL     1      46.489  23.035  11.981  0.00  0.00    +0.155 C 
BRANCH  30  31
ATOM     31  N   UNL     1      47.513  23.596  12.860  0.00  0.00    -0.202 NA
ATOM     32  C   UNL     1      47.390  24.146  14.094  0.00  0.00    +0.242 C 
ATOM     33  C   UNL     1      48.641  24.376  14.902  0.00  0.00    +0.096 C 
ATOM     34  O   UNL     1      46.275  24.438  14.521  0.00  0.00    -0.273 OA
ENDBRANCH  30  31
BRANCH  26  35
ATOM     35  C   UNL     1      46.938  20.421   9.190  0.00  0.00    +0.391 C 
ATOM     36  O   UNL     1      46.754  19.186   9.697  0.00  0.00    -0.243 OA
ATOM     37  O   UNL     1      47.486  21.152   8.211  0.00  0.00    -0.243 OA
ENDBRANCH  26  35
ENDBRANCH  22  24
ENDBRANCH  20  22
ENDBRANCH   1  20
TORSDOF 13
