REMARK VINA RESULT:    -7.358      3.167      8.814
REMARK INTER + INTRA:         -14.023
REMARK INTER:                 -12.477
REMARK INTRA:                  -1.546
REMARK UNBOUND:                -1.503
REMARK  Name = lig_assembled_89.pdb
REMARK  14 active torsions:
REMARK  status: ('A' for Active; 'I' for Inactive)
REMARK    1  A    between atoms: _2  and  _11
REMARK    2  A    between atoms: _5  and  _19
REMARK    3  A    between atoms: _8  and  _9
REMARK    4  A    between atoms: _8  and  _24
REMARK    5  A    between atoms: _19  and  _20
REMARK    6  A    between atoms: _19  and  _21
REMARK    7  A    between atoms: _24  and  _26
REMARK    8  A    between atoms: _25  and  _30
REMARK    9  A    between atoms: _26  and  _29
REMARK   10  A    between atoms: _34  and  _44
REMARK   11  A    between atoms: _36  and  _37
REMARK   12  A    between atoms: _38  and  _40
REMARK   13  A    between atoms: _40  and  _42
REMARK   14  A    between atoms: _42  and  _44
REMARK                            x       y       z     vdW  Elec       q    Type
REMARK                         _______ _______ _______ _____ _____    ______ ____
ROOT
ATOM      1  C   UNL     1      30.448  16.534   0.107  0.00  0.00    +0.240 C 
ENDROOT
BRANCH   1   2
ATOM      2  C   UNL     1      30.914  15.175  -0.449  0.00  0.00    +0.100 C 
BRANCH   2   4
ATOM      3  N   UNL     1      31.941  13.093   0.383  0.00  0.00    -0.134 NA
ATOM      4  C   UNL     1      31.435  14.332   0.641  0.00  0.00    +0.087 A 
ATOM      5  C   UNL     1      31.538  14.585   1.988  0.00  0.00    +0.141 A 
ATOM      6  N   UNL     1      32.146  13.466   2.522  0.00  0.00    -0.200 N 
ATOM      7  N   UNL     1      32.375  12.580   1.525  0.00  0.00    -0.059 NA
BRANCH   6   8
ATOM      8  C   UNL     1      32.556  13.308   3.878  0.00  0.00    +0.186 A 
ATOM      9  C   UNL     1      31.926  12.657   4.920  0.00  0.00    +0.158 A 
ATOM     10  C   UNL     1      30.640  12.049   5.059  0.00  0.00    +0.280 A 
ATOM     11  O   UNL     1      29.706  12.311   4.314  0.00  0.00    -0.265 OA
ATOM     12  N   UNL     1      30.514  11.149   6.138  0.00  0.00    -0.302 N 
ATOM     13  C   UNL     1      31.438  11.213   7.248  0.00  0.00    +0.069 A 
ATOM     14  C   UNL     1      31.211  10.548   8.462  0.00  0.00    +0.028 A 
ATOM     15  C   UNL     1      32.102  10.674   9.537  0.00  0.00    +0.002 A 
ATOM     16  C   UNL     1      33.245  11.456   9.418  0.00  0.00    +0.002 A 
ATOM     17  C   UNL     1      33.508  12.120   8.224  0.00  0.00    +0.028 A 
ATOM     18  C   UNL     1      32.605  12.003   7.157  0.00  0.00    +0.072 A 
ATOM     19  N   UNL     1      32.837  12.666   5.941  0.00  0.00    -0.291 N 
ATOM     20  C   UNL     1      33.915  13.404   5.524  0.00  0.00    +0.207 A 
ATOM     21  N   UNL     1      33.785  13.800   4.275  0.00  0.00    -0.216 NA
BRANCH  12  22
ATOM     22  C   UNL     1      29.304  10.294   6.191  0.00  0.00    +0.085 C 
ATOM     23  C   UNL     1      28.608  10.290   7.565  0.00  0.00    +0.030 C 
ATOM     24  C   UNL     1      29.600   8.865   5.735  0.00  0.00    +0.030 C 
ENDBRANCH  12  22
ENDBRANCH   6   8
ENDBRANCH   2   4
ENDBRANCH   1   2
BRANCH   1  25
ATOM     25  O   UNL     1      29.499  17.254  -0.645  0.00  0.00    -0.450 OA
BRANCH  25  26
ATOM     26  C   UNL     1      28.220  17.434  -0.694  0.00  0.00    +0.400 C 
ATOM     27  N   UNL     1      27.498  16.423  -1.283  0.00  0.00    -0.278 N 
ATOM     28  H   UNL     1      26.486  16.672  -1.046  0.00  0.00    +0.152 HD
ATOM     29  O   UNL     1      27.606  18.397  -0.241  0.00  0.00    -0.226 OA
BRANCH  27  30
ATOM     30  C   UNL     1      27.493  15.200  -2.081  0.00  0.00    +0.152 C 
BRANCH  30  31
ATOM     31  C   UNL     1      26.160  14.845  -2.772  0.00  0.00    +0.193 C 
ATOM     32  O   UNL     1      26.403  14.895  -4.195  0.00  0.00    -0.219 OA
BRANCH  31  33
ATOM     33  C   UNL     1      25.583  13.432  -2.529  0.00  0.00    +0.212 C 
ATOM     34  O   UNL     1      26.356  12.447  -3.233  0.00  0.00    -0.218 OA
BRANCH  33  35
ATOM     35  C   UNL     1      25.528  13.034  -1.005  0.00  0.00    +0.171 C 
ATOM     36  O   UNL     1      26.635  12.232  -0.608  0.00  0.00    -0.343 OA
ATOM     37  C   UNL     1      26.715  11.544   0.605  0.00  0.00    +0.220 C 
ATOM     38  C   UNL     1      25.457  10.697   0.865  0.00  0.00    +0.076 C 
ATOM     39  C   UNL     1      24.239  11.624   0.725  0.00  0.00    +0.177 C 
ATOM     40  O   UNL     1      23.048  10.898   0.995  0.00  0.00    -0.221 OA
ATOM     41  C   UNL     1      24.205  12.257  -0.700  0.00  0.00    +0.155 C 
BRANCH  41  42
ATOM     42  N   UNL     1      23.045  13.134  -0.839  0.00  0.00    -0.202 NA
ATOM     43  C   UNL     1      21.897  12.949  -1.539  0.00  0.00    +0.242 C 
ATOM     44  C   UNL     1      20.740  13.877  -1.275  0.00  0.00    +0.096 C 
ATOM     45  O   UNL     1      21.827  12.038  -2.362  0.00  0.00    -0.273 OA
ENDBRANCH  41  42
BRANCH  37  46
ATOM     46  C   UNL     1      27.061  12.502   1.871  0.00  0.00    +0.391 C 
ATOM     47  O   UNL     1      26.641  11.815   2.952  0.00  0.00    -0.243 OA
ATOM     48  O   UNL     1      27.886  13.448   1.405  0.00  0.00    -0.243 OA
ENDBRANCH  37  46
ENDBRANCH  33  35
ENDBRANCH  31  33
ENDBRANCH  30  31
ENDBRANCH  27  30
ENDBRANCH  25  26
ENDBRANCH   1  25
TORSDOF 12
