REMARK VINA RESULT:    -7.501      1.558      2.046
REMARK INTER + INTRA:         -14.778
REMARK INTER:                 -12.708
REMARK INTRA:                  -2.070
REMARK UNBOUND:                -1.577
REMARK  Name = lig_assembled_66.pdb
REMARK  13 active torsions:
REMARK  status: ('A' for Active; 'I' for Inactive)
REMARK    1  A    between atoms: _2  and  _9
REMARK    2  A    between atoms: _6  and  _7
REMARK    3  A    between atoms: _6  and  _16
REMARK    4  A    between atoms: _9  and  _10
REMARK    5  A    between atoms: _14  and  _15
REMARK    6  A    between atoms: _16  and  _18
REMARK    7  A    between atoms: _17  and  _22
REMARK    8  A    between atoms: _18  and  _21
REMARK    9  A    between atoms: _26  and  _36
REMARK   10  A    between atoms: _28  and  _29
REMARK   11  A    between atoms: _30  and  _32
REMARK   12  A    between atoms: _32  and  _34
REMARK   13  A    between atoms: _34  and  _36
REMARK                            x       y       z     vdW  Elec       q    Type
REMARK                         _______ _______ _______ _____ _____    ______ ____
ROOT
ATOM      1  C   UNL     1      27.896  17.192  -0.761  0.00  0.00    +0.400 C 
ATOM      2  N   UNL     1      28.364  16.154   0.011  0.00  0.00    -0.278 N 
ATOM      3  H   UNL     1      28.697  16.640   0.902  0.00  0.00    +0.152 HD
ATOM      4  O   UNL     1      27.794  18.300  -0.241  0.00  0.00    -0.226 OA
ENDROOT
BRANCH   1   5
ATOM      5  O   UNL     1      27.632  16.899  -1.992  0.00  0.00    -0.450 OA
BRANCH   5   6
ATOM      6  C   UNL     1      27.024  17.481  -3.121  0.00  0.00    +0.240 C 
BRANCH   6   7
ATOM      7  C   UNL     1      25.962  16.648  -3.865  0.00  0.00    +0.100 C 
BRANCH   7   9
ATOM      8  N   UNL     1      24.259  15.491  -2.487  0.00  0.00    -0.134 NA
ATOM      9  C   UNL     1      25.517  15.518  -3.028  0.00  0.00    +0.086 A 
ATOM     10  C   UNL     1      26.179  14.359  -2.686  0.00  0.00    +0.134 A 
ATOM     11  N   UNL     1      25.250  13.643  -1.986  0.00  0.00    -0.247 N 
ATOM     12  N   UNL     1      24.104  14.335  -1.852  0.00  0.00    -0.065 NA
BRANCH  11  13
ATOM     13  C   UNL     1      25.296  12.233  -1.649  0.00  0.00    +0.180 C 
BRANCH  13  14
ATOM     14  C   UNL     1      25.090  11.962  -0.181  0.00  0.00    -0.025 A 
ATOM     15  C   UNL     1      23.908  11.354   0.269  0.00  0.00    +0.005 A 
ATOM     16  C   UNL     1      23.743  11.024   1.616  0.00  0.00    +0.002 A 
ATOM     17  C   UNL     1      24.751  11.315   2.535  0.00  0.00    +0.019 A 
ATOM     18  C   UNL     1      25.920  11.953   2.111  0.00  0.00    +0.052 A 
ATOM     19  C   UNL     1      26.089  12.273   0.757  0.00  0.00    +0.024 A 
BRANCH  18  20
ATOM     20  C   UNL     1      26.950  12.269   3.056  0.00  0.00    +0.099 C 
ATOM     21  N   UNL     1      27.786  12.533   3.818  0.00  0.00    -0.191 NA
ENDBRANCH  18  20
ENDBRANCH  13  14
ENDBRANCH  11  13
ENDBRANCH   7   9
ENDBRANCH   6   7
ENDBRANCH   5   6
ENDBRANCH   1   5
BRANCH   2  22
ATOM     22  C   UNL     1      28.591  14.719   0.160  0.00  0.00    +0.152 C 
BRANCH  22  23
ATOM     23  C   UNL     1      29.660  14.304   1.192  0.00  0.00    +0.193 C 
ATOM     24  O   UNL     1      29.829  12.875   1.064  0.00  0.00    -0.219 OA
BRANCH  23  25
ATOM     25  C   UNL     1      31.083  14.878   1.018  0.00  0.00    +0.212 C 
ATOM     26  O   UNL     1      31.145  16.226   1.511  0.00  0.00    -0.218 OA
BRANCH  25  27
ATOM     27  C   UNL     1      32.193  14.025   1.743  0.00  0.00    +0.171 C 
ATOM     28  O   UNL     1      32.650  14.631   2.948  0.00  0.00    -0.343 OA
ATOM     29  C   UNL     1      33.783  14.223   3.655  0.00  0.00    +0.220 C 
ATOM     30  C   UNL     1      35.015  14.108   2.740  0.00  0.00    +0.076 C 
ATOM     31  C   UNL     1      34.630  13.204   1.557  0.00  0.00    +0.177 C 
ATOM     32  O   UNL     1      35.748  13.031   0.699  0.00  0.00    -0.221 OA
ATOM     33  C   UNL     1      33.415  13.811   0.790  0.00  0.00    +0.155 C 
BRANCH  33  34
ATOM     34  N   UNL     1      33.050  12.959  -0.339  0.00  0.00    -0.202 NA
ATOM     35  C   UNL     1      32.928  13.266  -1.655  0.00  0.00    +0.242 C 
ATOM     36  C   UNL     1      32.828  12.137  -2.647  0.00  0.00    +0.096 C 
ATOM     37  O   UNL     1      32.903  14.445  -2.003  0.00  0.00    -0.273 OA
ENDBRANCH  33  34
BRANCH  29  38
ATOM     38  C   UNL     1      33.554  12.868   4.521  0.00  0.00    +0.391 C 
ATOM     39  O   UNL     1      34.786  12.497   4.920  0.00  0.00    -0.243 OA
ATOM     40  O   UNL     1      32.238  12.801   4.761  0.00  0.00    -0.243 OA
ENDBRANCH  29  38
ENDBRANCH  25  27
ENDBRANCH  23  25
ENDBRANCH  22  23
ENDBRANCH   2  22
TORSDOF 13
