REMARK VINA RESULT:    -6.216      4.056      9.390
REMARK INTER + INTRA:         -16.386
REMARK INTER:                 -12.287
REMARK INTRA:                  -4.099
REMARK UNBOUND:                -2.358
REMARK  Name = lig_assembled_30.pdb
REMARK  22 active torsions:
REMARK  status: ('A' for Active; 'I' for Inactive)
REMARK    1  A    between atoms: _2  and  _8
REMARK    2  A    between atoms: _4  and  _17
REMARK    3  A    between atoms: _4  and  _18
REMARK    4  A    between atoms: _5  and  _6
REMARK    5  A    between atoms: _5  and  _20
REMARK    6  A    between atoms: _8  and  _9
REMARK    7  A    between atoms: _9  and  _10
REMARK    8  A    between atoms: _10  and  _11
REMARK    9  A    between atoms: _11  and  _12
REMARK   10  A    between atoms: _12  and  _13
REMARK   11  A    between atoms: _13  and  _14
REMARK   12  A    between atoms: _14  and  _15
REMARK   13  A    between atoms: _15  and  _16
REMARK   14  A    between atoms: _16  and  _17
REMARK   15  A    between atoms: _20  and  _22
REMARK   16  A    between atoms: _21  and  _26
REMARK   17  A    between atoms: _22  and  _25
REMARK   18  A    between atoms: _30  and  _40
REMARK   19  A    between atoms: _32  and  _33
REMARK   20  A    between atoms: _34  and  _36
REMARK   21  A    between atoms: _36  and  _38
REMARK   22  A    between atoms: _38  and  _40
REMARK                            x       y       z     vdW  Elec       q    Type
REMARK                         _______ _______ _______ _____ _____    ______ ____
ROOT
ATOM      1  C   UNL     1      31.486  13.941   2.815  0.00  0.00    +0.400 C 
ATOM      2  N   UNL     1      30.834  14.697   1.870  0.00  0.00    -0.278 N 
ATOM      3  H   UNL     1      29.834  14.321   1.900  0.00  0.00    +0.152 HD
ATOM      4  O   UNL     1      30.813  13.216   3.543  0.00  0.00    -0.226 OA
ENDROOT
BRANCH   1   5
ATOM      5  O   UNL     1      32.775  14.047   2.824  0.00  0.00    -0.450 OA
BRANCH   5   6
ATOM      6  C   UNL     1      33.806  14.460   3.690  0.00  0.00    +0.240 C 
BRANCH   6   7
ATOM      7  C   UNL     1      34.622  13.362   4.398  0.00  0.00    +0.100 C 
BRANCH   7   9
ATOM      8  N   UNL     1      33.235  12.961   6.409  0.00  0.00    -0.134 NA
ATOM      9  C   UNL     1      33.737  12.513   5.215  0.00  0.00    +0.086 A 
ATOM     10  C   UNL     1      33.278  11.234   4.985  0.00  0.00    +0.133 A 
ATOM     11  N   UNL     1      32.505  10.966   6.073  0.00  0.00    -0.251 N 
ATOM     12  N   UNL     1      32.482  12.001   6.928  0.00  0.00    -0.065 NA
BRANCH  11  13
ATOM     13  C   UNL     1      31.802   9.740   6.384  0.00  0.00    +0.145 C 
BRANCH  13  14
ATOM     14  C   UNL     1      31.272   9.755   7.813  0.00  0.00    +0.023 C 
BRANCH  14  15
ATOM     15  C   UNL     1      29.745   9.779   7.855  0.00  0.00    +0.002 C 
BRANCH  15  16
ATOM     16  C   UNL     1      29.252  11.158   8.294  0.00  0.00    +0.000 C 
BRANCH  16  17
ATOM     17  C   UNL     1      28.710  11.138   9.720  0.00  0.00    +0.000 C 
BRANCH  17  18
ATOM     18  C   UNL     1      29.725  11.742  10.694  0.00  0.00    +0.000 C 
BRANCH  18  19
ATOM     19  C   UNL     1      30.554  12.827  10.014  0.00  0.00    +0.000 C 
BRANCH  19  20
ATOM     20  C   UNL     1      31.990  12.851  10.539  0.00  0.00    +0.001 C 
BRANCH  20  21
ATOM     21  C   UNL     1      32.491  11.429  10.787  0.00  0.00    +0.011 C 
BRANCH  21  22
ATOM     22  C   UNL     1      34.016  11.351  10.762  0.00  0.00    +0.120 C 
BRANCH  22  23
ATOM     23  C   UNL     1      34.512  10.646   9.520  0.00  0.00    +0.305 C 
ATOM     24  O   UNL     1      34.530   9.437   9.350  0.00  0.00    -0.251 OA
BRANCH  23  25
ATOM     25  O   UNL     1      34.952  11.511   8.578  0.00  0.00    -0.481 OA
ATOM     26  H   UNL     1      34.715  11.254   7.667  0.00  0.00    +0.295 HD
ENDBRANCH  23  25
ENDBRANCH  22  23
ENDBRANCH  21  22
ENDBRANCH  20  21
ENDBRANCH  19  20
ENDBRANCH  18  19
ENDBRANCH  17  18
ENDBRANCH  16  17
ENDBRANCH  15  16
ENDBRANCH  14  15
ENDBRANCH  13  14
ENDBRANCH  11  13
ENDBRANCH   7   9
ENDBRANCH   6   7
ENDBRANCH   5   6
ENDBRANCH   1   5
BRANCH   2  27
ATOM     27  C   UNL     1      30.889  15.767   0.878  0.00  0.00    +0.152 C 
BRANCH  27  28
ATOM     28  C   UNL     1      29.586  16.038   0.097  0.00  0.00    +0.193 C 
ATOM     29  O   UNL     1      29.881  17.088  -0.851  0.00  0.00    -0.219 OA
BRANCH  28  30
ATOM     30  C   UNL     1      29.017  14.890  -0.765  0.00  0.00    +0.212 C 
ATOM     31  O   UNL     1      30.071  14.010  -1.189  0.00  0.00    -0.218 OA
BRANCH  30  32
ATOM     32  C   UNL     1      27.918  14.037  -0.022  0.00  0.00    +0.171 C 
ATOM     33  O   UNL     1      28.478  13.093   0.885  0.00  0.00    -0.343 OA
ATOM     34  C   UNL     1      27.760  12.057   1.486  0.00  0.00    +0.220 C 
ATOM     35  C   UNL     1      26.965  11.239   0.453  0.00  0.00    +0.076 C 
ATOM     36  C   UNL     1      26.115  12.227  -0.364  0.00  0.00    +0.177 C 
ATOM     37  O   UNL     1      25.329  11.517  -1.310  0.00  0.00    -0.221 OA
ATOM     38  C   UNL     1      27.034  13.276  -1.063  0.00  0.00    +0.155 C 
BRANCH  38  39
ATOM     39  N   UNL     1      26.231  14.212  -1.846  0.00  0.00    -0.202 NA
ATOM     40  C   UNL     1      26.207  14.425  -3.186  0.00  0.00    +0.242 C 
ATOM     41  C   UNL     1      25.076  15.238  -3.761  0.00  0.00    +0.096 C 
ATOM     42  O   UNL     1      27.097  13.954  -3.892  0.00  0.00    -0.273 OA
ENDBRANCH  38  39
BRANCH  34  43
ATOM     43  C   UNL     1      26.815  12.550   2.712  0.00  0.00    +0.391 C 
ATOM     44  O   UNL     1      25.856  11.608   2.813  0.00  0.00    -0.243 OA
ATOM     45  O   UNL     1      27.497  13.516   3.340  0.00  0.00    -0.243 OA
ENDBRANCH  34  43
ENDBRANCH  30  32
ENDBRANCH  28  30
ENDBRANCH  27  28
ENDBRANCH   2  27
TORSDOF 22
