REMARK VINA RESULT:    -6.943      1.915      3.558
REMARK INTER + INTRA:         -13.215
REMARK INTER:                 -11.895
REMARK INTRA:                  -1.320
REMARK UNBOUND:                -1.808
REMARK  Name = lig_assembled_8.pdb
REMARK  11 active torsions:
REMARK  status: ('A' for Active; 'I' for Inactive)
REMARK    1  A    between atoms: _2  and  _8
REMARK    2  A    between atoms: _5  and  _6
REMARK    3  A    between atoms: _5  and  _13
REMARK    4  A    between atoms: _13  and  _15
REMARK    5  A    between atoms: _14  and  _19
REMARK    6  A    between atoms: _15  and  _18
REMARK    7  A    between atoms: _23  and  _33
REMARK    8  A    between atoms: _25  and  _26
REMARK    9  A    between atoms: _27  and  _29
REMARK   10  A    between atoms: _29  and  _31
REMARK   11  A    between atoms: _31  and  _33
REMARK                            x       y       z     vdW  Elec       q    Type
REMARK                         _______ _______ _______ _____ _____    ______ ____
ROOT
ATOM      1  C   UNL     1      28.369  16.990  -1.191  0.00  0.00    +0.400 C 
ATOM      2  N   UNL     1      28.484  15.636  -0.985  0.00  0.00    -0.278 N 
ATOM      3  H   UNL     1      29.512  15.511  -0.723  0.00  0.00    +0.152 HD
ATOM      4  O   UNL     1      29.317  17.706  -0.876  0.00  0.00    -0.226 OA
ENDROOT
BRANCH   1   5
ATOM      5  O   UNL     1      27.265  17.383  -1.735  0.00  0.00    -0.450 OA
BRANCH   5   6
ATOM      6  C   UNL     1      26.748  17.675  -3.013  0.00  0.00    +0.240 C 
BRANCH   6   7
ATOM      7  C   UNL     1      26.690  16.525  -4.036  0.00  0.00    +0.100 C 
BRANCH   7   9
ATOM      8  N   UNL     1      24.938  14.975  -4.826  0.00  0.00    -0.134 NA
ATOM      9  C   UNL     1      25.483  15.708  -3.818  0.00  0.00    +0.086 A 
ATOM     10  C   UNL     1      24.735  15.520  -2.679  0.00  0.00    +0.139 A 
ATOM     11  N   UNL     1      23.734  14.631  -3.034  0.00  0.00    -0.219 N 
ATOM     12  N   UNL     1      23.883  14.336  -4.345  0.00  0.00    -0.061 NA
BRANCH  11  13
ATOM     13  C   UNL     1      22.711  14.078  -2.204  0.00  0.00    +0.081 A 
ATOM     14  C   UNL     1      23.078  13.076  -1.277  0.00  0.00    +0.029 A 
ATOM     15  C   UNL     1      22.133  12.468  -0.445  0.00  0.00    +0.002 A 
ATOM     16  C   UNL     1      20.801  12.844  -0.518  0.00  0.00    +0.001 A 
ATOM     17  C   UNL     1      20.417  13.835  -1.417  0.00  0.00    +0.017 A 
ATOM     18  C   UNL     1      21.356  14.460  -2.262  0.00  0.00    +0.043 A 
ATOM     19 BR   UNL     1      20.592  15.783  -3.399  0.00  0.00    -0.048 Br
ENDBRANCH  11  13
ENDBRANCH   7   9
ENDBRANCH   6   7
ENDBRANCH   5   6
ENDBRANCH   1   5
BRANCH   2  20
ATOM     20  C   UNL     1      27.842  14.324  -0.950  0.00  0.00    +0.152 C 
BRANCH  20  21
ATOM     21  C   UNL     1      27.967  13.541   0.373  0.00  0.00    +0.193 C 
ATOM     22  O   UNL     1      26.710  12.858   0.571  0.00  0.00    -0.219 OA
BRANCH  21  23
ATOM     23  C   UNL     1      29.029  12.422   0.444  0.00  0.00    +0.212 C 
ATOM     24  O   UNL     1      28.799  11.446  -0.585  0.00  0.00    -0.218 OA
BRANCH  23  25
ATOM     25  C   UNL     1      30.507  12.954   0.312  0.00  0.00    +0.171 C 
ATOM     26  O   UNL     1      30.871  13.233  -1.037  0.00  0.00    -0.343 OA
ATOM     27  C   UNL     1      32.177  13.480  -1.466  0.00  0.00    +0.220 C 
ATOM     28  C   UNL     1      33.153  12.398  -0.974  0.00  0.00    +0.076 C 
ATOM     29  C   UNL     1      32.984  12.281   0.550  0.00  0.00    +0.177 C 
ATOM     30  O   UNL     1      33.895  11.319   1.063  0.00  0.00    -0.221 OA
ATOM     31  C   UNL     1      31.510  11.908   0.900  0.00  0.00    +0.155 C 
BRANCH  31  32
ATOM     32  N   UNL     1      31.346  11.789   2.347  0.00  0.00    -0.202 NA
ATOM     33  C   UNL     1      31.372  12.750   3.305  0.00  0.00    +0.242 C 
ATOM     34  C   UNL     1      30.883  12.396   4.685  0.00  0.00    +0.096 C 
ATOM     35  O   UNL     1      31.787  13.873   3.028  0.00  0.00    -0.273 OA
ENDBRANCH  31  32
BRANCH  27  36
ATOM     36  C   UNL     1      32.706  14.972  -1.102  0.00  0.00    +0.391 C 
ATOM     37  O   UNL     1      31.651  15.586  -0.530  0.00  0.00    -0.243 OA
ATOM     38  O   UNL     1      34.039  14.932  -1.223  0.00  0.00    -0.243 OA
ENDBRANCH  27  36
ENDBRANCH  23  25
ENDBRANCH  21  23
ENDBRANCH  20  21
ENDBRANCH   2  20
TORSDOF 11
