REMARK VINA RESULT:    -6.110      2.198      5.271
REMARK INTER + INTRA:         -14.907
REMARK INTER:                 -11.567
REMARK INTRA:                  -3.340
REMARK UNBOUND:                -3.439
REMARK  Name = lig_assembled_84.pdb
REMARK  16 active torsions:
REMARK  status: ('A' for Active; 'I' for Inactive)
REMARK    1  A    between atoms: _2  and  _10
REMARK    2  A    between atoms: _3  and  _13
REMARK    3  A    between atoms: _4  and  _16
REMARK    4  A    between atoms: _7  and  _8
REMARK    5  A    between atoms: _7  and  _23
REMARK    6  A    between atoms: _10  and  _11
REMARK    7  A    between atoms: _11  and  _12
REMARK    8  A    between atoms: _11  and  _13
REMARK    9  A    between atoms: _23  and  _25
REMARK   10  A    between atoms: _24  and  _29
REMARK   11  A    between atoms: _25  and  _28
REMARK   12  A    between atoms: _33  and  _43
REMARK   13  A    between atoms: _35  and  _36
REMARK   14  A    between atoms: _37  and  _39
REMARK   15  A    between atoms: _39  and  _41
REMARK   16  A    between atoms: _41  and  _43
REMARK                            x       y       z     vdW  Elec       q    Type
REMARK                         _______ _______ _______ _____ _____    ______ ____
ROOT
ATOM      1  C   UNL     1      27.067  12.791   1.172  0.00  0.00    +0.240 C 
ENDROOT
BRANCH   1   2
ATOM      2  C   UNL     1      26.271  11.526   1.544  0.00  0.00    +0.100 C 
BRANCH   2   4
ATOM      3  N   UNL     1      24.610  12.470  -0.034  0.00  0.00    -0.134 NA
ATOM      4  C   UNL     1      25.048  11.418   0.726  0.00  0.00    +0.086 A 
ATOM      5  C   UNL     1      24.164  10.370   0.596  0.00  0.00    +0.133 A 
ATOM      6  N   UNL     1      23.178  10.870  -0.201  0.00  0.00    -0.251 N 
ATOM      7  N   UNL     1      23.459  12.123  -0.596  0.00  0.00    -0.065 NA
BRANCH   6   8
ATOM      8  C   UNL     1      21.895  10.268  -0.506  0.00  0.00    +0.149 C 
BRANCH   8   9
ATOM      9  C   UNL     1      21.863   9.480  -1.827  0.00  0.00    +0.021 C 
ATOM     10  C   UNL     1      21.470   8.014  -1.591  0.00  0.00    +0.010 C 
BRANCH   9  11
ATOM     11  C   UNL     1      20.866  10.107  -2.831  0.00  0.00    +0.089 C 
BRANCH  11  12
ATOM     12  N   UNL     1      21.416  11.151  -3.706  0.00  0.00    -0.299 NA
ATOM     13  C   UNL     1      22.888  10.980  -3.840  0.00  0.00    +0.103 C 
ATOM     14  C   UNL     1      23.496  12.005  -4.819  0.00  0.00    +0.120 C 
ATOM     15  N   UNL     1      23.196  13.365  -4.359  0.00  0.00    -0.327 N 
ATOM     16  C   UNL     1      21.767  13.629  -4.137  0.00  0.00    +0.120 C 
ATOM     17  C   UNL     1      21.156  12.530  -3.219  0.00  0.00    +0.103 C 
BRANCH  15  18
ATOM     18  C   UNL     1      24.167  14.328  -4.202  0.00  0.00    +0.030 A 
ATOM     19  C   UNL     1      24.994  14.713  -5.274  0.00  0.00    +0.024 A 
ATOM     20  C   UNL     1      26.003  15.671  -5.129  0.00  0.00    +0.022 A 
ATOM     21  C   UNL     1      26.201  16.275  -3.898  0.00  0.00    +0.041 A 
ATOM     22 CL   UNL     1      27.444  17.450  -3.709  0.00  0.00    -0.084 Cl
ATOM     23  C   UNL     1      25.405  15.925  -2.814  0.00  0.00    +0.022 A 
ATOM     24  C   UNL     1      24.401  14.958  -2.971  0.00  0.00    +0.024 A 
ENDBRANCH  15  18
ENDBRANCH  11  12
ENDBRANCH   9  11
ENDBRANCH   8   9
ENDBRANCH   6   8
ENDBRANCH   2   4
ENDBRANCH   1   2
BRANCH   1  25
ATOM     25  O   UNL     1      28.012  12.683   0.133  0.00  0.00    -0.450 OA
BRANCH  25  26
ATOM     26  C   UNL     1      28.207  13.127  -1.065  0.00  0.00    +0.400 C 
ATOM     27  N   UNL     1      28.542  14.457  -1.160  0.00  0.00    -0.278 N 
ATOM     28  H   UNL     1      28.845  14.563  -2.180  0.00  0.00    +0.152 HD
ATOM     29  O   UNL     1      28.149  12.468  -2.100  0.00  0.00    -0.226 OA
BRANCH  27  30
ATOM     30  C   UNL     1      28.653  15.762  -0.513  0.00  0.00    +0.152 C 
BRANCH  30  31
ATOM     31  C   UNL     1      30.086  16.280  -0.271  0.00  0.00    +0.193 C 
ATOM     32  O   UNL     1      29.958  17.604   0.294  0.00  0.00    -0.219 OA
BRANCH  31  33
ATOM     33  C   UNL     1      30.963  15.512   0.741  0.00  0.00    +0.212 C 
ATOM     34  O   UNL     1      30.144  14.708   1.606  0.00  0.00    -0.218 OA
BRANCH  33  35
ATOM     35  C   UNL     1      32.038  14.583   0.058  0.00  0.00    +0.171 C 
ATOM     36  O   UNL     1      31.562  13.987  -1.144  0.00  0.00    -0.343 OA
ATOM     37  C   UNL     1      32.205  12.945  -1.816  0.00  0.00    +0.220 C 
ATOM     38  C   UNL     1      32.550  11.783  -0.869  0.00  0.00    +0.076 C 
ATOM     39  C   UNL     1      33.333  12.369   0.317  0.00  0.00    +0.177 C 
ATOM     40  O   UNL     1      33.712  11.328   1.206  0.00  0.00    -0.221 OA
ATOM     41  C   UNL     1      32.476  13.452   1.045  0.00  0.00    +0.155 C 
BRANCH  41  42
ATOM     42  N   UNL     1      33.214  14.007   2.176  0.00  0.00    -0.202 NA
ATOM     43  C   UNL     1      33.084  13.755   3.504  0.00  0.00    +0.242 C 
ATOM     44  C   UNL     1      34.167  14.240   4.433  0.00  0.00    +0.096 C 
ATOM     45  O   UNL     1      32.099  13.144   3.913  0.00  0.00    -0.273 OA
ENDBRANCH  41  42
BRANCH  37  46
ATOM     46  C   UNL     1      33.503  13.427  -2.667  0.00  0.00    +0.391 C 
ATOM     47  O   UNL     1      34.249  12.316  -2.822  0.00  0.00    -0.243 OA
ATOM     48  O   UNL     1      33.203  14.642  -3.142  0.00  0.00    -0.243 OA
ENDBRANCH  37  46
ENDBRANCH  33  35
ENDBRANCH  31  33
ENDBRANCH  30  31
ENDBRANCH  27  30
ENDBRANCH  25  26
ENDBRANCH   1  25
TORSDOF 15
