REMARK VINA RESULT:    -6.285      1.924      3.115
REMARK INTER + INTRA:         -13.255
REMARK INTER:                 -11.829
REMARK INTRA:                  -1.427
REMARK UNBOUND:                -2.194
REMARK  Name = lig_assembled_14.pdb
REMARK  13 active torsions:
REMARK  status: ('A' for Active; 'I' for Inactive)
REMARK    1  A    between atoms: _2  and  _9
REMARK    2  A    between atoms: _3  and  _10
REMARK    3  A    between atoms: _6  and  _7
REMARK    4  A    between atoms: _6  and  _14
REMARK    5  A    between atoms: _9  and  _10
REMARK    6  A    between atoms: _14  and  _16
REMARK    7  A    between atoms: _15  and  _20
REMARK    8  A    between atoms: _16  and  _19
REMARK    9  A    between atoms: _24  and  _34
REMARK   10  A    between atoms: _26  and  _27
REMARK   11  A    between atoms: _28  and  _30
REMARK   12  A    between atoms: _30  and  _32
REMARK   13  A    between atoms: _32  and  _34
REMARK                            x       y       z     vdW  Elec       q    Type
REMARK                         _______ _______ _______ _____ _____    ______ ____
ROOT
ATOM      1  C   UNL     1      28.903  17.069  -0.336  0.00  0.00    +0.400 C 
ATOM      2  N   UNL     1      30.041  16.813   0.391  0.00  0.00    -0.278 N 
ATOM      3  H   UNL     1      30.210  17.728   0.917  0.00  0.00    +0.152 HD
ATOM      4  O   UNL     1      28.288  18.106  -0.103  0.00  0.00    -0.226 OA
ENDROOT
BRANCH   2   5
ATOM      5  C   UNL     1      31.090  15.868   0.770  0.00  0.00    +0.152 C 
BRANCH   5   6
ATOM      6  C   UNL     1      31.498  14.839  -0.304  0.00  0.00    +0.193 C 
ATOM      7  O   UNL     1      32.564  15.440  -1.071  0.00  0.00    -0.219 OA
BRANCH   6   8
ATOM      8  C   UNL     1      32.082  13.494   0.180  0.00  0.00    +0.212 C 
ATOM      9  O   UNL     1      33.401  13.298  -0.355  0.00  0.00    -0.218 OA
BRANCH   8  10
ATOM     10  C   UNL     1      32.153  13.373   1.750  0.00  0.00    +0.171 C 
ATOM     11  O   UNL     1      33.442  12.983   2.212  0.00  0.00    -0.343 OA
ATOM     12  C   UNL     1      33.720  12.569   3.517  0.00  0.00    +0.220 C 
ATOM     13  C   UNL     1      32.747  11.474   3.987  0.00  0.00    +0.076 C 
ATOM     14  C   UNL     1      31.318  11.997   3.765  0.00  0.00    +0.177 C 
ATOM     15  O   UNL     1      30.377  11.036   4.221  0.00  0.00    -0.221 OA
ATOM     16  C   UNL     1      31.099  12.335   2.257  0.00  0.00    +0.155 C 
BRANCH  16  17
ATOM     17  N   UNL     1      29.740  12.826   2.040  0.00  0.00    -0.202 NA
ATOM     18  C   UNL     1      28.764  12.347   1.228  0.00  0.00    +0.242 C 
ATOM     19  C   UNL     1      27.361  12.863   1.414  0.00  0.00    +0.096 C 
ATOM     20  O   UNL     1      29.042  11.511   0.370  0.00  0.00    -0.273 OA
ENDBRANCH  16  17
BRANCH  12  21
ATOM     21  C   UNL     1      33.799  13.794   4.582  0.00  0.00    +0.391 C 
ATOM     22  O   UNL     1      33.559  13.229   5.781  0.00  0.00    -0.243 OA
ATOM     23  O   UNL     1      34.359  14.818   3.926  0.00  0.00    -0.243 OA
ENDBRANCH  12  21
ENDBRANCH   8  10
ENDBRANCH   6   8
ENDBRANCH   5   6
ENDBRANCH   2   5
BRANCH   1  24
ATOM     24  O   UNL     1      28.603  16.190  -1.235  0.00  0.00    -0.450 OA
BRANCH  24  25
ATOM     25  C   UNL     1      27.471  15.699  -1.914  0.00  0.00    +0.240 C 
BRANCH  25  26
ATOM     26  C   UNL     1      26.761  16.653  -2.893  0.00  0.00    +0.100 C 
BRANCH  26  28
ATOM     27  N   UNL     1      26.160  15.610  -5.055  0.00  0.00    -0.134 NA
ATOM     28  C   UNL     1      25.831  15.903  -3.759  0.00  0.00    +0.086 A 
ATOM     29  C   UNL     1      24.576  15.405  -3.488  0.00  0.00    +0.133 A 
ATOM     30  N   UNL     1      24.191  14.835  -4.663  0.00  0.00    -0.250 N 
ATOM     31  N   UNL     1      25.148  14.950  -5.600  0.00  0.00    -0.065 NA
BRANCH  30  32
ATOM     32  C   UNL     1      22.924  14.217  -4.985  0.00  0.00    +0.160 C 
BRANCH  32  33
ATOM     33  C   UNL     1      21.758  14.882  -4.245  0.00  0.00    +0.107 C 
BRANCH  33  34
ATOM     34  N   UNL     1      21.044  13.958  -3.347  0.00  0.00    -0.301 NA
ATOM     35  C   UNL     1      21.673  12.636  -3.262  0.00  0.00    +0.084 C 
ATOM     36  C   UNL     1      21.036  12.050  -2.018  0.00  0.00    +0.017 C 
ATOM     37  C   UNL     1      20.929  13.233  -1.074  0.00  0.00    +0.017 C 
ATOM     38  C   UNL     1      20.994  14.468  -1.969  0.00  0.00    +0.084 C 
ENDBRANCH  33  34
ENDBRANCH  32  33
ENDBRANCH  30  32
ENDBRANCH  26  28
ENDBRANCH  25  26
ENDBRANCH  24  25
ENDBRANCH   1  24
TORSDOF 13
