REMARK VINA RESULT:    -6.167      2.930      8.962
REMARK INTER + INTRA:         -12.369
REMARK INTER:                 -10.554
REMARK INTRA:                  -1.815
REMARK UNBOUND:                -1.696
REMARK  Name = lig_assembled_72.pdb
REMARK  15 active torsions:
REMARK  status: ('A' for Active; 'I' for Inactive)
REMARK    1  A    between atoms: _2  and  _8
REMARK    2  A    between atoms: _4  and  _8
REMARK    3  A    between atoms: _4  and  _11
REMARK    4  A    between atoms: _5  and  _6
REMARK    5  A    between atoms: _5  and  _12
REMARK    6  A    between atoms: _8  and  _9
REMARK    7  A    between atoms: _8  and  _10
REMARK    8  A    between atoms: _12  and  _14
REMARK    9  A    between atoms: _13  and  _18
REMARK   10  A    between atoms: _14  and  _17
REMARK   11  A    between atoms: _22  and  _32
REMARK   12  A    between atoms: _24  and  _25
REMARK   13  A    between atoms: _26  and  _28
REMARK   14  A    between atoms: _28  and  _30
REMARK   15  A    between atoms: _30  and  _32
REMARK                            x       y       z     vdW  Elec       q    Type
REMARK                         _______ _______ _______ _____ _____    ______ ____
ROOT
ATOM      1  C   UNL     1      23.455  15.485  -2.954  0.00  0.00    +0.152 C 
ENDROOT
BRANCH   1   3
ATOM      2  C   UNL     1      25.733  16.221  -4.264  0.00  0.00    +0.400 C 
ATOM      3  N   UNL     1      24.526  15.651  -3.933  0.00  0.00    -0.278 N 
ATOM      4  H   UNL     1      24.290  15.057  -4.790  0.00  0.00    +0.152 HD
ATOM      5  O   UNL     1      26.306  15.819  -5.273  0.00  0.00    -0.226 OA
BRANCH   2   6
ATOM      6  O   UNL     1      26.140  17.165  -3.480  0.00  0.00    -0.450 OA
BRANCH   6   7
ATOM      7  C   UNL     1      27.343  17.669  -2.949  0.00  0.00    +0.240 C 
BRANCH   7   8
ATOM      8  C   UNL     1      27.421  17.861  -1.423  0.00  0.00    +0.100 C 
BRANCH   8  10
ATOM      9  N   UNL     1      29.731  17.635  -0.569  0.00  0.00    -0.134 NA
ATOM     10  C   UNL     1      28.524  17.061  -0.861  0.00  0.00    +0.086 A 
ATOM     11  C   UNL     1      28.576  15.721  -0.544  0.00  0.00    +0.134 A 
ATOM     12  N   UNL     1      29.842  15.537  -0.061  0.00  0.00    -0.244 N 
ATOM     13  N   UNL     1      30.529  16.697  -0.082  0.00  0.00    -0.065 NA
BRANCH  12  14
ATOM     14  C   UNL     1      30.455  14.297   0.436  0.00  0.00    +0.083 C 
ATOM     15  C   UNL     1      29.345  13.295   0.804  0.00  0.00    +0.038 C 
ATOM     16  C   UNL     1      31.303  14.604   1.687  0.00  0.00    +0.038 C 
BRANCH  14  17
ATOM     17  C   UNL     1      31.356  13.631  -0.639  0.00  0.00    +0.185 C 
BRANCH  17  18
ATOM     18  O   UNL     1      32.178  14.572  -1.330  0.00  0.00    -0.393 OA
ATOM     19  H   UNL     1      32.565  14.085  -2.088  0.00  0.00    +0.209 HD
ENDBRANCH  17  18
ENDBRANCH  14  17
ENDBRANCH  12  14
ENDBRANCH   8  10
ENDBRANCH   7   8
ENDBRANCH   6   7
ENDBRANCH   2   6
ENDBRANCH   1   3
BRANCH   1  20
ATOM     20  C   UNL     1      22.264  14.609  -3.392  0.00  0.00    +0.193 C 
ATOM     21  O   UNL     1      21.851  15.088  -4.691  0.00  0.00    -0.219 OA
BRANCH  20  22
ATOM     22  C   UNL     1      22.524  13.101  -3.603  0.00  0.00    +0.212 C 
ATOM     23  O   UNL     1      22.536  12.785  -5.004  0.00  0.00    -0.218 OA
BRANCH  22  24
ATOM     24  C   UNL     1      23.877  12.605  -2.962  0.00  0.00    +0.171 C 
ATOM     25  O   UNL     1      24.974  12.691  -3.866  0.00  0.00    -0.343 OA
ATOM     26  C   UNL     1      26.221  12.100  -3.649  0.00  0.00    +0.220 C 
ATOM     27  C   UNL     1      26.091  10.614  -3.271  0.00  0.00    +0.076 C 
ATOM     28  C   UNL     1      25.116  10.522  -2.086  0.00  0.00    +0.177 C 
ATOM     29  O   UNL     1      24.991   9.170  -1.670  0.00  0.00    -0.221 OA
ATOM     30  C   UNL     1      23.732  11.125  -2.480  0.00  0.00    +0.155 C 
BRANCH  30  31
ATOM     31  N   UNL     1      22.801  11.033  -1.358  0.00  0.00    -0.202 NA
ATOM     32  C   UNL     1      22.850  11.626  -0.138  0.00  0.00    +0.242 C 
ATOM     33  C   UNL     1      21.614  11.597   0.722  0.00  0.00    +0.096 C 
ATOM     34  O   UNL     1      23.889  12.168   0.232  0.00  0.00    -0.273 OA
ENDBRANCH  30  31
BRANCH  26  35
ATOM     35  C   UNL     1      27.143  12.909  -2.583  0.00  0.00    +0.391 C 
ATOM     36  O   UNL     1      26.311  13.799  -2.009  0.00  0.00    -0.243 OA
ATOM     37  O   UNL     1      28.273  12.202  -2.461  0.00  0.00    -0.243 OA
ENDBRANCH  26  35
ENDBRANCH  22  24
ENDBRANCH  20  22
ENDBRANCH   1  20
TORSDOF 13
