REMARK VINA RESULT:    -6.756      2.495      3.876
REMARK INTER + INTRA:         -16.899
REMARK INTER:                 -14.486
REMARK INTRA:                  -2.413
REMARK UNBOUND:                -3.824
REMARK  Name = lig_assembled_81.pdb
REMARK  17 active torsions:
REMARK  status: ('A' for Active; 'I' for Inactive)
REMARK    1  A    between atoms: _2  and  _11
REMARK    2  A    between atoms: _7  and  _23
REMARK    3  A    between atoms: _8  and  _9
REMARK    4  A    between atoms: _8  and  _25
REMARK    5  A    between atoms: _13  and  _14
REMARK    6  A    between atoms: _20  and  _21
REMARK    7  A    between atoms: _21  and  _22
REMARK    8  A    between atoms: _22  and  _24
REMARK    9  A    between atoms: _23  and  _24
REMARK   10  A    between atoms: _25  and  _27
REMARK   11  A    between atoms: _26  and  _31
REMARK   12  A    between atoms: _27  and  _30
REMARK   13  A    between atoms: _35  and  _45
REMARK   14  A    between atoms: _37  and  _38
REMARK   15  A    between atoms: _39  and  _41
REMARK   16  A    between atoms: _41  and  _43
REMARK   17  A    between atoms: _43  and  _45
REMARK                            x       y       z     vdW  Elec       q    Type
REMARK                         _______ _______ _______ _____ _____    ______ ____
ROOT
ATOM      1  C   UNL     1      26.176  14.853  -2.358  0.00  0.00    +0.096 C 
ENDROOT
BRANCH   1   3
ATOM      2  N   UNL     1      24.616  14.036  -4.065  0.00  0.00    -0.133 NA
ATOM      3  C   UNL     1      24.828  14.806  -2.961  0.00  0.00    +0.066 C 
ATOM      4  C   UNL     1      23.649  15.449  -2.637  0.00  0.00    +0.120 C 
ATOM      5  N   UNL     1      22.707  14.917  -3.508  0.00  0.00    -0.187 N 
ATOM      6  N   UNL     1      23.368  14.224  -4.458  0.00  0.00    -0.010 NA
BRANCH   5   7
ATOM      7  C   UNL     1      21.302  15.198  -3.569  0.00  0.00    +0.150 A 
ATOM      8  C   UNL     1      20.262  14.283  -3.265  0.00  0.00    +0.022 A 
ATOM      9  C   UNL     1      18.965  14.814  -3.495  0.00  0.00    +0.081 A 
ATOM     10  N   UNL     1      18.783  16.053  -4.028  0.00  0.00    -0.214 NA
ATOM     11  C   UNL     1      19.836  16.806  -4.296  0.00  0.00    +0.215 A 
ATOM     12  N   UNL     1      19.633  18.015  -4.917  0.00  0.00    -0.327 N 
ATOM     13  H   UNL     1      18.692  18.348  -4.771  0.00  0.00    +0.145 HD
ATOM     14  H   UNL     1      20.404  18.647  -4.767  0.00  0.00    +0.145 HD
ATOM     15  N   UNL     1      21.076  16.468  -4.004  0.00  0.00    -0.198 NA
BRANCH   9  16
ATOM     16  C   UNL     1      17.629  14.151  -3.239  0.00  0.00    +0.001 A 
ATOM     17  C   UNL     1      16.644  14.632  -2.359  0.00  0.00    +0.010 A 
ATOM     18  C   UNL     1      15.415  13.977  -2.172  0.00  0.00    +0.001 A 
ATOM     19  C   UNL     1      15.099  12.849  -2.906  0.00  0.00    +0.000 A 
ATOM     20  C   UNL     1      16.021  12.365  -3.833  0.00  0.00    +0.001 A 
ATOM     21  C   UNL     1      17.262  13.001  -3.980  0.00  0.00    +0.010 A 
ENDBRANCH   9  16
BRANCH   8  22
ATOM     22  C   UNL     1      20.368  12.891  -2.638  0.00  0.00    +0.069 C 
BRANCH  22  23
ATOM     23  C   UNL     1      20.791  12.711  -1.192  0.00  0.00    +0.164 C 
BRANCH  23  24
ATOM     24  O   UNL     1      21.389  11.453  -0.857  0.00  0.00    -0.380 OA
BRANCH  24  25
ATOM     25  C   UNL     1      22.391  11.735   0.139  0.00  0.00    +0.156 C 
ATOM     26  C   UNL     1      23.651  12.294  -0.478  0.00  0.00    +0.034 C 
ENDBRANCH  24  25
ENDBRANCH  23  24
ENDBRANCH  22  23
ENDBRANCH   8  22
ENDBRANCH   5   7
ENDBRANCH   1   3
BRANCH   1  27
ATOM     27  C   UNL     1      26.825  16.228  -2.606  0.00  0.00    +0.240 C 
BRANCH  27  28
ATOM     28  O   UNL     1      27.937  16.574  -1.813  0.00  0.00    -0.450 OA
BRANCH  28  29
ATOM     29  C   UNL     1      28.200  16.956  -0.606  0.00  0.00    +0.400 C 
ATOM     30  N   UNL     1      28.546  15.956   0.272  0.00  0.00    -0.278 N 
ATOM     31  H   UNL     1      28.905  16.491   1.125  0.00  0.00    +0.152 HD
ATOM     32  O   UNL     1      28.196  18.113  -0.195  0.00  0.00    -0.226 OA
BRANCH  30  33
ATOM     33  C   UNL     1      28.627  14.527   0.562  0.00  0.00    +0.152 C 
BRANCH  33  34
ATOM     34  C   UNL     1      29.768  14.088   1.503  0.00  0.00    +0.193 C 
ATOM     35  O   UNL     1      29.994  12.683   1.254  0.00  0.00    -0.219 OA
BRANCH  34  36
ATOM     36  C   UNL     1      31.153  14.742   1.301  0.00  0.00    +0.212 C 
ATOM     37  O   UNL     1      31.172  16.061   1.872  0.00  0.00    -0.218 OA
BRANCH  36  38
ATOM     38  C   UNL     1      32.335  13.906   1.924  0.00  0.00    +0.171 C 
ATOM     39  O   UNL     1      32.785  14.435   3.167  0.00  0.00    -0.343 OA
ATOM     40  C   UNL     1      33.962  14.045   3.810  0.00  0.00    +0.220 C 
ATOM     41  C   UNL     1      35.172  14.090   2.861  0.00  0.00    +0.076 C 
ATOM     42  C   UNL     1      34.813  13.267   1.613  0.00  0.00    +0.177 C 
ATOM     43  O   UNL     1      35.916  13.244   0.718  0.00  0.00    -0.221 OA
ATOM     44  C   UNL     1      33.540  13.857   0.929  0.00  0.00    +0.155 C 
BRANCH  44  45
ATOM     45  N   UNL     1      33.199  13.082  -0.261  0.00  0.00    -0.202 NA
ATOM     46  C   UNL     1      33.101  13.478  -1.556  0.00  0.00    +0.242 C 
ATOM     47  C   UNL     1      33.024  12.418  -2.624  0.00  0.00    +0.096 C 
ATOM     48  O   UNL     1      33.080  14.677  -1.824  0.00  0.00    -0.273 OA
ENDBRANCH  44  45
BRANCH  40  49
ATOM     49  C   UNL     1      33.844  12.608   4.559  0.00  0.00    +0.391 C 
ATOM     50  O   UNL     1      35.115  12.183   4.698  0.00  0.00    -0.243 OA
ATOM     51  O   UNL     1      32.588  12.532   5.017  0.00  0.00    -0.243 OA
ENDBRANCH  40  49
ENDBRANCH  36  38
ENDBRANCH  34  36
ENDBRANCH  33  34
ENDBRANCH  30  33
ENDBRANCH  28  29
ENDBRANCH  27  28
ENDBRANCH   1  27
TORSDOF 16
