REMARK VINA RESULT:    -7.404      3.123      8.357
REMARK INTER + INTRA:         -15.222
REMARK INTER:                 -12.185
REMARK INTRA:                  -3.037
REMARK UNBOUND:                -1.975
REMARK  Name = lig_assembled_77.pdb
REMARK  14 active torsions:
REMARK  status: ('A' for Active; 'I' for Inactive)
REMARK    1  A    between atoms: _2  and  _9
REMARK    2  A    between atoms: _3  and  _16
REMARK    3  A    between atoms: _6  and  _7
REMARK    4  A    between atoms: _6  and  _22
REMARK    5  A    between atoms: _12  and  _50
REMARK    6  A    between atoms: _13  and  _50
REMARK    7  A    between atoms: _22  and  _24
REMARK    8  A    between atoms: _23  and  _28
REMARK    9  A    between atoms: _24  and  _27
REMARK   10  A    between atoms: _32  and  _42
REMARK   11  A    between atoms: _34  and  _35
REMARK   12  A    between atoms: _36  and  _38
REMARK   13  A    between atoms: _38  and  _40
REMARK   14  A    between atoms: _40  and  _42
REMARK                            x       y       z     vdW  Elec       q    Type
REMARK                         _______ _______ _______ _____ _____    ______ ____
ROOT
ATOM      1  C   UNL     1      33.618  13.593   1.402  0.00  0.00    +0.240 C 
ENDROOT
BRANCH   1   2
ATOM      2  C   UNL     1      33.317  12.378   2.301  0.00  0.00    +0.100 C 
BRANCH   2   4
ATOM      3  N   UNL     1      31.378  12.959   3.720  0.00  0.00    -0.134 NA
ATOM      4  C   UNL     1      31.879  12.320   2.625  0.00  0.00    +0.086 A 
ATOM      5  C   UNL     1      30.852  11.684   1.966  0.00  0.00    +0.139 A 
ATOM      6  N   UNL     1      29.724  11.975   2.700  0.00  0.00    -0.220 N 
ATOM      7  N   UNL     1      30.071  12.739   3.765  0.00  0.00    -0.061 NA
BRANCH   6   8
ATOM      8  C   UNL     1      28.372  11.637   2.429  0.00  0.00    +0.067 A 
ATOM      9  C   UNL     1      27.318  12.313   3.063  0.00  0.00    +0.030 A 
ATOM     10  C   UNL     1      26.000  11.888   2.876  0.00  0.00    +0.029 A 
ATOM     11  C   UNL     1      25.737  10.789   2.055  0.00  0.00    +0.094 A 
ATOM     12  C   UNL     1      26.768  10.167   1.348  0.00  0.00    +0.029 A 
ATOM     13  C   UNL     1      28.087  10.582   1.544  0.00  0.00    +0.030 A 
BRANCH  11  14
ATOM     14  S   UNL     1      24.063  10.205   1.875  0.00  0.00    +0.025 S 
ATOM     15  O   UNL     1      24.150   8.948   1.151  0.00  0.00    -0.164 OA
ATOM     16  O   UNL     1      23.441  10.263   3.184  0.00  0.00    -0.164 OA
BRANCH  14  17
ATOM     17  C   UNL     1      23.164  11.342   0.841  0.00  0.00    +0.094 A 
ATOM     18  C   UNL     1      21.782  11.491   0.968  0.00  0.00    +0.029 A 
ATOM     19  C   UNL     1      21.099  12.348   0.098  0.00  0.00    +0.024 A 
ATOM     20  C   UNL     1      21.785  13.092  -0.870  0.00  0.00    +0.025 A 
ATOM     21  C   UNL     1      23.164  12.906  -1.004  0.00  0.00    +0.024 A 
ATOM     22  C   UNL     1      23.859  12.053  -0.141  0.00  0.00    +0.029 A 
BRANCH  20  23
ATOM     23  N   UNL     1      21.077  13.808  -1.840  0.00  0.00    -0.358 N 
ATOM     24  H   UNL     1      20.227  13.359  -2.165  0.00  0.00    +0.142 HD
ATOM     25  H   UNL     1      20.938  14.789  -1.619  0.00  0.00    +0.142 HD
ENDBRANCH  20  23
ENDBRANCH  14  17
ENDBRANCH  11  14
ENDBRANCH   6   8
ENDBRANCH   2   4
ENDBRANCH   1   2
BRANCH   1  26
ATOM     26  O   UNL     1      32.717  13.864   0.353  0.00  0.00    -0.450 OA
BRANCH  26  27
ATOM     27  C   UNL     1      32.553  14.719  -0.602  0.00  0.00    +0.400 C 
ATOM     28  N   UNL     1      31.641  15.718  -0.356  0.00  0.00    -0.278 N 
ATOM     29  H   UNL     1      31.802  16.403  -1.161  0.00  0.00    +0.152 HD
ATOM     30  O   UNL     1      33.152  14.732  -1.674  0.00  0.00    -0.226 OA
BRANCH  28  31
ATOM     31  C   UNL     1      30.566  16.243   0.482  0.00  0.00    +0.152 C 
BRANCH  31  32
ATOM     32  C   UNL     1      29.134  16.076  -0.065  0.00  0.00    +0.193 C 
ATOM     33  O   UNL     1      29.035  16.918  -1.235  0.00  0.00    -0.219 OA
BRANCH  32  34
ATOM     34  C   UNL     1      28.718  14.675  -0.563  0.00  0.00    +0.212 C 
ATOM     35  O   UNL     1      27.780  14.077   0.346  0.00  0.00    -0.218 OA
BRANCH  34  36
ATOM     36  C   UNL     1      28.082  14.688  -2.006  0.00  0.00    +0.171 C 
ATOM     37  O   UNL     1      26.734  15.145  -2.007  0.00  0.00    -0.343 OA
ATOM     38  C   UNL     1      25.863  15.030  -3.093  0.00  0.00    +0.220 C 
ATOM     39  C   UNL     1      25.829  13.595  -3.647  0.00  0.00    +0.076 C 
ATOM     40  C   UNL     1      27.280  13.175  -3.933  0.00  0.00    +0.177 C 
ATOM     41  O   UNL     1      27.302  11.867  -4.486  0.00  0.00    -0.221 OA
ATOM     42  C   UNL     1      28.130  13.253  -2.627  0.00  0.00    +0.155 C 
BRANCH  42  43
ATOM     43  N   UNL     1      29.508  12.848  -2.894  0.00  0.00    -0.202 NA
ATOM     44  C   UNL     1      30.246  11.858  -2.330  0.00  0.00    +0.242 C 
ATOM     45  C   UNL     1      31.539  11.463  -2.995  0.00  0.00    +0.096 C 
ATOM     46  O   UNL     1      29.846  11.311  -1.304  0.00  0.00    -0.273 OA
ENDBRANCH  42  43
BRANCH  38  47
ATOM     47  C   UNL     1      26.146  16.117  -4.267  0.00  0.00    +0.391 C 
ATOM     48  O   UNL     1      25.683  15.540  -5.393  0.00  0.00    -0.243 OA
ATOM     49  O   UNL     1      26.442  17.265  -3.645  0.00  0.00    -0.243 OA
ENDBRANCH  38  47
ENDBRANCH  34  36
ENDBRANCH  32  34
ENDBRANCH  31  32
ENDBRANCH  28  31
ENDBRANCH  26  27
ENDBRANCH   1  26
TORSDOF 14
