REMARK VINA RESULT:    -7.170      2.136      3.909
REMARK INTER + INTRA:         -14.196
REMARK INTER:                 -12.552
REMARK INTRA:                  -1.644
REMARK UNBOUND:                -1.577
REMARK  Name = lig_assembled_66.pdb
REMARK  13 active torsions:
REMARK  status: ('A' for Active; 'I' for Inactive)
REMARK    1  A    between atoms: _2  and  _9
REMARK    2  A    between atoms: _6  and  _7
REMARK    3  A    between atoms: _6  and  _16
REMARK    4  A    between atoms: _9  and  _10
REMARK    5  A    between atoms: _14  and  _15
REMARK    6  A    between atoms: _16  and  _18
REMARK    7  A    between atoms: _17  and  _22
REMARK    8  A    between atoms: _18  and  _21
REMARK    9  A    between atoms: _26  and  _36
REMARK   10  A    between atoms: _28  and  _29
REMARK   11  A    between atoms: _30  and  _32
REMARK   12  A    between atoms: _32  and  _34
REMARK   13  A    between atoms: _34  and  _36
REMARK                            x       y       z     vdW  Elec       q    Type
REMARK                         _______ _______ _______ _____ _____    ______ ____
ROOT
ATOM      1  C   UNL     1      28.333  17.644  -0.513  0.00  0.00    +0.400 C 
ATOM      2  N   UNL     1      29.527  17.584   0.166  0.00  0.00    -0.278 N 
ATOM      3  H   UNL     1      29.471  18.413   0.838  0.00  0.00    +0.152 HD
ATOM      4  O   UNL     1      27.477  18.428  -0.110  0.00  0.00    -0.226 OA
ENDROOT
BRANCH   1   5
ATOM      5  O   UNL     1      28.237  16.875  -1.547  0.00  0.00    -0.450 OA
BRANCH   5   6
ATOM      6  C   UNL     1      27.345  15.937  -2.103  0.00  0.00    +0.240 C 
BRANCH   6   7
ATOM      7  C   UNL     1      26.180  16.480  -2.952  0.00  0.00    +0.100 C 
BRANCH   7   9
ATOM      8  N   UNL     1      25.784  14.164  -3.737  0.00  0.00    -0.134 NA
ATOM      9  C   UNL     1      25.284  15.380  -3.356  0.00  0.00    +0.086 A 
ATOM     10  C   UNL     1      23.907  15.331  -3.390  0.00  0.00    +0.134 A 
ATOM     11  N   UNL     1      23.632  14.041  -3.744  0.00  0.00    -0.247 N 
ATOM     12  N   UNL     1      24.763  13.348  -3.970  0.00  0.00    -0.065 NA
BRANCH  11  13
ATOM     13  C   UNL     1      22.361  13.350  -3.636  0.00  0.00    +0.180 C 
BRANCH  13  14
ATOM     14  C   UNL     1      21.950  13.075  -2.212  0.00  0.00    -0.025 A 
ATOM     15  C   UNL     1      20.881  13.777  -1.635  0.00  0.00    +0.005 A 
ATOM     16  C   UNL     1      20.440  13.471  -0.346  0.00  0.00    +0.002 A 
ATOM     17  C   UNL     1      21.075  12.471   0.391  0.00  0.00    +0.019 A 
ATOM     18  C   UNL     1      22.164  11.786  -0.154  0.00  0.00    +0.052 A 
ATOM     19  C   UNL     1      22.598  12.086  -1.452  0.00  0.00    +0.024 A 
BRANCH  18  20
ATOM     20  C   UNL     1      22.828  10.771   0.608  0.00  0.00    +0.099 C 
ATOM     21  N   UNL     1      23.376   9.950   1.222  0.00  0.00    -0.191 NA
ENDBRANCH  18  20
ENDBRANCH  13  14
ENDBRANCH  11  13
ENDBRANCH   7   9
ENDBRANCH   6   7
ENDBRANCH   5   6
ENDBRANCH   1   5
BRANCH   2  22
ATOM     22  C   UNL     1      30.801  16.904   0.384  0.00  0.00    +0.152 C 
BRANCH  22  23
ATOM     23  C   UNL     1      30.809  15.381   0.143  0.00  0.00    +0.193 C 
ATOM     24  O   UNL     1      31.794  15.128  -0.883  0.00  0.00    -0.219 OA
BRANCH  23  25
ATOM     25  C   UNL     1      31.235  14.473   1.318  0.00  0.00    +0.212 C 
ATOM     26  O   UNL     1      31.543  15.264   2.477  0.00  0.00    -0.218 OA
BRANCH  25  27
ATOM     27  C   UNL     1      30.142  13.407   1.711  0.00  0.00    +0.171 C 
ATOM     28  O   UNL     1      28.824  13.944   1.699  0.00  0.00    -0.343 OA
ATOM     29  C   UNL     1      27.706  13.300   2.234  0.00  0.00    +0.220 C 
ATOM     30  C   UNL     1      27.959  12.818   3.673  0.00  0.00    +0.076 C 
ATOM     31  C   UNL     1      29.246  11.976   3.659  0.00  0.00    +0.177 C 
ATOM     32  O   UNL     1      29.506  11.472   4.961  0.00  0.00    -0.221 OA
ATOM     33  C   UNL     1      30.441  12.831   3.134  0.00  0.00    +0.155 C 
BRANCH  33  34
ATOM     34  N   UNL     1      31.667  12.037   3.125  0.00  0.00    -0.202 NA
ATOM     35  C   UNL     1      32.778  12.148   3.897  0.00  0.00    +0.242 C 
ATOM     36  C   UNL     1      33.775  11.018   3.883  0.00  0.00    +0.096 C 
ATOM     37  O   UNL     1      32.944  13.155   4.583  0.00  0.00    -0.273 OA
ENDBRANCH  33  34
BRANCH  29  38
ATOM     38  C   UNL     1      27.137  12.102   1.295  0.00  0.00    +0.391 C 
ATOM     39  O   UNL     1      27.798  12.232   0.128  0.00  0.00    -0.243 OA
ATOM     40  O   UNL     1      26.472  11.276   2.112  0.00  0.00    -0.243 OA
ENDBRANCH  29  38
ENDBRANCH  25  27
ENDBRANCH  23  25
ENDBRANCH  22  23
ENDBRANCH   2  22
TORSDOF 13
