REMARK VINA RESULT:    -6.835      1.718      3.106
REMARK INTER + INTRA:         -13.511
REMARK INTER:                 -12.253
REMARK INTRA:                  -1.258
REMARK UNBOUND:                -1.681
REMARK  Name = lig_assembled_59.pdb
REMARK  13 active torsions:
REMARK  status: ('A' for Active; 'I' for Inactive)
REMARK    1  A    between atoms: _2  and  _9
REMARK    2  A    between atoms: _6  and  _7
REMARK    3  A    between atoms: _6  and  _15
REMARK    4  A    between atoms: _12  and  _13
REMARK    5  A    between atoms: _13  and  _14
REMARK    6  A    between atoms: _15  and  _17
REMARK    7  A    between atoms: _16  and  _21
REMARK    8  A    between atoms: _17  and  _20
REMARK    9  A    between atoms: _25  and  _35
REMARK   10  A    between atoms: _27  and  _28
REMARK   11  A    between atoms: _29  and  _31
REMARK   12  A    between atoms: _31  and  _33
REMARK   13  A    between atoms: _33  and  _35
REMARK                            x       y       z     vdW  Elec       q    Type
REMARK                         _______ _______ _______ _____ _____    ______ ____
ROOT
ATOM      1  C   UNL     1      27.904  17.276  -0.910  0.00  0.00    +0.400 C 
ATOM      2  N   UNL     1      28.693  16.477  -0.117  0.00  0.00    -0.278 N 
ATOM      3  H   UNL     1      29.103  17.163   0.594  0.00  0.00    +0.152 HD
ATOM      4  O   UNL     1      27.709  18.435  -0.553  0.00  0.00    -0.226 OA
ENDROOT
BRANCH   1   5
ATOM      5  O   UNL     1      27.461  16.726  -1.993  0.00  0.00    -0.450 OA
BRANCH   5   6
ATOM      6  C   UNL     1      26.839  17.096  -3.201  0.00  0.00    +0.240 C 
BRANCH   6   7
ATOM      7  C   UNL     1      26.145  15.986  -4.012  0.00  0.00    +0.100 C 
BRANCH   7   9
ATOM      8  N   UNL     1      23.837  15.838  -3.138  0.00  0.00    -0.134 NA
ATOM      9  C   UNL     1      25.105  15.330  -3.196  0.00  0.00    +0.087 A 
ATOM     10  C   UNL     1      25.176  14.206  -2.409  0.00  0.00    +0.141 A 
ATOM     11  N   UNL     1      23.911  14.063  -1.883  0.00  0.00    -0.202 N 
ATOM     12  N   UNL     1      23.115  15.062  -2.342  0.00  0.00    -0.059 NA
BRANCH  11  13
ATOM     13  C   UNL     1      23.458  13.058  -0.986  0.00  0.00    +0.156 A 
ATOM     14  C   UNL     1      22.089  12.832  -0.859  0.00  0.00    +0.048 A 
ATOM     15  C   UNL     1      21.649  11.875   0.054  0.00  0.00    +0.011 A 
ATOM     16  C   UNL     1      22.576  11.158   0.814  0.00  0.00    -0.004 A 
ATOM     17  C   UNL     1      23.921  11.450   0.618  0.00  0.00    +0.119 A 
ATOM     18  N   UNL     1      24.384  12.369  -0.264  0.00  0.00    -0.236 NA
BRANCH  16  19
ATOM     19  C   UNL     1      22.121  10.190   1.867  0.00  0.00    +0.192 C 
BRANCH  19  20
ATOM     20  O   UNL     1      23.213   9.461   2.405  0.00  0.00    -0.390 OA
ATOM     21  H   UNL     1      23.384   8.719   1.800  0.00  0.00    +0.210 HD
ENDBRANCH  19  20
ENDBRANCH  16  19
ENDBRANCH  11  13
ENDBRANCH   7   9
ENDBRANCH   6   7
ENDBRANCH   5   6
ENDBRANCH   1   5
BRANCH   2  22
ATOM     22  C   UNL     1      29.200  15.143   0.192  0.00  0.00    +0.152 C 
BRANCH  22  23
ATOM     23  C   UNL     1      30.722  14.943   0.045  0.00  0.00    +0.193 C 
ATOM     24  O   UNL     1      31.245  16.154  -0.544  0.00  0.00    -0.219 OA
BRANCH  23  25
ATOM     25  C   UNL     1      31.547  14.755   1.337  0.00  0.00    +0.212 C 
ATOM     26  O   UNL     1      31.314  15.845   2.244  0.00  0.00    -0.218 OA
BRANCH  25  27
ATOM     27  C   UNL     1      31.237  13.403   2.085  0.00  0.00    +0.171 C 
ATOM     28  O   UNL     1      29.882  13.310   2.511  0.00  0.00    -0.343 OA
ATOM     29  C   UNL     1      29.398  12.345   3.397  0.00  0.00    +0.220 C 
ATOM     30  C   UNL     1      30.255  12.260   4.672  0.00  0.00    +0.076 C 
ATOM     31  C   UNL     1      31.716  12.064   4.236  0.00  0.00    +0.177 C 
ATOM     32  O   UNL     1      32.548  11.940   5.381  0.00  0.00    -0.221 OA
ATOM     33  C   UNL     1      32.171  13.251   3.331  0.00  0.00    +0.155 C 
BRANCH  33  34
ATOM     34  N   UNL     1      33.561  13.073   2.920  0.00  0.00    -0.202 NA
ATOM     35  C   UNL     1      34.675  13.739   3.315  0.00  0.00    +0.242 C 
ATOM     36  C   UNL     1      36.019  13.159   2.958  0.00  0.00    +0.096 C 
ATOM     37  O   UNL     1      34.564  14.786   3.950  0.00  0.00    -0.273 OA
ENDBRANCH  33  34
BRANCH  29  38
ATOM     38  C   UNL     1      29.197  10.884   2.715  0.00  0.00    +0.391 C 
ATOM     39  O   UNL     1      29.070  10.031   3.751  0.00  0.00    -0.243 OA
ATOM     40  O   UNL     1      28.934  11.112   1.423  0.00  0.00    -0.243 OA
ENDBRANCH  29  38
ENDBRANCH  25  27
ENDBRANCH  23  25
ENDBRANCH  22  23
ENDBRANCH   2  22
TORSDOF 13
