REMARK VINA RESULT:    -6.198      2.858      8.017
REMARK INTER + INTRA:         -14.150
REMARK INTER:                 -11.271
REMARK INTRA:                  -2.880
REMARK UNBOUND:                -2.880
REMARK  Name = lig_assembled_21.pdb
REMARK  15 active torsions:
REMARK  status: ('A' for Active; 'I' for Inactive)
REMARK    1  A    between atoms: _2  and  _8
REMARK    2  A    between atoms: _5  and  _6
REMARK    3  A    between atoms: _5  and  _18
REMARK    4  A    between atoms: _8  and  _9
REMARK    5  A    between atoms: _10  and  _17
REMARK    6  A    between atoms: _11  and  _12
REMARK    7  A    between atoms: _11  and  _17
REMARK    8  A    between atoms: _18  and  _20
REMARK    9  A    between atoms: _19  and  _24
REMARK   10  A    between atoms: _20  and  _23
REMARK   11  A    between atoms: _28  and  _38
REMARK   12  A    between atoms: _30  and  _31
REMARK   13  A    between atoms: _32  and  _34
REMARK   14  A    between atoms: _34  and  _36
REMARK   15  A    between atoms: _36  and  _38
REMARK                            x       y       z     vdW  Elec       q    Type
REMARK                         _______ _______ _______ _____ _____    ______ ____
ROOT
ATOM      1  C   UNL     1      25.516  15.945  -4.082  0.00  0.00    +0.400 C 
ATOM      2  N   UNL     1      24.192  15.592  -3.966  0.00  0.00    -0.278 N 
ATOM      3  H   UNL     1      23.927  15.301  -4.959  0.00  0.00    +0.152 HD
ATOM      4  O   UNL     1      26.093  15.693  -5.137  0.00  0.00    -0.226 OA
ENDROOT
BRANCH   2   5
ATOM      5  C   UNL     1      23.019  15.427  -3.113  0.00  0.00    +0.152 C 
BRANCH   5   6
ATOM      6  C   UNL     1      23.092  14.295  -2.067  0.00  0.00    +0.193 C 
ATOM      7  O   UNL     1      21.847  14.325  -1.335  0.00  0.00    -0.219 OA
BRANCH   6   8
ATOM      8  C   UNL     1      23.198  12.845  -2.590  0.00  0.00    +0.212 C 
ATOM      9  O   UNL     1      23.927  12.810  -3.827  0.00  0.00    -0.218 OA
BRANCH   8  10
ATOM     10  C   UNL     1      23.888  11.863  -1.569  0.00  0.00    +0.171 C 
ATOM     11  O   UNL     1      22.953  11.220  -0.709  0.00  0.00    -0.343 OA
ATOM     12  C   UNL     1      23.301  10.496   0.434  0.00  0.00    +0.220 C 
ATOM     13  C   UNL     1      24.246  11.294   1.349  0.00  0.00    +0.076 C 
ATOM     14  C   UNL     1      25.434  11.761   0.491  0.00  0.00    +0.177 C 
ATOM     15  O   UNL     1      26.361  12.472   1.300  0.00  0.00    -0.221 OA
ATOM     16  C   UNL     1      24.928  12.638  -0.696  0.00  0.00    +0.155 C 
BRANCH  16  17
ATOM     17  N   UNL     1      26.055  13.090  -1.509  0.00  0.00    -0.202 NA
ATOM     18  C   UNL     1      26.872  12.382  -2.329  0.00  0.00    +0.242 C 
ATOM     19  C   UNL     1      27.766  13.139  -3.276  0.00  0.00    +0.096 C 
ATOM     20  O   UNL     1      26.864  11.153  -2.282  0.00  0.00    -0.273 OA
ENDBRANCH  16  17
BRANCH  12  21
ATOM     21  C   UNL     1      23.892   9.018   0.108  0.00  0.00    +0.391 C 
ATOM     22  O   UNL     1      24.594   8.675   1.206  0.00  0.00    -0.243 OA
ATOM     23  O   UNL     1      23.226   8.583  -0.968  0.00  0.00    -0.243 OA
ENDBRANCH  12  21
ENDBRANCH   8  10
ENDBRANCH   6   8
ENDBRANCH   5   6
ENDBRANCH   2   5
BRANCH   1  24
ATOM     24  O   UNL     1      26.026  16.548  -3.059  0.00  0.00    -0.450 OA
BRANCH  24  25
ATOM     25  C   UNL     1      27.140  17.348  -2.736  0.00  0.00    +0.240 C 
BRANCH  25  26
ATOM     26  C   UNL     1      27.407  17.625  -1.244  0.00  0.00    +0.100 C 
BRANCH  26  28
ATOM     27  N   UNL     1      29.777  17.530  -0.546  0.00  0.00    -0.134 NA
ATOM     28  C   UNL     1      28.598  16.881  -0.793  0.00  0.00    +0.086 A 
ATOM     29  C   UNL     1      28.756  15.541  -0.519  0.00  0.00    +0.134 A 
ATOM     30  N   UNL     1      30.029  15.453  -0.021  0.00  0.00    -0.247 N 
ATOM     31  N   UNL     1      30.645  16.647  -0.078  0.00  0.00    -0.065 NA
BRANCH  30  32
ATOM     32  C   UNL     1      30.633  14.268   0.580  0.00  0.00    +0.184 C 
BRANCH  32  33
ATOM     33  C   UNL     1      30.576  13.009  -0.251  0.00  0.00    +0.016 A 
ATOM     34  C   UNL     1      31.303  12.875  -1.448  0.00  0.00    +0.137 A 
ATOM     35  C   UNL     1      31.241  11.702  -2.200  0.00  0.00    +0.047 A 
ATOM     36  C   UNL     1      30.460  10.637  -1.754  0.00  0.00    +0.004 A 
ATOM     37  C   UNL     1      29.721  10.754  -0.579  0.00  0.00    +0.001 A 
ATOM     38  C   UNL     1      29.781  11.931   0.170  0.00  0.00    +0.009 A 
BRANCH  34  39
ATOM     39  O   UNL     1      32.025  14.012  -1.888  0.00  0.00    -0.426 OA
BRANCH  39  40
ATOM     40  C   UNL     1      33.395  13.975  -2.156  0.00  0.00    +0.309 C 
ATOM     41  O   UNL     1      33.933  13.720  -3.225  0.00  0.00    -0.251 OA
ATOM     42  C   UNL     1      34.143  14.382  -0.921  0.00  0.00    +0.136 C 
ENDBRANCH  39  40
ENDBRANCH  34  39
ENDBRANCH  32  33
ENDBRANCH  30  32
ENDBRANCH  26  28
ENDBRANCH  25  26
ENDBRANCH  24  25
ENDBRANCH   1  24
TORSDOF 14
