REMARK VINA RESULT:    -6.810      2.425      4.193
REMARK INTER + INTRA:         -13.562
REMARK INTER:                 -11.642
REMARK INTRA:                  -1.920
REMARK UNBOUND:                -1.577
REMARK  Name = lig_assembled_66.pdb
REMARK  13 active torsions:
REMARK  status: ('A' for Active; 'I' for Inactive)
REMARK    1  A    between atoms: _2  and  _9
REMARK    2  A    between atoms: _6  and  _7
REMARK    3  A    between atoms: _6  and  _16
REMARK    4  A    between atoms: _9  and  _10
REMARK    5  A    between atoms: _14  and  _15
REMARK    6  A    between atoms: _16  and  _18
REMARK    7  A    between atoms: _17  and  _22
REMARK    8  A    between atoms: _18  and  _21
REMARK    9  A    between atoms: _26  and  _36
REMARK   10  A    between atoms: _28  and  _29
REMARK   11  A    between atoms: _30  and  _32
REMARK   12  A    between atoms: _32  and  _34
REMARK   13  A    between atoms: _34  and  _36
REMARK                            x       y       z     vdW  Elec       q    Type
REMARK                         _______ _______ _______ _____ _____    ______ ____
ROOT
ATOM      1  C   UNL     1      26.805  13.423  -3.780  0.00  0.00    +0.400 C 
ATOM      2  N   UNL     1      26.984  12.347  -2.943  0.00  0.00    -0.278 N 
ATOM      3  H   UNL     1      27.050  11.519  -3.616  0.00  0.00    +0.152 HD
ATOM      4  O   UNL     1      26.939  13.246  -4.988  0.00  0.00    -0.226 OA
ENDROOT
BRANCH   1   5
ATOM      5  O   UNL     1      26.477  14.532  -3.203  0.00  0.00    -0.450 OA
BRANCH   5   6
ATOM      6  C   UNL     1      25.342  15.348  -3.024  0.00  0.00    +0.240 C 
BRANCH   6   7
ATOM      7  C   UNL     1      24.142  15.112  -3.960  0.00  0.00    +0.100 C 
BRANCH   7   9
ATOM      8  N   UNL     1      21.702  15.417  -3.659  0.00  0.00    -0.134 NA
ATOM      9  C   UNL     1      22.901  14.964  -3.177  0.00  0.00    +0.086 A 
ATOM     10  C   UNL     1      22.696  14.365  -1.952  0.00  0.00    +0.134 A 
ATOM     11  N   UNL     1      21.344  14.436  -1.773  0.00  0.00    -0.247 N 
ATOM     12  N   UNL     1      20.753  15.087  -2.791  0.00  0.00    -0.065 NA
BRANCH  11  13
ATOM     13  C   UNL     1      20.544  13.701  -0.812  0.00  0.00    +0.180 C 
BRANCH  13  14
ATOM     14  C   UNL     1      21.019  12.287  -0.596  0.00  0.00    -0.025 A 
ATOM     15  C   UNL     1      21.053  11.380  -1.665  0.00  0.00    +0.005 A 
ATOM     16  C   UNL     1      21.570  10.094  -1.493  0.00  0.00    +0.002 A 
ATOM     17  C   UNL     1      22.042   9.692  -0.244  0.00  0.00    +0.019 A 
ATOM     18  C   UNL     1      21.983  10.570   0.842  0.00  0.00    +0.052 A 
ATOM     19  C   UNL     1      21.474  11.864   0.665  0.00  0.00    +0.024 A 
BRANCH  18  20
ATOM     20  C   UNL     1      22.451  10.153   2.130  0.00  0.00    +0.099 C 
ATOM     21  N   UNL     1      22.821   9.814   3.177  0.00  0.00    -0.191 NA
ENDBRANCH  18  20
ENDBRANCH  13  14
ENDBRANCH  11  13
ENDBRANCH   7   9
ENDBRANCH   6   7
ENDBRANCH   5   6
ENDBRANCH   1   5
BRANCH   2  22
ATOM     22  C   UNL     1      27.136  11.841  -1.581  0.00  0.00    +0.152 C 
BRANCH  22  23
ATOM     23  C   UNL     1      26.481  12.683  -0.467  0.00  0.00    +0.193 C 
ATOM     24  O   UNL     1      25.740  11.765   0.366  0.00  0.00    -0.219 OA
BRANCH  23  25
ATOM     25  C   UNL     1      27.418  13.423   0.514  0.00  0.00    +0.212 C 
ATOM     26  O   UNL     1      27.454  12.745   1.781  0.00  0.00    -0.218 OA
BRANCH  25  27
ATOM     27  C   UNL     1      28.893  13.570  -0.021  0.00  0.00    +0.171 C 
ATOM     28  O   UNL     1      29.827  12.802   0.731  0.00  0.00    -0.343 OA
ATOM     29  C   UNL     1      31.215  12.933   0.633  0.00  0.00    +0.220 C 
ATOM     30  C   UNL     1      31.660  14.400   0.764  0.00  0.00    +0.076 C 
ATOM     31  C   UNL     1      30.858  15.221  -0.260  0.00  0.00    +0.177 C 
ATOM     32  O   UNL     1      31.261  16.582  -0.208  0.00  0.00    -0.221 OA
ATOM     33  C   UNL     1      29.329  15.071   0.011  0.00  0.00    +0.155 C 
BRANCH  33  34
ATOM     34  N   UNL     1      28.564  15.855  -0.956  0.00  0.00    -0.202 NA
ATOM     35  C   UNL     1      28.140  17.142  -0.888  0.00  0.00    +0.242 C 
ATOM     36  C   UNL     1      27.626  17.793  -2.146  0.00  0.00    +0.096 C 
ATOM     37  O   UNL     1      28.186  17.741   0.185  0.00  0.00    -0.273 OA
ENDBRANCH  33  34
BRANCH  29  38
ATOM     38  C   UNL     1      31.838  12.237  -0.696  0.00  0.00    +0.391 C 
ATOM     39  O   UNL     1      33.074  12.760  -0.815  0.00  0.00    -0.243 OA
ATOM     40  O   UNL     1      31.030  11.210  -0.989  0.00  0.00    -0.243 OA
ENDBRANCH  29  38
ENDBRANCH  25  27
ENDBRANCH  23  25
ENDBRANCH  22  23
ENDBRANCH   2  22
TORSDOF 13
