REMARK VINA RESULT:    -6.120      2.313      4.105
REMARK INTER + INTRA:         -12.667
REMARK INTER:                 -11.786
REMARK INTRA:                  -0.880
REMARK UNBOUND:                -1.716
REMARK  Name = lig_assembled_32.pdb
REMARK  14 active torsions:
REMARK  status: ('A' for Active; 'I' for Inactive)
REMARK    1  A    between atoms: _2  and  _8
REMARK    2  A    between atoms: _4  and  _9
REMARK    3  A    between atoms: _4  and  _10
REMARK    4  A    between atoms: _5  and  _6
REMARK    5  A    between atoms: _5  and  _12
REMARK    6  A    between atoms: _8  and  _9
REMARK    7  A    between atoms: _12  and  _14
REMARK    8  A    between atoms: _13  and  _18
REMARK    9  A    between atoms: _14  and  _17
REMARK   10  A    between atoms: _22  and  _32
REMARK   11  A    between atoms: _24  and  _25
REMARK   12  A    between atoms: _26  and  _28
REMARK   13  A    between atoms: _28  and  _30
REMARK   14  A    between atoms: _30  and  _32
REMARK                            x       y       z     vdW  Elec       q    Type
REMARK                         _______ _______ _______ _____ _____    ______ ____
ROOT
ATOM      1  C   UNL     1      30.651  16.595   0.251  0.00  0.00    +0.152 C 
ENDROOT
BRANCH   1   3
ATOM      2  C   UNL     1      28.276  17.670  -0.555  0.00  0.00    +0.400 C 
ATOM      3  N   UNL     1      29.443  17.406   0.123  0.00  0.00    -0.278 N 
ATOM      4  H   UNL     1      29.436  18.123   0.916  0.00  0.00    +0.152 HD
ATOM      5  O   UNL     1      27.476  18.452  -0.047  0.00  0.00    -0.226 OA
BRANCH   2   6
ATOM      6  O   UNL     1      28.147  17.081  -1.698  0.00  0.00    -0.450 OA
BRANCH   6   7
ATOM      7  C   UNL     1      27.328  16.116  -2.316  0.00  0.00    +0.240 C 
BRANCH   7   8
ATOM      8  C   UNL     1      26.812  16.425  -3.734  0.00  0.00    +0.100 C 
BRANCH   8  10
ATOM      9  N   UNL     1      25.220  15.078  -5.067  0.00  0.00    -0.134 NA
ATOM     10  C   UNL     1      25.487  15.813  -3.942  0.00  0.00    +0.086 A 
ATOM     11  C   UNL     1      24.361  15.845  -3.149  0.00  0.00    +0.133 A 
ATOM     12  N   UNL     1      23.446  15.125  -3.853  0.00  0.00    -0.251 N 
ATOM     13  N   UNL     1      23.963  14.664  -5.003  0.00  0.00    -0.065 NA
BRANCH  12  14
ATOM     14  C   UNL     1      22.074  14.830  -3.500  0.00  0.00    +0.156 C 
BRANCH  14  15
ATOM     15  C   UNL     1      21.102  15.248  -4.595  0.00  0.00    +0.143 C 
BRANCH  15  16
ATOM     16  C   UNL     1      20.616  16.647  -4.349  0.00  0.00    +0.306 C 
ATOM     17  O   UNL     1      19.768  17.218  -5.017  0.00  0.00    -0.251 OA
BRANCH  16  18
ATOM     18  O   UNL     1      21.232  17.235  -3.301  0.00  0.00    -0.481 OA
ATOM     19  H   UNL     1      20.939  18.150  -3.122  0.00  0.00    +0.295 HD
ENDBRANCH  16  18
ENDBRANCH  15  16
ENDBRANCH  14  15
ENDBRANCH  12  14
ENDBRANCH   8  10
ENDBRANCH   7   8
ENDBRANCH   6   7
ENDBRANCH   2   6
ENDBRANCH   1   3
BRANCH   1  20
ATOM     20  C   UNL     1      30.454  15.067   0.185  0.00  0.00    +0.193 C 
ATOM     21  O   UNL     1      31.239  14.596  -0.934  0.00  0.00    -0.219 OA
BRANCH  20  22
ATOM     22  C   UNL     1      30.951  14.229   1.384  0.00  0.00    +0.212 C 
ATOM     23  O   UNL     1      31.270  15.083   2.494  0.00  0.00    -0.218 OA
BRANCH  22  24
ATOM     24  C   UNL     1      29.909  13.147   1.863  0.00  0.00    +0.171 C 
ATOM     25  O   UNL     1      28.576  13.646   1.895  0.00  0.00    -0.343 OA
ATOM     26  C   UNL     1      27.504  12.990   2.503  0.00  0.00    +0.220 C 
ATOM     27  C   UNL     1      27.837  12.566   3.944  0.00  0.00    +0.076 C 
ATOM     28  C   UNL     1      29.146  11.760   3.898  0.00  0.00    +0.177 C 
ATOM     29  O   UNL     1      29.480  11.309   5.202  0.00  0.00    -0.221 OA
ATOM     30  C   UNL     1      30.290  12.629   3.288  0.00  0.00    +0.155 C 
BRANCH  30  31
ATOM     31  N   UNL     1      31.538  11.870   3.249  0.00  0.00    -0.202 NA
ATOM     32  C   UNL     1      32.641  11.973   4.032  0.00  0.00    +0.242 C 
ATOM     33  C   UNL     1      33.669  10.873   3.969  0.00  0.00    +0.096 C 
ATOM     34  O   UNL     1      32.776  12.949   4.767  0.00  0.00    -0.273 OA
ENDBRANCH  30  31
BRANCH  26  35
ATOM     35  C   UNL     1      26.929  11.745   1.632  0.00  0.00    +0.391 C 
ATOM     36  O   UNL     1      25.596  11.768   1.830  0.00  0.00    -0.243 OA
ATOM     37  O   UNL     1      27.928  11.365   0.826  0.00  0.00    -0.243 OA
ENDBRANCH  26  35
ENDBRANCH  22  24
ENDBRANCH  20  22
ENDBRANCH   1  20
TORSDOF 14
