REMARK VINA RESULT:    -5.930      2.471      5.073
REMARK INTER + INTRA:         -13.069
REMARK INTER:                 -10.996
REMARK INTRA:                  -2.073
REMARK UNBOUND:                -2.286
REMARK  Name = lig_assembled_62.pdb
REMARK  15 active torsions:
REMARK  status: ('A' for Active; 'I' for Inactive)
REMARK    1  A    between atoms: _2  and  _9
REMARK    2  A    between atoms: _5  and  _9
REMARK    3  A    between atoms: _6  and  _7
REMARK    4  A    between atoms: _6  and  _14
REMARK    5  A    between atoms: _9  and  _10
REMARK    6  A    between atoms: _10  and  _13
REMARK    7  A    between atoms: _11  and  _13
REMARK    8  A    between atoms: _14  and  _16
REMARK    9  A    between atoms: _15  and  _20
REMARK   10  A    between atoms: _16  and  _19
REMARK   11  A    between atoms: _24  and  _34
REMARK   12  A    between atoms: _26  and  _27
REMARK   13  A    between atoms: _28  and  _30
REMARK   14  A    between atoms: _30  and  _32
REMARK   15  A    between atoms: _32  and  _34
REMARK                            x       y       z     vdW  Elec       q    Type
REMARK                         _______ _______ _______ _____ _____    ______ ____
ROOT
ATOM      1  C   UNL     1      32.234  12.981  -4.476  0.00  0.00    +0.400 C 
ATOM      2  N   UNL     1      32.601  13.291  -3.188  0.00  0.00    -0.278 N 
ATOM      3  H   UNL     1      33.390  14.001  -3.319  0.00  0.00    +0.152 HD
ATOM      4  O   UNL     1      32.704  13.653  -5.390  0.00  0.00    -0.226 OA
ENDROOT
BRANCH   2   5
ATOM      5  C   UNL     1      32.392  13.102  -1.754  0.00  0.00    +0.152 C 
BRANCH   5   6
ATOM      6  C   UNL     1      32.931  14.218  -0.836  0.00  0.00    +0.193 C 
ATOM      7  O   UNL     1      33.365  15.293  -1.699  0.00  0.00    -0.219 OA
BRANCH   6   8
ATOM      8  C   UNL     1      31.936  14.885   0.139  0.00  0.00    +0.212 C 
ATOM      9  O   UNL     1      31.237  15.957  -0.513  0.00  0.00    -0.218 OA
BRANCH   8  10
ATOM     10  C   UNL     1      30.876  13.880   0.733  0.00  0.00    +0.171 C 
ATOM     11  O   UNL     1      29.536  14.321   0.542  0.00  0.00    -0.343 OA
ATOM     12  C   UNL     1      28.424  13.758   1.172  0.00  0.00    +0.220 C 
ATOM     13  C   UNL     1      28.625  13.647   2.693  0.00  0.00    +0.076 C 
ATOM     14  C   UNL     1      29.950  12.903   2.931  0.00  0.00    +0.177 C 
ATOM     15  O   UNL     1      30.165  12.737   4.326  0.00  0.00    -0.221 OA
ATOM     16  C   UNL     1      31.129  13.676   2.263  0.00  0.00    +0.155 C 
BRANCH  16  17
ATOM     17  N   UNL     1      32.390  12.976   2.493  0.00  0.00    -0.202 NA
ATOM     18  C   UNL     1      33.509  13.392   3.138  0.00  0.00    +0.242 C 
ATOM     19  C   UNL     1      34.556  12.368   3.488  0.00  0.00    +0.096 C 
ATOM     20  O   UNL     1      33.640  14.582   3.421  0.00  0.00    -0.273 OA
ENDBRANCH  16  17
BRANCH  12  21
ATOM     21  C   UNL     1      27.962  12.341   0.526  0.00  0.00    +0.391 C 
ATOM     22  O   UNL     1      28.829  12.120  -0.481  0.00  0.00    -0.243 OA
ATOM     23  O   UNL     1      27.112  11.794   1.403  0.00  0.00    -0.243 OA
ENDBRANCH  12  21
ENDBRANCH   8  10
ENDBRANCH   6   8
ENDBRANCH   5   6
ENDBRANCH   2   5
BRANCH   1  24
ATOM     24  O   UNL     1      31.438  11.971  -4.603  0.00  0.00    -0.450 OA
BRANCH  24  25
ATOM     25  C   UNL     1      30.154  11.679  -5.105  0.00  0.00    +0.240 C 
BRANCH  25  26
ATOM     26  C   UNL     1      28.999  11.586  -4.090  0.00  0.00    +0.100 C 
BRANCH  26  28
ATOM     27  N   UNL     1      27.865  13.262  -5.518  0.00  0.00    -0.134 NA
ATOM     28  C   UNL     1      28.056  12.703  -4.282  0.00  0.00    +0.086 A 
ATOM     29  C   UNL     1      27.254  13.351  -3.369  0.00  0.00    +0.134 A 
ATOM     30  N   UNL     1      26.612  14.304  -4.105  0.00  0.00    -0.237 N 
ATOM     31  N   UNL     1      26.978  14.240  -5.399  0.00  0.00    -0.065 NA
BRANCH  30  32
ATOM     32  C   UNL     1      25.624  15.284  -3.688  0.00  0.00    +0.219 C 
BRANCH  32  33
ATOM     33  C   UNL     1      26.291  16.615  -3.388  0.00  0.00    +0.237 C 
ATOM     34  O   UNL     1      27.473  16.742  -3.075  0.00  0.00    -0.274 OA
ATOM     35  N   UNL     1      25.511  17.728  -3.547  0.00  0.00    -0.328 N 
ATOM     36  H   UNL     1      24.560  17.704  -3.890  0.00  0.00    +0.145 HD
ATOM     37  H   UNL     1      25.933  18.630  -3.363  0.00  0.00    +0.145 HD
ENDBRANCH  32  33
BRANCH  32  38
ATOM     38  C   UNL     1      24.841  14.780  -2.478  0.00  0.00    +0.195 C 
BRANCH  38  39
ATOM     39  O   UNL     1      23.520  15.339  -2.498  0.00  0.00    -0.380 OA
ATOM     40  C   UNL     1      22.869  15.108  -3.741  0.00  0.00    +0.194 C 
ENDBRANCH  38  39
ENDBRANCH  32  38
ENDBRANCH  30  32
ENDBRANCH  26  28
ENDBRANCH  25  26
ENDBRANCH  24  25
ENDBRANCH   1  24
TORSDOF 14
