REMARK VINA RESULT:    -6.068      2.501     10.473
REMARK INTER + INTRA:         -13.320
REMARK INTER:                 -11.580
REMARK INTRA:                  -1.740
REMARK UNBOUND:                -2.286
REMARK  Name = lig_assembled_62.pdb
REMARK  15 active torsions:
REMARK  status: ('A' for Active; 'I' for Inactive)
REMARK    1  A    between atoms: _2  and  _9
REMARK    2  A    between atoms: _5  and  _9
REMARK    3  A    between atoms: _6  and  _7
REMARK    4  A    between atoms: _6  and  _14
REMARK    5  A    between atoms: _9  and  _10
REMARK    6  A    between atoms: _10  and  _13
REMARK    7  A    between atoms: _11  and  _13
REMARK    8  A    between atoms: _14  and  _16
REMARK    9  A    between atoms: _15  and  _20
REMARK   10  A    between atoms: _16  and  _19
REMARK   11  A    between atoms: _24  and  _34
REMARK   12  A    between atoms: _26  and  _27
REMARK   13  A    between atoms: _28  and  _30
REMARK   14  A    between atoms: _30  and  _32
REMARK   15  A    between atoms: _32  and  _34
REMARK                            x       y       z     vdW  Elec       q    Type
REMARK                         _______ _______ _______ _____ _____    ______ ____
ROOT
ATOM      1  C   UNL     1      28.000  17.756  -0.734  0.00  0.00    +0.400 C 
ATOM      2  N   UNL     1      27.219  17.468  -1.828  0.00  0.00    -0.278 N 
ATOM      3  H   UNL     1      26.223  17.544  -1.449  0.00  0.00    +0.152 HD
ATOM      4  O   UNL     1      27.446  18.181   0.277  0.00  0.00    -0.226 OA
ENDROOT
BRANCH   2   5
ATOM      5  C   UNL     1      27.143  17.128  -3.247  0.00  0.00    +0.152 C 
BRANCH   5   6
ATOM      6  C   UNL     1      26.008  16.165  -3.654  0.00  0.00    +0.193 C 
ATOM      7  O   UNL     1      26.070  16.035  -5.091  0.00  0.00    -0.219 OA
BRANCH   6   8
ATOM      8  C   UNL     1      26.082  14.713  -3.132  0.00  0.00    +0.212 C 
ATOM      9  O   UNL     1      26.789  14.663  -1.883  0.00  0.00    -0.218 OA
BRANCH   8  10
ATOM     10  C   UNL     1      24.666  14.048  -2.936  0.00  0.00    +0.171 C 
ATOM     11  O   UNL     1      23.852  14.756  -2.007  0.00  0.00    -0.343 OA
ATOM     12  C   UNL     1      22.661  14.264  -1.467  0.00  0.00    +0.220 C 
ATOM     13  C   UNL     1      22.840  12.849  -0.889  0.00  0.00    +0.076 C 
ATOM     14  C   UNL     1      23.461  11.974  -1.990  0.00  0.00    +0.177 C 
ATOM     15  O   UNL     1      23.611  10.642  -1.520  0.00  0.00    -0.221 OA
ATOM     16  C   UNL     1      24.829  12.572  -2.444  0.00  0.00    +0.155 C 
BRANCH  16  17
ATOM     17  N   UNL     1      25.426  11.740  -3.485  0.00  0.00    -0.202 NA
ATOM     18  C   UNL     1      25.026  11.532  -4.765  0.00  0.00    +0.242 C 
ATOM     19  C   UNL     1      25.985  10.861  -5.714  0.00  0.00    +0.096 C 
ATOM     20  O   UNL     1      23.905  11.893  -5.118  0.00  0.00    -0.273 OA
ENDBRANCH  16  17
BRANCH  12  21
ATOM     21  C   UNL     1      21.406  14.335  -2.495  0.00  0.00    +0.391 C 
ATOM     22  O   UNL     1      20.459  13.552  -1.942  0.00  0.00    -0.243 OA
ATOM     23  O   UNL     1      21.663  15.355  -3.324  0.00  0.00    -0.243 OA
ENDBRANCH  12  21
ENDBRANCH   8  10
ENDBRANCH   6   8
ENDBRANCH   5   6
ENDBRANCH   2   5
BRANCH   1  24
ATOM     24  O   UNL     1      29.263  17.518  -0.868  0.00  0.00    -0.450 OA
BRANCH  24  25
ATOM     25  C   UNL     1      30.230  16.597  -0.422  0.00  0.00    +0.240 C 
BRANCH  25  26
ATOM     26  C   UNL     1      29.756  15.464   0.509  0.00  0.00    +0.100 C 
BRANCH  26  28
ATOM     27  N   UNL     1      31.111  14.728   2.448  0.00  0.00    -0.134 NA
ATOM     28  C   UNL     1      30.914  14.762   1.093  0.00  0.00    +0.086 A 
ATOM     29  C   UNL     1      31.930  14.066   0.476  0.00  0.00    +0.134 A 
ATOM     30  N   UNL     1      32.721  13.647   1.506  0.00  0.00    -0.237 N 
ATOM     31  N   UNL     1      32.218  14.042   2.690  0.00  0.00    -0.065 NA
BRANCH  30  32
ATOM     32  C   UNL     1      33.935  12.851   1.473  0.00  0.00    +0.219 C 
BRANCH  32  33
ATOM     33  C   UNL     1      34.975  13.431   2.417  0.00  0.00    +0.237 C 
ATOM     34  O   UNL     1      35.795  12.760   3.041  0.00  0.00    -0.274 OA
ATOM     35  N   UNL     1      35.012  14.796   2.505  0.00  0.00    -0.328 N 
ATOM     36  H   UNL     1      34.430  15.412   1.951  0.00  0.00    +0.145 HD
ATOM     37  H   UNL     1      35.701  15.211   3.120  0.00  0.00    +0.145 HD
ENDBRANCH  32  33
BRANCH  32  38
ATOM     38  C   UNL     1      34.481  12.755   0.050  0.00  0.00    +0.195 C 
BRANCH  38  39
ATOM     39  O   UNL     1      35.492  13.755  -0.140  0.00  0.00    -0.380 OA
ATOM     40  C   UNL     1      36.514  13.310  -1.023  0.00  0.00    +0.194 C 
ENDBRANCH  38  39
ENDBRANCH  32  38
ENDBRANCH  30  32
ENDBRANCH  26  28
ENDBRANCH  25  26
ENDBRANCH  24  25
ENDBRANCH   1  24
TORSDOF 14
