REMARK VINA RESULT:    -7.564      1.768      2.263
REMARK INTER + INTRA:         -15.539
REMARK INTER:                 -14.190
REMARK INTRA:                  -1.349
REMARK UNBOUND:                -1.120
REMARK  Name = lig_assembled_76.pdb
REMARK  16 active torsions:
REMARK  status: ('A' for Active; 'I' for Inactive)
REMARK    1  A    between atoms: _2  and  _8
REMARK    2  A    between atoms: _5  and  _6
REMARK    3  A    between atoms: _5  and  _18
REMARK    4  A    between atoms: _8  and  _9
REMARK    5  A    between atoms: _9  and  _10
REMARK    6  A    between atoms: _9  and  _17
REMARK    7  A    between atoms: _10  and  _11
REMARK    8  A    between atoms: _11  and  _12
REMARK    9  A    between atoms: _18  and  _20
REMARK   10  A    between atoms: _19  and  _24
REMARK   11  A    between atoms: _20  and  _23
REMARK   12  A    between atoms: _28  and  _38
REMARK   13  A    between atoms: _30  and  _31
REMARK   14  A    between atoms: _32  and  _34
REMARK   15  A    between atoms: _34  and  _36
REMARK   16  A    between atoms: _36  and  _38
REMARK                            x       y       z     vdW  Elec       q    Type
REMARK                         _______ _______ _______ _____ _____    ______ ____
ROOT
ATOM      1  C   UNL     1      27.829  17.347  -0.716  0.00  0.00    +0.400 C 
ATOM      2  N   UNL     1      28.602  16.468   0.005  0.00  0.00    -0.278 N 
ATOM      3  H   UNL     1      28.873  17.032   0.872  0.00  0.00    +0.152 HD
ATOM      4  O   UNL     1      27.494  18.400  -0.179  0.00  0.00    -0.226 OA
ENDROOT
BRANCH   1   5
ATOM      5  O   UNL     1      27.550  16.985  -1.925  0.00  0.00    -0.450 OA
BRANCH   5   6
ATOM      6  C   UNL     1      26.951  17.511  -3.087  0.00  0.00    +0.240 C 
BRANCH   6   7
ATOM      7  C   UNL     1      26.618  16.526  -4.223  0.00  0.00    +0.100 C 
BRANCH   7   9
ATOM      8  N   UNL     1      26.167  14.262  -3.318  0.00  0.00    -0.134 NA
ATOM      9  C   UNL     1      25.700  15.479  -3.743  0.00  0.00    +0.086 A 
ATOM     10  C   UNL     1      24.327  15.495  -3.647  0.00  0.00    +0.133 A 
ATOM     11  N   UNL     1      24.022  14.264  -3.152  0.00  0.00    -0.249 N 
ATOM     12  N   UNL     1      25.124  13.520  -2.964  0.00  0.00    -0.065 NA
BRANCH  11  13
ATOM     13  C   UNL     1      22.710  13.688  -2.963  0.00  0.00    +0.176 C 
BRANCH  13  14
ATOM     14  C   UNL     1      21.734  14.641  -2.265  0.00  0.00    +0.136 C 
BRANCH  14  15
ATOM     15  O   UNL     1      20.849  15.235  -3.227  0.00  0.00    -0.390 OA
ATOM     16  H   UNL     1      21.373  15.583  -3.968  0.00  0.00    +0.210 HD
ENDBRANCH  14  15
BRANCH  14  17
ATOM     17  C   UNL     1      20.864  13.928  -1.218  0.00  0.00    +0.038 C 
BRANCH  17  18
ATOM     18  C   UNL     1      20.813  12.411  -1.401  0.00  0.00    +0.038 C 
BRANCH  18  19
ATOM     19  C   UNL     1      21.286  11.675  -0.174  0.00  0.00    -0.047 A 
ATOM     20  C   UNL     1      21.779  10.367  -0.280  0.00  0.00    +0.003 A 
ATOM     21  C   UNL     1      22.235   9.690   0.852  0.00  0.00    +0.000 A 
ATOM     22  C   UNL     1      22.197  10.312   2.098  0.00  0.00    +0.000 A 
ATOM     23  C   UNL     1      21.699  11.609   2.215  0.00  0.00    +0.000 A 
ATOM     24  C   UNL     1      21.241  12.288   1.085  0.00  0.00    +0.003 A 
ENDBRANCH  18  19
ENDBRANCH  17  18
ENDBRANCH  14  17
ENDBRANCH  13  14
ENDBRANCH  11  13
ENDBRANCH   7   9
ENDBRANCH   6   7
ENDBRANCH   5   6
ENDBRANCH   1   5
BRANCH   2  25
ATOM     25  C   UNL     1      29.193  15.138   0.122  0.00  0.00    +0.152 C 
BRANCH  25  26
ATOM     26  C   UNL     1      30.575  15.066   0.803  0.00  0.00    +0.193 C 
ATOM     27  O   UNL     1      31.026  16.428   0.973  0.00  0.00    -0.219 OA
BRANCH  26  28
ATOM     28  C   UNL     1      30.642  14.458   2.222  0.00  0.00    +0.212 C 
ATOM     29  O   UNL     1      29.571  13.521   2.418  0.00  0.00    -0.218 OA
BRANCH  28  30
ATOM     30  C   UNL     1      32.008  13.733   2.526  0.00  0.00    +0.171 C 
ATOM     31  O   UNL     1      32.950  14.585   3.168  0.00  0.00    -0.343 OA
ATOM     32  C   UNL     1      34.304  14.283   3.331  0.00  0.00    +0.220 C 
ATOM     33  C   UNL     1      34.955  13.846   2.007  0.00  0.00    +0.076 C 
ATOM     34  C   UNL     1      34.102  12.706   1.427  0.00  0.00    +0.177 C 
ATOM     35  O   UNL     1      34.683  12.237   0.218  0.00  0.00    -0.221 OA
ATOM     36  C   UNL     1      32.637  13.192   1.200  0.00  0.00    +0.155 C 
BRANCH  36  37
ATOM     37  N   UNL     1      31.825  12.114   0.642  0.00  0.00    -0.202 NA
ATOM     38  C   UNL     1      31.458  11.879  -0.644  0.00  0.00    +0.242 C 
ATOM     39  C   UNL     1      30.867  10.536  -0.985  0.00  0.00    +0.096 C 
ATOM     40  O   UNL     1      31.617  12.756  -1.490  0.00  0.00    -0.273 OA
ENDBRANCH  36  37
BRANCH  32  41
ATOM     41  C   UNL     1      34.590  13.211   4.518  0.00  0.00    +0.391 C 
ATOM     42  O   UNL     1      35.741  12.605   4.170  0.00  0.00    -0.243 OA
ATOM     43  O   UNL     1      33.762  13.538   5.519  0.00  0.00    -0.243 OA
ENDBRANCH  32  41
ENDBRANCH  28  30
ENDBRANCH  26  28
ENDBRANCH  25  26
ENDBRANCH   2  25
TORSDOF 16
