REMARK VINA RESULT:    -6.911      2.089      5.668
REMARK INTER + INTRA:         -14.173
REMARK INTER:                 -12.565
REMARK INTRA:                  -1.608
REMARK UNBOUND:                -1.807
REMARK  Name = lig_assembled_75.pdb
REMARK  14 active torsions:
REMARK  status: ('A' for Active; 'I' for Inactive)
REMARK    1  A    between atoms: _2  and  _8
REMARK    2  A    between atoms: _5  and  _6
REMARK    3  A    between atoms: _5  and  _18
REMARK    4  A    between atoms: _10  and  _11
REMARK    5  A    between atoms: _12  and  _13
REMARK    6  A    between atoms: _13  and  _16
REMARK    7  A    between atoms: _18  and  _20
REMARK    8  A    between atoms: _19  and  _24
REMARK    9  A    between atoms: _20  and  _23
REMARK   10  A    between atoms: _28  and  _38
REMARK   11  A    between atoms: _30  and  _31
REMARK   12  A    between atoms: _32  and  _34
REMARK   13  A    between atoms: _34  and  _36
REMARK   14  A    between atoms: _36  and  _38
REMARK                            x       y       z     vdW  Elec       q    Type
REMARK                         _______ _______ _______ _____ _____    ______ ____
ROOT
ATOM      1  C   UNL     1      23.986  10.203   0.799  0.00  0.00    +0.400 C 
ATOM      2  N   UNL     1      25.272  10.594   1.089  0.00  0.00    -0.278 N 
ATOM      3  H   UNL     1      25.796   9.668   1.184  0.00  0.00    +0.152 HD
ATOM      4  O   UNL     1      23.783   9.018   0.548  0.00  0.00    -0.226 OA
ENDROOT
BRANCH   2   5
ATOM      5  C   UNL     1      26.223  11.681   1.305  0.00  0.00    +0.152 C 
BRANCH   5   6
ATOM      6  C   UNL     1      27.681  11.402   0.887  0.00  0.00    +0.193 C 
ATOM      7  O   UNL     1      27.674  10.149   0.169  0.00  0.00    -0.219 OA
BRANCH   6   8
ATOM      8  C   UNL     1      28.350  12.399  -0.085  0.00  0.00    +0.212 C 
ATOM      9  O   UNL     1      27.463  13.493  -0.370  0.00  0.00    -0.218 OA
BRANCH   8  10
ATOM     10  C   UNL     1      29.710  12.982   0.457  0.00  0.00    +0.171 C 
ATOM     11  O   UNL     1      29.584  13.550   1.756  0.00  0.00    -0.343 OA
ATOM     12  C   UNL     1      30.558  14.343   2.367  0.00  0.00    +0.220 C 
ATOM     13  C   UNL     1      31.027  15.482   1.445  0.00  0.00    +0.076 C 
ATOM     14  C   UNL     1      31.452  14.850   0.109  0.00  0.00    +0.177 C 
ATOM     15  O   UNL     1      31.933  15.858  -0.769  0.00  0.00    -0.221 OA
ATOM     16  C   UNL     1      30.255  14.073  -0.522  0.00  0.00    +0.155 C 
BRANCH  16  17
ATOM     17  N   UNL     1      30.653  13.477  -1.795  0.00  0.00    -0.202 NA
ATOM     18  C   UNL     1      31.689  12.648  -2.079  0.00  0.00    +0.242 C 
ATOM     19  C   UNL     1      31.699  11.946  -3.412  0.00  0.00    +0.096 C 
ATOM     20  O   UNL     1      32.585  12.491  -1.253  0.00  0.00    -0.273 OA
ENDBRANCH  16  17
BRANCH  12  21
ATOM     21  C   UNL     1      31.813  13.493   2.951  0.00  0.00    +0.391 C 
ATOM     22  O   UNL     1      32.907  14.096   2.446  0.00  0.00    -0.243 OA
ATOM     23  O   UNL     1      31.317  12.725   3.929  0.00  0.00    -0.243 OA
ENDBRANCH  12  21
ENDBRANCH   8  10
ENDBRANCH   6   8
ENDBRANCH   5   6
ENDBRANCH   2   5
BRANCH   1  24
ATOM     24  O   UNL     1      23.092  11.136   0.849  0.00  0.00    -0.450 OA
BRANCH  24  25
ATOM     25  C   UNL     1      21.794  11.399   0.370  0.00  0.00    +0.240 C 
BRANCH  25  26
ATOM     26  C   UNL     1      21.522  11.142  -1.125  0.00  0.00    +0.100 C 
BRANCH  26  28
ATOM     27  N   UNL     1      21.222  13.147  -2.543  0.00  0.00    -0.134 NA
ATOM     28  C   UNL     1      22.055  12.249  -1.940  0.00  0.00    +0.086 A 
ATOM     29  C   UNL     1      23.358  12.574  -2.238  0.00  0.00    +0.139 A 
ATOM     30  N   UNL     1      23.273  13.692  -3.036  0.00  0.00    -0.220 N 
ATOM     31  N   UNL     1      21.968  14.019  -3.208  0.00  0.00    -0.061 NA
BRANCH  30  32
ATOM     32  C   UNL     1      24.317  14.429  -3.651  0.00  0.00    +0.068 A 
ATOM     33  C   UNL     1      25.166  15.218  -2.853  0.00  0.00    +0.035 A 
ATOM     34  C   UNL     1      26.165  16.011  -3.433  0.00  0.00    -0.023 A 
ATOM     35  C   UNL     1      26.348  15.955  -4.821  0.00  0.00    +0.008 A 
ATOM     36  C   UNL     1      25.522  15.155  -5.616  0.00  0.00    +0.003 A 
ATOM     37  C   UNL     1      24.504  14.400  -5.037  0.00  0.00    +0.028 A 
BRANCH  34  38
ATOM     38  C   UNL     1      27.042  16.884  -2.639  0.00  0.00    +0.015 C 
ATOM     39  C   UNL     1      27.476  16.581  -1.405  0.00  0.00    +0.092 C 
BRANCH  39  40
ATOM     40  C   UNL     1      28.312  17.548  -0.666  0.00  0.00    +0.330 C 
ATOM     41  O   UNL     1      29.433  17.891  -0.996  0.00  0.00    -0.246 OA
BRANCH  40  42
ATOM     42  O   UNL     1      27.681  18.028   0.425  0.00  0.00    -0.478 OA
ATOM     43  H   UNL     1      28.172  17.954   1.263  0.00  0.00    +0.295 HD
ENDBRANCH  40  42
ENDBRANCH  39  40
ENDBRANCH  34  38
ENDBRANCH  30  32
ENDBRANCH  26  28
ENDBRANCH  25  26
ENDBRANCH  24  25
ENDBRANCH   1  24
TORSDOF 14
