REMARK VINA RESULT:    -6.563      1.596      2.012
REMARK INTER + INTRA:         -14.568
REMARK INTER:                 -13.042
REMARK INTRA:                  -1.526
REMARK UNBOUND:                -1.675
REMARK  Name = lig_assembled_33.pdb
REMARK  17 active torsions:
REMARK  status: ('A' for Active; 'I' for Inactive)
REMARK    1  A    between atoms: _2  and  _8
REMARK    2  A    between atoms: _4  and  _12
REMARK    3  A    between atoms: _4  and  _13
REMARK    4  A    between atoms: _5  and  _6
REMARK    5  A    between atoms: _5  and  _15
REMARK    6  A    between atoms: _8  and  _9
REMARK    7  A    between atoms: _9  and  _10
REMARK    8  A    between atoms: _10  and  _11
REMARK    9  A    between atoms: _11  and  _12
REMARK   10  A    between atoms: _15  and  _17
REMARK   11  A    between atoms: _16  and  _21
REMARK   12  A    between atoms: _17  and  _20
REMARK   13  A    between atoms: _25  and  _35
REMARK   14  A    between atoms: _27  and  _28
REMARK   15  A    between atoms: _29  and  _31
REMARK   16  A    between atoms: _31  and  _33
REMARK   17  A    between atoms: _33  and  _35
REMARK                            x       y       z     vdW  Elec       q    Type
REMARK                         _______ _______ _______ _____ _____    ______ ____
ROOT
ATOM      1  C   UNL     1      28.158  17.172  -0.757  0.00  0.00    +0.400 C 
ATOM      2  N   UNL     1      28.952  16.239  -0.133  0.00  0.00    -0.278 N 
ATOM      3  H   UNL     1      29.232  16.722   0.779  0.00  0.00    +0.152 HD
ATOM      4  O   UNL     1      27.822  18.166  -0.118  0.00  0.00    -0.226 OA
ENDROOT
BRANCH   1   5
ATOM      5  O   UNL     1      27.862  16.921  -1.989  0.00  0.00    -0.450 OA
BRANCH   5   6
ATOM      6  C   UNL     1      27.071  17.451  -3.027  0.00  0.00    +0.240 C 
BRANCH   6   7
ATOM      7  C   UNL     1      26.390  16.452  -3.983  0.00  0.00    +0.100 C 
BRANCH   7   9
ATOM      8  N   UNL     1      26.607  14.152  -3.100  0.00  0.00    -0.134 NA
ATOM      9  C   UNL     1      25.866  15.297  -3.232  0.00  0.00    +0.086 A 
ATOM     10  C   UNL     1      24.662  15.132  -2.582  0.00  0.00    +0.133 A 
ATOM     11  N   UNL     1      24.737  13.872  -2.071  0.00  0.00    -0.251 N 
ATOM     12  N   UNL     1      25.898  13.279  -2.399  0.00  0.00    -0.065 NA
BRANCH  11  13
ATOM     13  C   UNL     1      23.751  13.164  -1.281  0.00  0.00    +0.145 C 
BRANCH  13  14
ATOM     14  C   UNL     1      22.327  13.618  -1.601  0.00  0.00    +0.023 C 
BRANCH  14  15
ATOM     15  C   UNL     1      21.278  12.563  -1.243  0.00  0.00    +0.002 C 
BRANCH  15  16
ATOM     16  C   UNL     1      21.354  12.239   0.252  0.00  0.00    +0.011 C 
BRANCH  16  17
ATOM     17  C   UNL     1      21.796  10.805   0.526  0.00  0.00    +0.120 C 
BRANCH  17  18
ATOM     18  C   UNL     1      22.423  10.677   1.896  0.00  0.00    +0.305 C 
ATOM     19  O   UNL     1      23.531  10.219   2.127  0.00  0.00    -0.251 OA
BRANCH  18  20
ATOM     20  O   UNL     1      21.616  11.139   2.879  0.00  0.00    -0.481 OA
ATOM     21  H   UNL     1      20.669  10.965   2.726  0.00  0.00    +0.295 HD
ENDBRANCH  18  20
ENDBRANCH  17  18
ENDBRANCH  16  17
ENDBRANCH  15  16
ENDBRANCH  14  15
ENDBRANCH  13  14
ENDBRANCH  11  13
ENDBRANCH   7   9
ENDBRANCH   6   7
ENDBRANCH   5   6
ENDBRANCH   1   5
BRANCH   2  22
ATOM     22  C   UNL     1      29.558  14.910  -0.150  0.00  0.00    +0.152 C 
BRANCH  22  23
ATOM     23  C   UNL     1      31.096  14.863  -0.040  0.00  0.00    +0.193 C 
ATOM     24  O   UNL     1      31.589  16.109  -0.578  0.00  0.00    -0.219 OA
BRANCH  23  25
ATOM     25  C   UNL     1      31.710  14.784   1.376  0.00  0.00    +0.212 C 
ATOM     26  O   UNL     1      31.262  15.889   2.178  0.00  0.00    -0.218 OA
BRANCH  25  27
ATOM     27  C   UNL     1      31.369  13.443   2.130  0.00  0.00    +0.171 C 
ATOM     28  O   UNL     1      30.131  13.507   2.830  0.00  0.00    -0.343 OA
ATOM     29  C   UNL     1      29.706  12.563   3.768  0.00  0.00    +0.220 C 
ATOM     30  C   UNL     1      30.785  12.289   4.830  0.00  0.00    +0.076 C 
ATOM     31  C   UNL     1      32.083  11.926   4.089  0.00  0.00    +0.177 C 
ATOM     32  O   UNL     1      33.105  11.623   5.027  0.00  0.00    -0.221 OA
ATOM     33  C   UNL     1      32.507  13.094   3.145  0.00  0.00    +0.155 C 
BRANCH  33  34
ATOM     34  N   UNL     1      33.743  12.756   2.444  0.00  0.00    -0.202 NA
ATOM     35  C   UNL     1      34.963  13.348   2.501  0.00  0.00    +0.242 C 
ATOM     36  C   UNL     1      36.139  12.621   1.903  0.00  0.00    +0.096 C 
ATOM     37  O   UNL     1      35.079  14.450   3.033  0.00  0.00    -0.273 OA
ENDBRANCH  33  34
BRANCH  29  38
ATOM     38  C   UNL     1      29.162  11.186   3.100  0.00  0.00    +0.391 C 
ATOM     39  O   UNL     1      28.911  10.370   4.142  0.00  0.00    -0.243 OA
ATOM     40  O   UNL     1      28.887  11.478   1.823  0.00  0.00    -0.243 OA
ENDBRANCH  29  38
ENDBRANCH  25  27
ENDBRANCH  23  25
ENDBRANCH  22  23
ENDBRANCH   2  22
TORSDOF 17
