REMARK VINA RESULT:    -6.386      2.110      2.937
REMARK INTER + INTRA:         -12.817
REMARK INTER:                 -10.865
REMARK INTRA:                  -1.952
REMARK UNBOUND:                -1.952
REMARK  Name = lig_assembled_44.pdb
REMARK  12 active torsions:
REMARK  status: ('A' for Active; 'I' for Inactive)
REMARK    1  A    between atoms: _2  and  _8
REMARK    2  A    between atoms: _5  and  _6
REMARK    3  A    between atoms: _5  and  _14
REMARK    4  A    between atoms: _8  and  _9
REMARK    5  A    between atoms: _14  and  _16
REMARK    6  A    between atoms: _15  and  _20
REMARK    7  A    between atoms: _16  and  _19
REMARK    8  A    between atoms: _24  and  _34
REMARK    9  A    between atoms: _26  and  _27
REMARK   10  A    between atoms: _28  and  _30
REMARK   11  A    between atoms: _30  and  _32
REMARK   12  A    between atoms: _32  and  _34
REMARK                            x       y       z     vdW  Elec       q    Type
REMARK                         _______ _______ _______ _____ _____    ______ ____
ROOT
ATOM      1  C   UNL     1      26.762  11.916  -3.311  0.00  0.00    +0.400 C 
ATOM      2  N   UNL     1      26.931  12.405  -2.037  0.00  0.00    -0.278 N 
ATOM      3  H   UNL     1      26.966  11.522  -1.436  0.00  0.00    +0.152 HD
ATOM      4  O   UNL     1      26.872  10.705  -3.486  0.00  0.00    -0.226 OA
ENDROOT
BRANCH   2   5
ATOM      5  C   UNL     1      27.094  13.561  -1.159  0.00  0.00    +0.152 C 
BRANCH   5   6
ATOM      6  C   UNL     1      28.151  14.598  -1.591  0.00  0.00    +0.193 C 
ATOM      7  O   UNL     1      27.431  15.794  -1.964  0.00  0.00    -0.219 OA
BRANCH   6   8
ATOM      8  C   UNL     1      29.163  15.074  -0.526  0.00  0.00    +0.212 C 
ATOM      9  O   UNL     1      28.610  16.152   0.246  0.00  0.00    -0.218 OA
BRANCH   8  10
ATOM     10  C   UNL     1      29.616  13.930   0.460  0.00  0.00    +0.171 C 
ATOM     11  O   UNL     1      29.051  14.071   1.759  0.00  0.00    -0.343 OA
ATOM     12  C   UNL     1      29.466  13.350   2.881  0.00  0.00    +0.220 C 
ATOM     13  C   UNL     1      30.992  13.414   3.068  0.00  0.00    +0.076 C 
ATOM     14  C   UNL     1      31.639  12.978   1.743  0.00  0.00    +0.177 C 
ATOM     15  O   UNL     1      33.054  12.981   1.873  0.00  0.00    -0.221 OA
ATOM     16  C   UNL     1      31.175  13.914   0.584  0.00  0.00    +0.155 C 
BRANCH  16  17
ATOM     17  N   UNL     1      31.792  13.508  -0.675  0.00  0.00    -0.202 NA
ATOM     18  C   UNL     1      32.695  14.161  -1.450  0.00  0.00    +0.242 C 
ATOM     19  C   UNL     1      33.390  13.392  -2.543  0.00  0.00    +0.096 C 
ATOM     20  O   UNL     1      32.923  15.352  -1.244  0.00  0.00    -0.273 OA
ENDBRANCH  16  17
BRANCH  12  21
ATOM     21  C   UNL     1      28.926  11.818   2.903  0.00  0.00    +0.391 C 
ATOM     22  O   UNL     1      29.776  11.161   3.716  0.00  0.00    -0.243 OA
ATOM     23  O   UNL     1      27.700  11.851   2.366  0.00  0.00    -0.243 OA
ENDBRANCH  12  21
ENDBRANCH   8  10
ENDBRANCH   6   8
ENDBRANCH   5   6
ENDBRANCH   2   5
BRANCH   1  24
ATOM     24  O   UNL     1      26.468  12.793  -4.213  0.00  0.00    -0.450 OA
BRANCH  24  25
ATOM     25  C   UNL     1      27.117  13.712  -5.061  0.00  0.00    +0.240 C 
BRANCH  25  26
ATOM     26  C   UNL     1      26.389  15.035  -5.366  0.00  0.00    +0.100 C 
BRANCH  26  28
ATOM     27  N   UNL     1      24.014  14.356  -5.569  0.00  0.00    -0.134 NA
ATOM     28  C   UNL     1      25.003  14.989  -4.862  0.00  0.00    +0.086 A 
ATOM     29  C   UNL     1      24.473  15.495  -3.699  0.00  0.00    +0.134 A 
ATOM     30  N   UNL     1      23.177  15.071  -3.718  0.00  0.00    -0.247 N 
ATOM     31  N   UNL     1      22.893  14.422  -4.862  0.00  0.00    -0.065 NA
BRANCH  30  32
ATOM     32  C   UNL     1      22.161  15.242  -2.697  0.00  0.00    +0.180 C 
BRANCH  32  33
ATOM     33  C   UNL     1      22.161  14.090  -1.719  0.00  0.00    -0.026 A 
ATOM     34  C   UNL     1      23.356  13.434  -1.387  0.00  0.00    +0.006 A 
ATOM     35  C   UNL     1      23.351  12.360  -0.495  0.00  0.00    +0.015 A 
ATOM     36  C   UNL     1      22.150  11.936   0.071  0.00  0.00    +0.018 A 
ATOM     37 BR   UNL     1      22.147  10.493   1.292  0.00  0.00    -0.050 Br
ATOM     38  C   UNL     1      20.953  12.568  -0.257  0.00  0.00    +0.015 A 
ATOM     39  C   UNL     1      20.958  13.639  -1.154  0.00  0.00    +0.006 A 
ENDBRANCH  32  33
ENDBRANCH  30  32
ENDBRANCH  26  28
ENDBRANCH  25  26
ENDBRANCH  24  25
ENDBRANCH   1  24
TORSDOF 12
