REMARK VINA RESULT:    -7.484      1.173      1.718
REMARK INTER + INTRA:         -13.905
REMARK INTER:                 -12.239
REMARK INTRA:                  -1.666
REMARK UNBOUND:                -1.609
REMARK  Name = lig_assembled_87.pdb
REMARK  12 active torsions:
REMARK  status: ('A' for Active; 'I' for Inactive)
REMARK    1  A    between atoms: _2  and  _9
REMARK    2  A    between atoms: _3  and  _12
REMARK    3  A    between atoms: _6  and  _7
REMARK    4  A    between atoms: _6  and  _16
REMARK    5  A    between atoms: _16  and  _18
REMARK    6  A    between atoms: _17  and  _22
REMARK    7  A    between atoms: _18  and  _21
REMARK    8  A    between atoms: _26  and  _36
REMARK    9  A    between atoms: _28  and  _29
REMARK   10  A    between atoms: _30  and  _32
REMARK   11  A    between atoms: _32  and  _34
REMARK   12  A    between atoms: _34  and  _36
REMARK                            x       y       z     vdW  Elec       q    Type
REMARK                         _______ _______ _______ _____ _____    ______ ____
ROOT
ATOM      1  C   UNL     1      28.184  17.028  -0.669  0.00  0.00    +0.400 C 
ATOM      2  N   UNL     1      28.595  15.953   0.084  0.00  0.00    -0.278 N 
ATOM      3  H   UNL     1      29.091  16.408   0.915  0.00  0.00    +0.152 HD
ATOM      4  O   UNL     1      28.291  18.151  -0.182  0.00  0.00    -0.226 OA
ENDROOT
BRANCH   1   5
ATOM      5  O   UNL     1      27.744  16.747  -1.851  0.00  0.00    -0.450 OA
BRANCH   5   6
ATOM      6  C   UNL     1      26.964  17.333  -2.868  0.00  0.00    +0.240 C 
BRANCH   6   7
ATOM      7  C   UNL     1      26.812  16.551  -4.187  0.00  0.00    +0.100 C 
BRANCH   7   9
ATOM      8  N   UNL     1      25.165  15.069  -5.278  0.00  0.00    -0.134 NA
ATOM      9  C   UNL     1      25.542  15.804  -4.190  0.00  0.00    +0.086 A 
ATOM     10  C   UNL     1      24.583  15.682  -3.209  0.00  0.00    +0.134 A 
ATOM     11  N   UNL     1      23.703  14.760  -3.709  0.00  0.00    -0.248 N 
ATOM     12  N   UNL     1      24.007  14.495  -4.996  0.00  0.00    -0.065 NA
BRANCH  11  13
ATOM     13  C   UNL     1      22.551  14.082  -3.084  0.00  0.00    +0.112 C 
ATOM     14  C   UNL     1      22.543  14.108  -1.530  0.00  0.00    +0.045 C 
ATOM     15  C   UNL     1      22.554  12.734  -0.840  0.00  0.00    +0.059 C 
ATOM     16  C   UNL     1      21.166  12.076  -0.847  0.00  0.00    +0.020 C 
ATOM     17  C   UNL     1      21.186  11.146  -2.059  0.00  0.00    +0.020 C 
ATOM     18  C   UNL     1      22.508  11.476  -2.755  0.00  0.00    +0.059 C 
ATOM     19  N   UNL     1      23.327  11.743  -1.577  0.00  0.00    -0.299 NA
ATOM     20  C   UNL     1      24.734  12.010  -1.785  0.00  0.00    +0.105 C 
ATOM     21  C   UNL     1      22.335  12.667  -3.699  0.00  0.00    +0.045 C 
ENDBRANCH  11  13
ENDBRANCH   7   9
ENDBRANCH   6   7
ENDBRANCH   5   6
ENDBRANCH   1   5
BRANCH   2  22
ATOM     22  C   UNL     1      28.645  14.504   0.261  0.00  0.00    +0.152 C 
BRANCH  22  23
ATOM     23  C   UNL     1      29.790  13.967   1.144  0.00  0.00    +0.193 C 
ATOM     24  O   UNL     1      30.018  12.599   0.740  0.00  0.00    -0.219 OA
BRANCH  23  25
ATOM     25  C   UNL     1      31.172  14.643   1.014  0.00  0.00    +0.212 C 
ATOM     26  O   UNL     1      31.120  15.990   1.511  0.00  0.00    -0.218 OA
BRANCH  25  27
ATOM     27  C   UNL     1      32.319  13.870   1.770  0.00  0.00    +0.171 C 
ATOM     28  O   UNL     1      32.693  14.502   2.990  0.00  0.00    -0.343 OA
ATOM     29  C   UNL     1      33.832  14.175   3.729  0.00  0.00    +0.220 C 
ATOM     30  C   UNL     1      35.096  14.155   2.852  0.00  0.00    +0.076 C 
ATOM     31  C   UNL     1      34.814  13.231   1.656  0.00  0.00    +0.177 C 
ATOM     32  O   UNL     1      35.967  13.145   0.831  0.00  0.00    -0.221 OA
ATOM     33  C   UNL     1      33.581  13.752   0.854  0.00  0.00    +0.155 C 
BRANCH  33  34
ATOM     34  N   UNL     1      33.314  12.880  -0.288  0.00  0.00    -0.202 NA
ATOM     35  C   UNL     1      33.178  13.189  -1.603  0.00  0.00    +0.242 C 
ATOM     36  C   UNL     1      33.200  12.067  -2.607  0.00  0.00    +0.096 C 
ATOM     37  O   UNL     1      33.044  14.364  -1.940  0.00  0.00    -0.273 OA
ENDBRANCH  33  34
BRANCH  29  38
ATOM     38  C   UNL     1      33.677  12.803   4.584  0.00  0.00    +0.391 C 
ATOM     39  O   UNL     1      34.935  12.463   4.928  0.00  0.00    -0.243 OA
ATOM     40  O   UNL     1      32.375  12.695   4.878  0.00  0.00    -0.243 OA
ENDBRANCH  29  38
ENDBRANCH  25  27
ENDBRANCH  23  25
ENDBRANCH  22  23
ENDBRANCH   2  22
TORSDOF 11
