REMARK VINA RESULT:    -6.678      2.140      4.759
REMARK INTER + INTRA:         -16.245
REMARK INTER:                 -15.127
REMARK INTRA:                  -1.118
REMARK UNBOUND:                -3.125
REMARK  Name = lig_assembled_47.pdb
REMARK  17 active torsions:
REMARK  status: ('A' for Active; 'I' for Inactive)
REMARK    1  A    between atoms: _2  and  _8
REMARK    2  A    between atoms: _5  and  _6
REMARK    3  A    between atoms: _5  and  _25
REMARK    4  A    between atoms: _8  and  _9
REMARK    5  A    between atoms: _9  and  _10
REMARK    6  A    between atoms: _9  and  _11
REMARK    7  A    between atoms: _10  and  _23
REMARK    8  A    between atoms: _11  and  _12
REMARK    9  A    between atoms: _11  and  _18
REMARK   10  A    between atoms: _25  and  _27
REMARK   11  A    between atoms: _26  and  _31
REMARK   12  A    between atoms: _27  and  _30
REMARK   13  A    between atoms: _35  and  _45
REMARK   14  A    between atoms: _37  and  _38
REMARK   15  A    between atoms: _39  and  _41
REMARK   16  A    between atoms: _41  and  _43
REMARK   17  A    between atoms: _43  and  _45
REMARK                            x       y       z     vdW  Elec       q    Type
REMARK                         _______ _______ _______ _____ _____    ______ ____
ROOT
ATOM      1  C   UNL     1      26.750  16.560  -3.792  0.00  0.00    +0.100 C 
ENDROOT
BRANCH   1   3
ATOM      2  N   UNL     1      25.137  15.034  -4.905  0.00  0.00    -0.134 NA
ATOM      3  C   UNL     1      25.468  15.828  -3.837  0.00  0.00    +0.086 A 
ATOM      4  C   UNL     1      24.430  15.812  -2.931  0.00  0.00    +0.133 A 
ATOM      5  N   UNL     1      23.482  15.032  -3.528  0.00  0.00    -0.251 N 
ATOM      6  N   UNL     1      23.918  14.551  -4.703  0.00  0.00    -0.065 NA
BRANCH   5   7
ATOM      7  C   UNL     1      22.101  14.829  -3.117  0.00  0.00    +0.160 C 
BRANCH   7   8
ATOM      8  C   UNL     1      21.951  14.077  -1.791  0.00  0.00    +0.131 C 
BRANCH   8   9
ATOM      9  C   UNL     1      20.465  14.007  -1.470  0.00  0.00    +0.311 C 
ATOM     10  O   UNL     1      19.603  13.938  -2.331  0.00  0.00    -0.251 OA
BRANCH   9  11
ATOM     11  O   UNL     1      20.128  13.914  -0.167  0.00  0.00    -0.480 OA
ATOM     12  H   UNL     1      20.831  13.773   0.489  0.00  0.00    +0.295 HD
ENDBRANCH   9  11
ENDBRANCH   8   9
BRANCH   8  13
ATOM     13  C   UNL     1      22.622  12.667  -1.763  0.00  0.00    +0.064 C 
BRANCH  13  14
ATOM     14  C   UNL     1      22.914  12.098  -0.373  0.00  0.00    -0.039 A 
ATOM     15  C   UNL     1      24.247  11.870   0.022  0.00  0.00    +0.004 A 
ATOM     16  C   UNL     1      24.547  11.351   1.286  0.00  0.00    +0.000 A 
ATOM     17  C   UNL     1      23.524  11.033   2.173  0.00  0.00    +0.000 A 
ATOM     18  C   UNL     1      22.200  11.232   1.793  0.00  0.00    +0.000 A 
ATOM     19  C   UNL     1      21.898  11.769   0.536  0.00  0.00    +0.004 A 
ENDBRANCH  13  14
BRANCH  13  20
ATOM     20  C   UNL     1      21.844  11.693  -2.657  0.00  0.00    -0.039 A 
ATOM     21  C   UNL     1      21.282  10.525  -2.115  0.00  0.00    +0.004 A 
ATOM     22  C   UNL     1      20.723   9.553  -2.950  0.00  0.00    +0.000 A 
ATOM     23  C   UNL     1      20.692   9.744  -4.330  0.00  0.00    +0.000 A 
ATOM     24  C   UNL     1      21.207  10.913  -4.878  0.00  0.00    +0.000 A 
ATOM     25  C   UNL     1      21.777  11.877  -4.049  0.00  0.00    +0.004 A 
ENDBRANCH  13  20
ENDBRANCH   8  13
ENDBRANCH   7   8
ENDBRANCH   5   7
ENDBRANCH   1   3
BRANCH   1  26
ATOM     26  C   UNL     1      26.979  17.189  -2.404  0.00  0.00    +0.240 C 
BRANCH  26  27
ATOM     27  O   UNL     1      28.092  16.745  -1.664  0.00  0.00    -0.450 OA
BRANCH  27  28
ATOM     28  C   UNL     1      28.772  17.084  -0.619  0.00  0.00    +0.400 C 
ATOM     29  N   UNL     1      29.064  16.065   0.257  0.00  0.00    -0.278 N 
ATOM     30  H   UNL     1      29.777  16.505   0.921  0.00  0.00    +0.152 HD
ATOM     31  O   UNL     1      29.196  18.207  -0.362  0.00  0.00    -0.226 OA
BRANCH  29  32
ATOM     32  C   UNL     1      28.832  14.688   0.686  0.00  0.00    +0.152 C 
BRANCH  32  33
ATOM     33  C   UNL     1      29.995  14.003   1.433  0.00  0.00    +0.193 C 
ATOM     34  O   UNL     1      30.204  12.725   0.793  0.00  0.00    -0.219 OA
BRANCH  33  35
ATOM     35  C   UNL     1      31.378  14.689   1.384  0.00  0.00    +0.212 C 
ATOM     36  O   UNL     1      31.361  15.909   2.143  0.00  0.00    -0.218 OA
BRANCH  35  37
ATOM     37  C   UNL     1      32.547  13.777   1.921  0.00  0.00    +0.171 C 
ATOM     38  O   UNL     1      33.026  14.196   3.195  0.00  0.00    -0.343 OA
ATOM     39  C   UNL     1      34.201  13.728   3.788  0.00  0.00    +0.220 C 
ATOM     40  C   UNL     1      35.400  13.817   2.827  0.00  0.00    +0.076 C 
ATOM     41  C   UNL     1      35.003  13.103   1.524  0.00  0.00    +0.177 C 
ATOM     42  O   UNL     1      36.093  13.122   0.614  0.00  0.00    -0.221 OA
ATOM     43  C   UNL     1      33.737  13.776   0.907  0.00  0.00    +0.155 C 
BRANCH  43  44
ATOM     44  N   UNL     1      33.361  13.105  -0.334  0.00  0.00    -0.202 NA
ATOM     45  C   UNL     1      33.168  13.620  -1.575  0.00  0.00    +0.242 C 
ATOM     46  C   UNL     1      33.075  12.668  -2.739  0.00  0.00    +0.096 C 
ATOM     47  O   UNL     1      33.077  14.838  -1.720  0.00  0.00    -0.273 OA
ENDBRANCH  43  44
BRANCH  39  48
ATOM     48  C   UNL     1      34.056  12.240   4.424  0.00  0.00    +0.391 C 
ATOM     49  O   UNL     1      35.313  11.871   4.737  0.00  0.00    -0.243 OA
ATOM     50  O   UNL     1      32.751  12.070   4.673  0.00  0.00    -0.243 OA
ENDBRANCH  39  48
ENDBRANCH  35  37
ENDBRANCH  33  35
ENDBRANCH  32  33
ENDBRANCH  29  32
ENDBRANCH  27  28
ENDBRANCH  26  27
ENDBRANCH   1  26
TORSDOF 17
