REMARK VINA RESULT:    -6.612      4.199      8.994
REMARK INTER + INTRA:         -13.540
REMARK INTER:                 -11.034
REMARK INTRA:                  -2.506
REMARK UNBOUND:                -2.096
REMARK  Name = lig_assembled_88.pdb
REMARK  13 active torsions:
REMARK  status: ('A' for Active; 'I' for Inactive)
REMARK    1  A    between atoms: _2  and  _8
REMARK    2  A    between atoms: _4  and  _14
REMARK    3  A    between atoms: _5  and  _6
REMARK    4  A    between atoms: _5  and  _15
REMARK    5  A    between atoms: _8  and  _9
REMARK    6  A    between atoms: _15  and  _17
REMARK    7  A    between atoms: _16  and  _21
REMARK    8  A    between atoms: _17  and  _20
REMARK    9  A    between atoms: _25  and  _35
REMARK   10  A    between atoms: _27  and  _28
REMARK   11  A    between atoms: _29  and  _31
REMARK   12  A    between atoms: _31  and  _33
REMARK   13  A    between atoms: _33  and  _35
REMARK                            x       y       z     vdW  Elec       q    Type
REMARK                         _______ _______ _______ _____ _____    ______ ____
ROOT
ATOM      1  C   UNL     1      25.984  16.207  -4.253  0.00  0.00    +0.400 C 
ATOM      2  N   UNL     1      24.832  15.541  -3.905  0.00  0.00    -0.278 N 
ATOM      3  H   UNL     1      24.649  14.908  -4.746  0.00  0.00    +0.152 HD
ATOM      4  O   UNL     1      26.590  15.832  -5.253  0.00  0.00    -0.226 OA
ENDROOT
BRANCH   1   5
ATOM      5  O   UNL     1      26.306  17.203  -3.494  0.00  0.00    -0.450 OA
BRANCH   5   6
ATOM      6  C   UNL     1      27.436  17.719  -2.832  0.00  0.00    +0.240 C 
BRANCH   6   7
ATOM      7  C   UNL     1      27.452  17.652  -1.293  0.00  0.00    +0.100 C 
BRANCH   7   9
ATOM      8  N   UNL     1      29.772  17.332  -0.490  0.00  0.00    -0.134 NA
ATOM      9  C   UNL     1      28.557  16.795  -0.825  0.00  0.00    +0.086 A 
ATOM     10  C   UNL     1      28.608  15.428  -0.661  0.00  0.00    +0.134 A 
ATOM     11  N   UNL     1      29.903  15.191  -0.300  0.00  0.00    -0.247 N 
ATOM     12  N   UNL     1      30.585  16.342  -0.148  0.00  0.00    -0.065 NA
BRANCH  11  13
ATOM     13  C   UNL     1      30.572  13.908  -0.152  0.00  0.00    +0.184 C 
BRANCH  13  14
ATOM     14  C   UNL     1      30.828  13.533   1.295  0.00  0.00    +0.017 A 
ATOM     15  C   UNL     1      32.027  13.857   1.959  0.00  0.00    +0.024 A 
ATOM     16  C   UNL     1      32.228  13.495   3.293  0.00  0.00    +0.019 A 
ATOM     17 BR   UNL     1      33.871  13.904   4.136  0.00  0.00    -0.050 Br
ATOM     18  C   UNL     1      31.236  12.832   4.009  0.00  0.00    +0.034 A 
ATOM     19  C   UNL     1      30.027  12.547   3.380  0.00  0.00    +0.061 A 
ATOM     20 BR   UNL     1      28.664  11.677   4.370  0.00  0.00    -0.046 Br
ATOM     21  C   UNL     1      29.824  12.898   2.038  0.00  0.00    +0.136 A 
BRANCH  21  22
ATOM     22  O   UNL     1      28.632  12.635   1.415  0.00  0.00    -0.505 OA
ATOM     23  H   UNL     1      28.628  11.689   1.175  0.00  0.00    +0.292 HD
ENDBRANCH  21  22
ENDBRANCH  13  14
ENDBRANCH  11  13
ENDBRANCH   7   9
ENDBRANCH   6   7
ENDBRANCH   5   6
ENDBRANCH   1   5
BRANCH   2  24
ATOM     24  C   UNL     1      23.780  15.306  -2.920  0.00  0.00    +0.152 C 
BRANCH  24  25
ATOM     25  C   UNL     1      23.461  13.830  -2.605  0.00  0.00    +0.193 C 
ATOM     26  O   UNL     1      23.003  13.232  -3.837  0.00  0.00    -0.219 OA
BRANCH  25  27
ATOM     27  C   UNL     1      24.629  12.928  -2.149  0.00  0.00    +0.212 C 
ATOM     28  O   UNL     1      25.693  13.723  -1.600  0.00  0.00    -0.218 OA
BRANCH  27  29
ATOM     29  C   UNL     1      24.205  11.848  -1.083  0.00  0.00    +0.171 C 
ATOM     30  O   UNL     1      23.304  12.364  -0.108  0.00  0.00    -0.343 OA
ATOM     31  C   UNL     1      22.962  11.707   1.076  0.00  0.00    +0.220 C 
ATOM     32  C   UNL     1      24.207  11.237   1.848  0.00  0.00    +0.076 C 
ATOM     33  C   UNL     1      25.071  10.415   0.877  0.00  0.00    +0.177 C 
ATOM     34  O   UNL     1      26.219   9.922   1.554  0.00  0.00    -0.221 OA
ATOM     35  C   UNL     1      25.469  11.285  -0.356  0.00  0.00    +0.155 C 
BRANCH  35  36
ATOM     36  N   UNL     1      26.296  10.509  -1.277  0.00  0.00    -0.202 NA
ATOM     37  C   UNL     1      27.605  10.658  -1.603  0.00  0.00    +0.242 C 
ATOM     38  C   UNL     1      28.287   9.544  -2.354  0.00  0.00    +0.096 C 
ATOM     39  O   UNL     1      28.199  11.685  -1.281  0.00  0.00    -0.273 OA
ENDBRANCH  35  36
BRANCH  31  40
ATOM     40  C   UNL     1      21.902  10.495   0.859  0.00  0.00    +0.391 C 
ATOM     41  O   UNL     1      21.706  10.438  -0.472  0.00  0.00    -0.243 OA
ATOM     42  O   UNL     1      21.858   9.830   2.020  0.00  0.00    -0.243 OA
ENDBRANCH  31  40
ENDBRANCH  27  29
ENDBRANCH  25  27
ENDBRANCH  24  25
ENDBRANCH   2  24
TORSDOF 13
