REMARK VINA RESULT:    -6.816      3.707      8.032
REMARK INTER + INTRA:         -13.701
REMARK INTER:                 -11.245
REMARK INTRA:                  -2.455
REMARK UNBOUND:                -1.904
REMARK  Name = lig_assembled_73.pdb
REMARK  13 active torsions:
REMARK  status: ('A' for Active; 'I' for Inactive)
REMARK    1  A    between atoms: _2  and  _9
REMARK    2  A    between atoms: _3  and  _13
REMARK    3  A    between atoms: _6  and  _7
REMARK    4  A    between atoms: _6  and  _17
REMARK    5  A    between atoms: _12  and  _15
REMARK    6  A    between atoms: _17  and  _19
REMARK    7  A    between atoms: _18  and  _23
REMARK    8  A    between atoms: _19  and  _22
REMARK    9  A    between atoms: _27  and  _37
REMARK   10  A    between atoms: _29  and  _30
REMARK   11  A    between atoms: _31  and  _33
REMARK   12  A    between atoms: _33  and  _35
REMARK   13  A    between atoms: _35  and  _37
REMARK                            x       y       z     vdW  Elec       q    Type
REMARK                         _______ _______ _______ _____ _____    ______ ____
ROOT
ATOM      1  C   UNL     1      27.944  17.231  -1.073  0.00  0.00    +0.400 C 
ATOM      2  N   UNL     1      27.255  17.230  -2.263  0.00  0.00    -0.278 N 
ATOM      3  H   UNL     1      26.443  17.900  -2.079  0.00  0.00    +0.152 HD
ATOM      4  O   UNL     1      27.626  18.057  -0.220  0.00  0.00    -0.226 OA
ENDROOT
BRANCH   2   5
ATOM      5  C   UNL     1      27.145  16.745  -3.636  0.00  0.00    +0.152 C 
BRANCH   5   6
ATOM      6  C   UNL     1      25.802  16.091  -4.021  0.00  0.00    +0.193 C 
ATOM      7  O   UNL     1      25.872  15.801  -5.435  0.00  0.00    -0.219 OA
BRANCH   6   8
ATOM      8  C   UNL     1      25.453  14.736  -3.367  0.00  0.00    +0.212 C 
ATOM      9  O   UNL     1      25.865  14.723  -1.990  0.00  0.00    -0.218 OA
BRANCH   8  10
ATOM     10  C   UNL     1      23.918  14.386  -3.437  0.00  0.00    +0.171 C 
ATOM     11  O   UNL     1      23.089  15.472  -3.037  0.00  0.00    -0.343 OA
ATOM     12  C   UNL     1      21.722  15.365  -2.772  0.00  0.00    +0.220 C 
ATOM     13  C   UNL     1      21.418  14.212  -1.799  0.00  0.00    +0.076 C 
ATOM     14  C   UNL     1      22.069  12.941  -2.370  0.00  0.00    +0.177 C 
ATOM     15  O   UNL     1      21.784  11.834  -1.527  0.00  0.00    -0.221 OA
ATOM     16  C   UNL     1      23.607  13.151  -2.530  0.00  0.00    +0.155 C 
BRANCH  16  17
ATOM     17  N   UNL     1      24.230  11.943  -3.065  0.00  0.00    -0.202 NA
ATOM     18  C   UNL     1      24.894  10.951  -2.420  0.00  0.00    +0.242 C 
ATOM     19  C   UNL     1      25.179   9.675  -3.171  0.00  0.00    +0.096 C 
ATOM     20  O   UNL     1      25.243  11.112  -1.253  0.00  0.00    -0.273 OA
ENDBRANCH  16  17
BRANCH  12  21
ATOM     21  C   UNL     1      20.809  15.271  -4.113  0.00  0.00    +0.391 C 
ATOM     22  O   UNL     1      19.601  15.738  -3.744  0.00  0.00    -0.243 OA
ATOM     23  O   UNL     1      21.660  15.060  -5.125  0.00  0.00    -0.243 OA
ENDBRANCH  12  21
ENDBRANCH   8  10
ENDBRANCH   6   8
ENDBRANCH   5   6
ENDBRANCH   2   5
BRANCH   1  24
ATOM     24  O   UNL     1      28.857  16.325  -0.953  0.00  0.00    -0.450 OA
BRANCH  24  25
ATOM     25  C   UNL     1      28.988  14.991  -0.520  0.00  0.00    +0.240 C 
BRANCH  25  26
ATOM     26  C   UNL     1      29.347  14.756   0.959  0.00  0.00    +0.100 C 
BRANCH  26  28
ATOM     27  N   UNL     1      28.061  13.910   2.897  0.00  0.00    -0.134 NA
ATOM     28  C   UNL     1      28.390  13.818   1.576  0.00  0.00    +0.086 A 
ATOM     29  C   UNL     1      27.700  12.769   1.014  0.00  0.00    +0.139 A 
ATOM     30  N   UNL     1      26.948  12.248   2.040  0.00  0.00    -0.220 N 
ATOM     31  N   UNL     1      27.185  12.954   3.171  0.00  0.00    -0.061 NA
BRANCH  30  32
ATOM     32  C   UNL     1      26.048  11.150   2.015  0.00  0.00    +0.074 A 
ATOM     33  C   UNL     1      26.525   9.865   1.700  0.00  0.00    +0.032 A 
ATOM     34  C   UNL     1      25.655   8.767   1.660  0.00  0.00    +0.054 A 
ATOM     35  C   UNL     1      24.299   8.944   1.930  0.00  0.00    +0.195 A 
ATOM     36  C   UNL     1      23.832  10.220   2.242  0.00  0.00    +0.316 A 
ATOM     37  C   UNL     1      24.688  11.330   2.296  0.00  0.00    +0.116 A 
BRANCH  36  38
ATOM     38  N   UNL     1      22.425  10.438   2.517  0.00  0.00    +0.083 N 
ATOM     39  O   UNL     1      21.874   9.675   3.321  0.00  0.00    +0.042 OA
ATOM     40  O   UNL     1      21.860  11.319   1.853  0.00  0.00    -0.576 OA
ENDBRANCH  36  38
BRANCH  35  41
ATOM     41  O   UNL     1      23.456   7.873   1.912  0.00  0.00    -0.501 OA
ATOM     42  H   UNL     1      22.644   8.079   2.406  0.00  0.00    +0.292 HD
ENDBRANCH  35  41
ENDBRANCH  30  32
ENDBRANCH  26  28
ENDBRANCH  25  26
ENDBRANCH  24  25
ENDBRANCH   1  24
TORSDOF 13
