REMARK VINA RESULT:    -7.248      1.994      2.788
REMARK INTER + INTRA:         -12.974
REMARK INTER:                 -11.444
REMARK INTRA:                  -1.530
REMARK UNBOUND:                -1.064
REMARK  Name = lig_assembled_27.pdb
REMARK  11 active torsions:
REMARK  status: ('A' for Active; 'I' for Inactive)
REMARK    1  A    between atoms: _2  and  _8
REMARK    2  A    between atoms: _5  and  _6
REMARK    3  A    between atoms: _5  and  _13
REMARK    4  A    between atoms: _13  and  _15
REMARK    5  A    between atoms: _14  and  _19
REMARK    6  A    between atoms: _15  and  _18
REMARK    7  A    between atoms: _23  and  _33
REMARK    8  A    between atoms: _25  and  _26
REMARK    9  A    between atoms: _27  and  _29
REMARK   10  A    between atoms: _29  and  _31
REMARK   11  A    between atoms: _31  and  _33
REMARK                            x       y       z     vdW  Elec       q    Type
REMARK                         _______ _______ _______ _____ _____    ______ ____
ROOT
ATOM      1  C   UNL     1      28.293  15.878  -0.974  0.00  0.00    +0.400 C 
ATOM      2  N   UNL     1      28.097  14.741  -0.227  0.00  0.00    -0.278 N 
ATOM      3  H   UNL     1      28.916  14.752   0.460  0.00  0.00    +0.152 HD
ATOM      4  O   UNL     1      29.155  16.672  -0.606  0.00  0.00    -0.226 OA
ENDROOT
BRANCH   1   5
ATOM      5  O   UNL     1      27.555  15.988  -2.030  0.00  0.00    -0.450 OA
BRANCH   5   6
ATOM      6  C   UNL     1      27.081  16.987  -2.903  0.00  0.00    +0.240 C 
BRANCH   6   7
ATOM      7  C   UNL     1      26.211  16.537  -4.092  0.00  0.00    +0.100 C 
BRANCH   7   9
ATOM      8  N   UNL     1      25.168  14.303  -4.312  0.00  0.00    -0.134 NA
ATOM      9  C   UNL     1      25.253  15.502  -3.664  0.00  0.00    +0.086 A 
ATOM     10  C   UNL     1      24.342  15.519  -2.632  0.00  0.00    +0.139 A 
ATOM     11  N   UNL     1      23.721  14.292  -2.683  0.00  0.00    -0.220 N 
ATOM     12  N   UNL     1      24.237  13.575  -3.711  0.00  0.00    -0.061 NA
BRANCH  11  13
ATOM     13  C   UNL     1      22.704  13.775  -1.840  0.00  0.00    +0.068 A 
ATOM     14  C   UNL     1      21.414  14.329  -1.889  0.00  0.00    +0.028 A 
ATOM     15  C   UNL     1      20.404  13.831  -1.062  0.00  0.00    +0.003 A 
ATOM     16  C   UNL     1      20.674  12.783  -0.182  0.00  0.00    +0.020 A 
ATOM     17  C   UNL     1      21.953  12.233  -0.135  0.00  0.00    +0.043 A 
ATOM     18 CL   UNL     1      22.285  10.938   0.949  0.00  0.00    -0.083 Cl
ATOM     19  C   UNL     1      22.970  12.720  -0.958  0.00  0.00    +0.047 A 
ENDBRANCH  11  13
ENDBRANCH   7   9
ENDBRANCH   6   7
ENDBRANCH   5   6
ENDBRANCH   1   5
BRANCH   2  20
ATOM     20  C   UNL     1      27.284  13.560   0.053  0.00  0.00    +0.152 C 
BRANCH  20  21
ATOM     21  C   UNL     1      27.771  12.655   1.203  0.00  0.00    +0.193 C 
ATOM     22  O   UNL     1      28.783  11.787   0.647  0.00  0.00    -0.219 OA
BRANCH  21  23
ATOM     23  C   UNL     1      28.465  13.336   2.403  0.00  0.00    +0.212 C 
ATOM     24  O   UNL     1      27.506  13.644   3.428  0.00  0.00    -0.218 OA
BRANCH  23  25
ATOM     25  C   UNL     1      29.616  12.465   3.036  0.00  0.00    +0.171 C 
ATOM     26  O   UNL     1      29.327  12.061   4.370  0.00  0.00    -0.343 OA
ATOM     27  C   UNL     1      30.261  11.496   5.242  0.00  0.00    +0.220 C 
ATOM     28  C   UNL     1      31.550  12.334   5.318  0.00  0.00    +0.076 C 
ATOM     29  C   UNL     1      32.051  12.542   3.879  0.00  0.00    +0.177 C 
ATOM     30  O   UNL     1      33.266  13.278   3.894  0.00  0.00    -0.221 OA
ATOM     31  C   UNL     1      30.960  13.264   3.029  0.00  0.00    +0.155 C 
BRANCH  31  32
ATOM     32  N   UNL     1      31.435  13.470   1.663  0.00  0.00    -0.202 NA
ATOM     33  C   UNL     1      31.639  14.625   0.980  0.00  0.00    +0.242 C 
ATOM     34  C   UNL     1      32.413  14.566  -0.311  0.00  0.00    +0.096 C 
ATOM     35  O   UNL     1      31.193  15.681   1.425  0.00  0.00    -0.273 OA
ENDBRANCH  31  32
BRANCH  27  36
ATOM     36  C   UNL     1      30.581   9.935   4.926  0.00  0.00    +0.391 C 
ATOM     37  O   UNL     1      31.709   9.666   5.612  0.00  0.00    -0.243 OA
ATOM     38  O   UNL     1      29.471   9.436   4.368  0.00  0.00    -0.243 OA
ENDBRANCH  27  36
ENDBRANCH  23  25
ENDBRANCH  21  23
ENDBRANCH  20  21
ENDBRANCH   2  20
TORSDOF 11
