REMARK VINA RESULT:    -7.454      2.300      8.585
REMARK INTER + INTRA:         -13.309
REMARK INTER:                 -11.493
REMARK INTRA:                  -1.816
REMARK UNBOUND:                -0.626
REMARK  Name = lig_assembled_5.pdb
REMARK  13 active torsions:
REMARK  status: ('A' for Active; 'I' for Inactive)
REMARK    1  A    between atoms: _2  and  _8
REMARK    2  A    between atoms: _5  and  _6
REMARK    3  A    between atoms: _5  and  _15
REMARK    4  A    between atoms: _11  and  _14
REMARK    5  A    between atoms: _12  and  _14
REMARK    6  A    between atoms: _15  and  _17
REMARK    7  A    between atoms: _16  and  _21
REMARK    8  A    between atoms: _17  and  _20
REMARK    9  A    between atoms: _25  and  _35
REMARK   10  A    between atoms: _27  and  _28
REMARK   11  A    between atoms: _29  and  _31
REMARK   12  A    between atoms: _31  and  _33
REMARK   13  A    between atoms: _33  and  _35
REMARK                            x       y       z     vdW  Elec       q    Type
REMARK                         _______ _______ _______ _____ _____    ______ ____
ROOT
ATOM      1  C   UNL     1      26.307  15.766  -4.885  0.00  0.00    +0.400 C 
ATOM      2  N   UNL     1      25.265  14.907  -4.630  0.00  0.00    -0.278 N 
ATOM      3  H   UNL     1      25.346  14.180  -5.409  0.00  0.00    +0.152 HD
ATOM      4  O   UNL     1      27.129  15.442  -5.739  0.00  0.00    -0.226 OA
ENDROOT
BRANCH   2   5
ATOM      5  C   UNL     1      24.132  14.542  -3.783  0.00  0.00    +0.152 C 
BRANCH   5   6
ATOM      6  C   UNL     1      24.337  13.320  -2.863  0.00  0.00    +0.193 C 
ATOM      7  O   UNL     1      25.732  12.958  -2.958  0.00  0.00    -0.219 OA
BRANCH   6   8
ATOM      8  C   UNL     1      24.091  13.514  -1.351  0.00  0.00    +0.212 C 
ATOM      9  O   UNL     1      22.946  14.354  -1.132  0.00  0.00    -0.218 OA
BRANCH   8  10
ATOM     10  C   UNL     1      23.877  12.159  -0.574  0.00  0.00    +0.171 C 
ATOM     11  O   UNL     1      22.535  11.987  -0.132  0.00  0.00    -0.343 OA
ATOM     12  C   UNL     1      22.124  11.010   0.778  0.00  0.00    +0.220 C 
ATOM     13  C   UNL     1      22.997  11.006   2.045  0.00  0.00    +0.076 C 
ATOM     14  C   UNL     1      24.463  10.897   1.596  0.00  0.00    +0.177 C 
ATOM     15  O   UNL     1      25.313  10.850   2.734  0.00  0.00    -0.221 OA
ATOM     16  C   UNL     1      24.831  12.094   0.664  0.00  0.00    +0.155 C 
BRANCH  16  17
ATOM     17  N   UNL     1      26.225  11.997   0.241  0.00  0.00    -0.202 NA
ATOM     18  C   UNL     1      27.345  12.497   0.823  0.00  0.00    +0.242 C 
ATOM     19  C   UNL     1      28.684  12.003   0.341  0.00  0.00    +0.096 C 
ATOM     20  O   UNL     1      27.243  13.331   1.721  0.00  0.00    -0.273 OA
ENDBRANCH  16  17
BRANCH  12  21
ATOM     21  C   UNL     1      22.012   9.526   0.126  0.00  0.00    +0.391 C 
ATOM     22  O   UNL     1      22.009   8.684   1.178  0.00  0.00    -0.243 OA
ATOM     23  O   UNL     1      21.666   9.709  -1.154  0.00  0.00    -0.243 OA
ENDBRANCH  12  21
ENDBRANCH   8  10
ENDBRANCH   6   8
ENDBRANCH   5   6
ENDBRANCH   2   5
BRANCH   1  24
ATOM     24  O   UNL     1      26.303  16.868  -4.209  0.00  0.00    -0.450 OA
BRANCH  24  25
ATOM     25  C   UNL     1      27.010  17.475  -3.153  0.00  0.00    +0.240 C 
BRANCH  25  26
ATOM     26  C   UNL     1      26.865  16.855  -1.751  0.00  0.00    +0.100 C 
BRANCH  26  28
ATOM     27  N   UNL     1      29.040  17.726  -0.956  0.00  0.00    -0.134 NA
ATOM     28  C   UNL     1      28.191  16.672  -1.132  0.00  0.00    +0.086 A 
ATOM     29  C   UNL     1      28.786  15.530  -0.647  0.00  0.00    +0.139 A 
ATOM     30  N   UNL     1      30.002  15.945  -0.152  0.00  0.00    -0.220 N 
ATOM     31  N   UNL     1      30.141  17.276  -0.368  0.00  0.00    -0.061 NA
BRANCH  30  32
ATOM     32  C   UNL     1      30.995  15.182   0.517  0.00  0.00    +0.067 A 
ATOM     33  C   UNL     1      31.014  15.097   1.914  0.00  0.00    +0.031 A 
ATOM     34  C   UNL     1      32.036  14.392   2.556  0.00  0.00    +0.048 A 
ATOM     35  C   UNL     1      33.033  13.748   1.820  0.00  0.00    +0.120 A 
ATOM     36  C   UNL     1      33.006  13.816   0.428  0.00  0.00    +0.048 A 
ATOM     37  C   UNL     1      31.992  14.530  -0.224  0.00  0.00    +0.031 A 
BRANCH  35  38
ATOM     38  O   UNL     1      34.003  13.148   2.572  0.00  0.00    -0.495 OA
ATOM     39  C   UNL     1      35.086  13.974   2.982  0.00  0.00    +0.277 C 
ENDBRANCH  35  38
ENDBRANCH  30  32
ENDBRANCH  26  28
ENDBRANCH  25  26
ENDBRANCH  24  25
ENDBRANCH   1  24
TORSDOF 12
