REMARK VINA RESULT:    -7.214      1.655      3.517
REMARK INTER + INTRA:         -13.477
REMARK INTER:                 -12.018
REMARK INTRA:                  -1.459
REMARK UNBOUND:                -1.624
REMARK  Name = lig_assembled_3.pdb
REMARK  11 active torsions:
REMARK  status: ('A' for Active; 'I' for Inactive)
REMARK    1  A    between atoms: _2  and  _8
REMARK    2  A    between atoms: _5  and  _6
REMARK    3  A    between atoms: _5  and  _13
REMARK    4  A    between atoms: _13  and  _15
REMARK    5  A    between atoms: _14  and  _19
REMARK    6  A    between atoms: _15  and  _18
REMARK    7  A    between atoms: _23  and  _33
REMARK    8  A    between atoms: _25  and  _26
REMARK    9  A    between atoms: _27  and  _29
REMARK   10  A    between atoms: _29  and  _31
REMARK   11  A    between atoms: _31  and  _33
REMARK                            x       y       z     vdW  Elec       q    Type
REMARK                         _______ _______ _______ _____ _____    ______ ____
ROOT
ATOM      1  C   UNL     1      28.288  14.412   0.632  0.00  0.00    +0.152 C 
ENDROOT
BRANCH   1   3
ATOM      2  C   UNL     1      28.452  16.852  -0.578  0.00  0.00    +0.400 C 
ATOM      3  N   UNL     1      28.572  15.808   0.309  0.00  0.00    -0.278 N 
ATOM      4  H   UNL     1      29.109  16.238   1.126  0.00  0.00    +0.152 HD
ATOM      5  O   UNL     1      28.779  17.974  -0.199  0.00  0.00    -0.226 OA
BRANCH   2   6
ATOM      6  O   UNL     1      28.028  16.539  -1.758  0.00  0.00    -0.450 OA
BRANCH   6   7
ATOM      7  C   UNL     1      27.029  16.928  -2.672  0.00  0.00    +0.240 C 
BRANCH   7   8
ATOM      8  C   UNL     1      26.392  15.826  -3.540  0.00  0.00    +0.100 C 
BRANCH   8  10
ATOM      9  N   UNL     1      24.008  15.716  -2.888  0.00  0.00    -0.134 NA
ATOM     10  C   UNL     1      25.267  15.196  -2.822  0.00  0.00    +0.086 A 
ATOM     11  C   UNL     1      25.250  14.071  -2.030  0.00  0.00    +0.139 A 
ATOM     12  N   UNL     1      23.935  13.924  -1.649  0.00  0.00    -0.220 N 
ATOM     13  N   UNL     1      23.205  14.942  -2.169  0.00  0.00    -0.061 NA
BRANCH  12  14
ATOM     14  C   UNL     1      23.347  12.898  -0.865  0.00  0.00    +0.067 A 
ATOM     15  C   UNL     1      24.143  12.015  -0.121  0.00  0.00    +0.028 A 
ATOM     16  C   UNL     1      23.545  10.993   0.622  0.00  0.00    +0.002 A 
ATOM     17  C   UNL     1      22.159  10.848   0.630  0.00  0.00    +0.000 A 
ATOM     18  C   UNL     1      21.363  11.729  -0.100  0.00  0.00    +0.002 A 
ATOM     19  C   UNL     1      21.951  12.754  -0.846  0.00  0.00    +0.028 A 
ENDBRANCH  12  14
ENDBRANCH   8  10
ENDBRANCH   7   8
ENDBRANCH   6   7
ENDBRANCH   2   6
ENDBRANCH   1   3
BRANCH   1  20
ATOM     20  C   UNL     1      28.619  13.968   2.072  0.00  0.00    +0.193 C 
ATOM     21  O   UNL     1      27.498  13.180   2.531  0.00  0.00    -0.219 OA
BRANCH  20  22
ATOM     22  C   UNL     1      29.844  13.049   2.273  0.00  0.00    +0.212 C 
ATOM     23  O   UNL     1      29.577  11.735   1.756  0.00  0.00    -0.218 OA
BRANCH  22  24
ATOM     24  C   UNL     1      31.156  13.600   1.595  0.00  0.00    +0.171 C 
ATOM     25  O   UNL     1      31.136  13.470   0.177  0.00  0.00    -0.343 OA
ATOM     26  C   UNL     1      32.249  13.649  -0.647  0.00  0.00    +0.220 C 
ATOM     27  C   UNL     1      33.457  12.831  -0.158  0.00  0.00    +0.076 C 
ATOM     28  C   UNL     1      33.685  13.179   1.322  0.00  0.00    +0.177 C 
ATOM     29  O   UNL     1      34.818  12.478   1.814  0.00  0.00    -0.221 OA
ATOM     30  C   UNL     1      32.407  12.847   2.154  0.00  0.00    +0.155 C 
BRANCH  30  31
ATOM     31  N   UNL     1      32.621  13.171   3.563  0.00  0.00    -0.202 NA
ATOM     32  C   UNL     1      32.740  12.346   4.634  0.00  0.00    +0.242 C 
ATOM     33  C   UNL     1      33.250  12.924   5.929  0.00  0.00    +0.096 C 
ATOM     34  O   UNL     1      32.433  11.161   4.525  0.00  0.00    -0.273 OA
ENDBRANCH  30  31
BRANCH  26  35
ATOM     35  C   UNL     1      32.639  15.209  -0.878  0.00  0.00    +0.391 C 
ATOM     36  O   UNL     1      33.766  15.180  -1.616  0.00  0.00    -0.243 OA
ATOM     37  O   UNL     1      31.561  15.917  -0.521  0.00  0.00    -0.243 OA
ENDBRANCH  26  35
ENDBRANCH  22  24
ENDBRANCH  20  22
ENDBRANCH   1  20
TORSDOF 11
