REMARK VINA RESULT:    -6.769      2.032      2.868
REMARK INTER + INTRA:         -13.490
REMARK INTER:                 -11.913
REMARK INTRA:                  -1.577
REMARK UNBOUND:                -1.577
REMARK  Name = lig_assembled_66.pdb
REMARK  13 active torsions:
REMARK  status: ('A' for Active; 'I' for Inactive)
REMARK    1  A    between atoms: _2  and  _9
REMARK    2  A    between atoms: _6  and  _7
REMARK    3  A    between atoms: _6  and  _16
REMARK    4  A    between atoms: _9  and  _10
REMARK    5  A    between atoms: _14  and  _15
REMARK    6  A    between atoms: _16  and  _18
REMARK    7  A    between atoms: _17  and  _22
REMARK    8  A    between atoms: _18  and  _21
REMARK    9  A    between atoms: _26  and  _36
REMARK   10  A    between atoms: _28  and  _29
REMARK   11  A    between atoms: _30  and  _32
REMARK   12  A    between atoms: _32  and  _34
REMARK   13  A    between atoms: _34  and  _36
REMARK                            x       y       z     vdW  Elec       q    Type
REMARK                         _______ _______ _______ _____ _____    ______ ____
ROOT
ATOM      1  C   UNL     1      27.937  17.227  -0.743  0.00  0.00    +0.400 C 
ATOM      2  N   UNL     1      28.361  16.228   0.102  0.00  0.00    -0.278 N 
ATOM      3  H   UNL     1      28.672  16.759   0.976  0.00  0.00    +0.152 HD
ATOM      4  O   UNL     1      27.836  18.364  -0.291  0.00  0.00    -0.226 OA
ENDROOT
BRANCH   1   5
ATOM      5  O   UNL     1      27.710  16.868  -1.964  0.00  0.00    -0.450 OA
BRANCH   5   6
ATOM      6  C   UNL     1      27.012  17.323  -3.099  0.00  0.00    +0.240 C 
BRANCH   6   7
ATOM      7  C   UNL     1      26.335  16.264  -3.990  0.00  0.00    +0.100 C 
BRANCH   7   9
ATOM      8  N   UNL     1      24.407  15.535  -2.613  0.00  0.00    -0.134 NA
ATOM      9  C   UNL     1      25.635  15.266  -3.158  0.00  0.00    +0.086 A 
ATOM     10  C   UNL     1      26.003  13.980  -2.827  0.00  0.00    +0.134 A 
ATOM     11  N   UNL     1      24.932  13.501  -2.128  0.00  0.00    -0.247 N 
ATOM     12  N   UNL     1      23.983  14.444  -1.986  0.00  0.00    -0.065 NA
BRANCH  11  13
ATOM     13  C   UNL     1      24.641  12.117  -1.801  0.00  0.00    +0.180 C 
BRANCH  13  14
ATOM     14  C   UNL     1      24.810  11.801  -0.337  0.00  0.00    -0.025 A 
ATOM     15  C   UNL     1      25.982  12.173   0.337  0.00  0.00    +0.005 A 
ATOM     16  C   UNL     1      26.113  11.959   1.711  0.00  0.00    +0.002 A 
ATOM     17  C   UNL     1      25.081  11.351   2.425  0.00  0.00    +0.019 A 
ATOM     18  C   UNL     1      23.921  10.940   1.762  0.00  0.00    +0.052 A 
ATOM     19  C   UNL     1      23.786  11.167   0.386  0.00  0.00    +0.024 A 
BRANCH  18  20
ATOM     20  C   UNL     1      22.866  10.299   2.491  0.00  0.00    +0.099 C 
ATOM     21  N   UNL     1      22.011   9.788   3.087  0.00  0.00    -0.191 NA
ENDBRANCH  18  20
ENDBRANCH  13  14
ENDBRANCH  11  13
ENDBRANCH   7   9
ENDBRANCH   6   7
ENDBRANCH   5   6
ENDBRANCH   1   5
BRANCH   2  22
ATOM     22  C   UNL     1      28.559  14.801   0.341  0.00  0.00    +0.152 C 
BRANCH  22  23
ATOM     23  C   UNL     1      30.014  14.346   0.574  0.00  0.00    +0.193 C 
ATOM     24  O   UNL     1      29.989  12.904   0.664  0.00  0.00    -0.219 OA
BRANCH  23  25
ATOM     25  C   UNL     1      31.043  14.645  -0.539  0.00  0.00    +0.212 C 
ATOM     26  O   UNL     1      31.482  16.011  -0.463  0.00  0.00    -0.218 OA
BRANCH  25  27
ATOM     27  C   UNL     1      32.308  13.705  -0.489  0.00  0.00    +0.171 C 
ATOM     28  O   UNL     1      33.172  14.008   0.601  0.00  0.00    -0.343 OA
ATOM     29  C   UNL     1      34.467  13.504   0.744  0.00  0.00    +0.220 C 
ATOM     30  C   UNL     1      35.301  13.705  -0.534  0.00  0.00    +0.076 C 
ATOM     31  C   UNL     1      34.502  13.113  -1.706  0.00  0.00    +0.177 C 
ATOM     32  O   UNL     1      35.247  13.237  -2.909  0.00  0.00    -0.221 OA
ATOM     33  C   UNL     1      33.116  13.820  -1.823  0.00  0.00    +0.155 C 
BRANCH  33  34
ATOM     34  N   UNL     1      32.356  13.265  -2.940  0.00  0.00    -0.202 NA
ATOM     35  C   UNL     1      31.819  12.028  -3.095  0.00  0.00    +0.242 C 
ATOM     36  C   UNL     1      30.833  11.812  -4.213  0.00  0.00    +0.096 C 
ATOM     37  O   UNL     1      32.144  11.124  -2.328  0.00  0.00    -0.273 OA
ENDBRANCH  33  34
BRANCH  29  38
ATOM     38  C   UNL     1      34.509  11.960   1.247  0.00  0.00    +0.391 C 
ATOM     39  O   UNL     1      33.276  11.721   1.735  0.00  0.00    -0.243 OA
ATOM     40  O   UNL     1      35.622  11.431   0.725  0.00  0.00    -0.243 OA
ENDBRANCH  29  38
ENDBRANCH  25  27
ENDBRANCH  23  25
ENDBRANCH  22  23
ENDBRANCH   2  22
TORSDOF 13
