REMARK VINA RESULT:    -6.678      3.599      6.016
REMARK INTER + INTRA:         -13.654
REMARK INTER:                 -11.596
REMARK INTRA:                  -2.058
REMARK UNBOUND:                -2.096
REMARK  Name = lig_assembled_88.pdb
REMARK  13 active torsions:
REMARK  status: ('A' for Active; 'I' for Inactive)
REMARK    1  A    between atoms: _2  and  _8
REMARK    2  A    between atoms: _4  and  _14
REMARK    3  A    between atoms: _5  and  _6
REMARK    4  A    between atoms: _5  and  _15
REMARK    5  A    between atoms: _8  and  _9
REMARK    6  A    between atoms: _15  and  _17
REMARK    7  A    between atoms: _16  and  _21
REMARK    8  A    between atoms: _17  and  _20
REMARK    9  A    between atoms: _25  and  _35
REMARK   10  A    between atoms: _27  and  _28
REMARK   11  A    between atoms: _29  and  _31
REMARK   12  A    between atoms: _31  and  _33
REMARK   13  A    between atoms: _33  and  _35
REMARK                            x       y       z     vdW  Elec       q    Type
REMARK                         _______ _______ _______ _____ _____    ______ ____
ROOT
ATOM      1  C   UNL     1      30.994  15.868  -0.209  0.00  0.00    +0.400 C 
ATOM      2  N   UNL     1      30.803  14.947   0.794  0.00  0.00    -0.278 N 
ATOM      3  H   UNL     1      31.625  14.275   0.672  0.00  0.00    +0.152 HD
ATOM      4  O   UNL     1      32.052  15.834  -0.833  0.00  0.00    -0.226 OA
ENDROOT
BRANCH   1   5
ATOM      5  O   UNL     1      30.008  16.676  -0.422  0.00  0.00    -0.450 OA
BRANCH   5   6
ATOM      6  C   UNL     1      28.599  16.666  -0.422  0.00  0.00    +0.240 C 
BRANCH   6   7
ATOM      7  C   UNL     1      27.882  17.592  -1.422  0.00  0.00    +0.100 C 
BRANCH   7   9
ATOM      8  N   UNL     1      26.691  17.345  -3.579  0.00  0.00    -0.134 NA
ATOM      9  C   UNL     1      27.100  16.800  -2.390  0.00  0.00    +0.086 A 
ATOM     10  C   UNL     1      26.646  15.503  -2.310  0.00  0.00    +0.134 A 
ATOM     11  N   UNL     1      25.905  15.345  -3.445  0.00  0.00    -0.247 N 
ATOM     12  N   UNL     1      25.977  16.437  -4.229  0.00  0.00    -0.065 NA
BRANCH  11  13
ATOM     13  C   UNL     1      25.055  14.224  -3.813  0.00  0.00    +0.184 C 
BRANCH  13  14
ATOM     14  C   UNL     1      23.631  14.363  -3.310  0.00  0.00    +0.017 A 
ATOM     15  C   UNL     1      22.697  15.227  -3.915  0.00  0.00    +0.024 A 
ATOM     16  C   UNL     1      21.394  15.329  -3.425  0.00  0.00    +0.019 A 
ATOM     17 BR   UNL     1      20.183  16.537  -4.232  0.00  0.00    -0.050 Br
ATOM     18  C   UNL     1      20.976  14.558  -2.345  0.00  0.00    +0.034 A 
ATOM     19  C   UNL     1      21.873  13.664  -1.767  0.00  0.00    +0.061 A 
ATOM     20 BR   UNL     1      21.288  12.588  -0.319  0.00  0.00    -0.046 Br
ATOM     21  C   UNL     1      23.186  13.565  -2.247  0.00  0.00    +0.136 A 
BRANCH  21  22
ATOM     22  O   UNL     1      24.072  12.679  -1.695  0.00  0.00    -0.505 OA
ATOM     23  H   UNL     1      24.197  11.950  -2.332  0.00  0.00    +0.292 HD
ENDBRANCH  21  22
ENDBRANCH  13  14
ENDBRANCH  11  13
ENDBRANCH   7   9
ENDBRANCH   6   7
ENDBRANCH   5   6
ENDBRANCH   1   5
BRANCH   2  24
ATOM     24  C   UNL     1      30.009  14.494   1.933  0.00  0.00    +0.152 C 
BRANCH  24  25
ATOM     25  C   UNL     1      28.934  13.429   1.632  0.00  0.00    +0.193 C 
ATOM     26  O   UNL     1      29.595  12.366   0.910  0.00  0.00    -0.219 OA
BRANCH  25  27
ATOM     27  C   UNL     1      28.270  12.723   2.834  0.00  0.00    +0.212 C 
ATOM     28  O   UNL     1      27.505  13.662   3.607  0.00  0.00    -0.218 OA
BRANCH  27  29
ATOM     29  C   UNL     1      27.329  11.530   2.416  0.00  0.00    +0.171 C 
ATOM     30  O   UNL     1      26.085  11.973   1.886  0.00  0.00    -0.343 OA
ATOM     31  C   UNL     1      24.982  11.145   1.666  0.00  0.00    +0.220 C 
ATOM     32  C   UNL     1      24.643  10.304   2.910  0.00  0.00    +0.076 C 
ATOM     33  C   UNL     1      25.926   9.573   3.338  0.00  0.00    +0.177 C 
ATOM     34  O   UNL     1      25.658   8.749   4.463  0.00  0.00    -0.221 OA
ATOM     35  C   UNL     1      27.055  10.606   3.648  0.00  0.00    +0.155 C 
BRANCH  35  36
ATOM     36  N   UNL     1      28.274   9.916   4.061  0.00  0.00    -0.202 NA
ATOM     37  C   UNL     1      28.864   9.853   5.282  0.00  0.00    +0.242 C 
ATOM     38  C   UNL     1      29.950   8.832   5.500  0.00  0.00    +0.096 C 
ATOM     39  O   UNL     1      28.502  10.621   6.172  0.00  0.00    -0.273 OA
ENDBRANCH  35  36
BRANCH  31  40
ATOM     40  C   UNL     1      25.122  10.218   0.339  0.00  0.00    +0.391 C 
ATOM     41  O   UNL     1      24.162   9.282   0.466  0.00  0.00    -0.243 OA
ATOM     42  O   UNL     1      25.913  10.895  -0.502  0.00  0.00    -0.243 OA
ENDBRANCH  31  40
ENDBRANCH  27  29
ENDBRANCH  25  27
ENDBRANCH  24  25
ENDBRANCH   2  24
TORSDOF 13
