REMARK VINA RESULT:    -6.202      3.105      9.110
REMARK INTER + INTRA:         -13.564
REMARK INTER:                 -11.332
REMARK INTRA:                  -2.233
REMARK UNBOUND:                -2.286
REMARK  Name = lig_assembled_62.pdb
REMARK  15 active torsions:
REMARK  status: ('A' for Active; 'I' for Inactive)
REMARK    1  A    between atoms: _2  and  _9
REMARK    2  A    between atoms: _5  and  _9
REMARK    3  A    between atoms: _6  and  _7
REMARK    4  A    between atoms: _6  and  _14
REMARK    5  A    between atoms: _9  and  _10
REMARK    6  A    between atoms: _10  and  _13
REMARK    7  A    between atoms: _11  and  _13
REMARK    8  A    between atoms: _14  and  _16
REMARK    9  A    between atoms: _15  and  _20
REMARK   10  A    between atoms: _16  and  _19
REMARK   11  A    between atoms: _24  and  _34
REMARK   12  A    between atoms: _26  and  _27
REMARK   13  A    between atoms: _28  and  _30
REMARK   14  A    between atoms: _30  and  _32
REMARK   15  A    between atoms: _32  and  _34
REMARK                            x       y       z     vdW  Elec       q    Type
REMARK                         _______ _______ _______ _____ _____    ______ ____
ROOT
ATOM      1  C   UNL     1      25.856  15.697  -4.849  0.00  0.00    +0.400 C 
ATOM      2  N   UNL     1      24.623  15.100  -4.963  0.00  0.00    -0.278 N 
ATOM      3  H   UNL     1      24.630  14.705  -5.956  0.00  0.00    +0.152 HD
ATOM      4  O   UNL     1      26.679  15.501  -5.739  0.00  0.00    -0.226 OA
ENDROOT
BRANCH   2   5
ATOM      5  C   UNL     1      23.343  14.760  -4.346  0.00  0.00    +0.152 C 
BRANCH   5   6
ATOM      6  C   UNL     1      23.310  13.454  -3.526  0.00  0.00    +0.193 C 
ATOM      7  O   UNL     1      23.963  12.444  -4.327  0.00  0.00    -0.219 OA
BRANCH   6   8
ATOM      8  C   UNL     1      24.073  13.434  -2.183  0.00  0.00    +0.212 C 
ATOM      9  O   UNL     1      23.770  14.610  -1.416  0.00  0.00    -0.218 OA
BRANCH   8  10
ATOM     10  C   UNL     1      23.757  12.164  -1.305  0.00  0.00    +0.171 C 
ATOM     11  O   UNL     1      22.403  12.125  -0.865  0.00  0.00    -0.343 OA
ATOM     12  C   UNL     1      21.917  11.255   0.114  0.00  0.00    +0.220 C 
ATOM     13  C   UNL     1      22.781  11.289   1.387  0.00  0.00    +0.076 C 
ATOM     14  C   UNL     1      24.238  11.039   0.964  0.00  0.00    +0.177 C 
ATOM     15  O   UNL     1      25.076  11.020   2.111  0.00  0.00    -0.221 OA
ATOM     16  C   UNL     1      24.697  12.128  -0.055  0.00  0.00    +0.155 C 
BRANCH  16  17
ATOM     17  N   UNL     1      26.083  11.898  -0.454  0.00  0.00    -0.202 NA
ATOM     18  C   UNL     1      27.234  12.314   0.131  0.00  0.00    +0.242 C 
ATOM     19  C   UNL     1      28.531  11.690  -0.317  0.00  0.00    +0.096 C 
ATOM     20  O   UNL     1      27.194  13.178   1.004  0.00  0.00    -0.273 OA
ENDBRANCH  16  17
BRANCH  12  21
ATOM     21  C   UNL     1      21.701   9.736  -0.420  0.00  0.00    +0.391 C 
ATOM     22  O   UNL     1      21.758   8.967   0.685  0.00  0.00    -0.243 OA
ATOM     23  O   UNL     1      21.255   9.846  -1.678  0.00  0.00    -0.243 OA
ENDBRANCH  12  21
ENDBRANCH   8  10
ENDBRANCH   6   8
ENDBRANCH   5   6
ENDBRANCH   2   5
BRANCH   1  24
ATOM     24  O   UNL     1      26.021  16.447  -3.809  0.00  0.00    -0.450 OA
BRANCH  24  25
ATOM     25  C   UNL     1      26.440  16.337  -2.469  0.00  0.00    +0.240 C 
BRANCH  25  26
ATOM     26  C   UNL     1      27.379  17.431  -1.925  0.00  0.00    +0.100 C 
BRANCH  26  28
ATOM     27  N   UNL     1      29.490  17.599  -0.641  0.00  0.00    -0.134 NA
ATOM     28  C   UNL     1      28.504  16.824  -1.191  0.00  0.00    +0.086 A 
ATOM     29  C   UNL     1      28.775  15.500  -0.925  0.00  0.00    +0.134 A 
ATOM     30  N   UNL     1      29.947  15.532  -0.226  0.00  0.00    -0.237 N 
ATOM     31  N   UNL     1      30.367  16.800  -0.052  0.00  0.00    -0.065 NA
BRANCH  30  32
ATOM     32  C   UNL     1      30.716  14.438   0.341  0.00  0.00    +0.219 C 
BRANCH  32  33
ATOM     33  C   UNL     1      30.641  14.469   1.858  0.00  0.00    +0.237 C 
ATOM     34  O   UNL     1      31.619  14.565   2.597  0.00  0.00    -0.274 OA
ATOM     35  N   UNL     1      29.384  14.449   2.399  0.00  0.00    -0.328 N 
ATOM     36  H   UNL     1      28.535  14.464   1.850  0.00  0.00    +0.145 HD
ATOM     37  H   UNL     1      29.305  14.478   3.408  0.00  0.00    +0.145 HD
ENDBRANCH  32  33
BRANCH  32  38
ATOM     38  C   UNL     1      32.165  14.491  -0.137  0.00  0.00    +0.195 C 
BRANCH  38  39
ATOM     39  O   UNL     1      32.206  14.295  -1.557  0.00  0.00    -0.380 OA
ATOM     40  C   UNL     1      33.520  14.461  -2.074  0.00  0.00    +0.194 C 
ENDBRANCH  38  39
ENDBRANCH  32  38
ENDBRANCH  30  32
ENDBRANCH  26  28
ENDBRANCH  25  26
ENDBRANCH  24  25
ENDBRANCH   1  24
TORSDOF 14
