REMARK VINA RESULT:    -6.249      2.053      3.964
REMARK INTER + INTRA:         -15.234
REMARK INTER:                 -12.317
REMARK INTRA:                  -2.917
REMARK UNBOUND:                -2.957
REMARK  Name = lig_assembled_74.pdb
REMARK  19 active torsions:
REMARK  status: ('A' for Active; 'I' for Inactive)
REMARK    1  A    between atoms: _2  and  _8
REMARK    2  A    between atoms: _4  and  _13
REMARK    3  A    between atoms: _5  and  _6
REMARK    4  A    between atoms: _5  and  _17
REMARK    5  A    between atoms: _8  and  _9
REMARK    6  A    between atoms: _9  and  _10
REMARK    7  A    between atoms: _9  and  _12
REMARK    8  A    between atoms: _10  and  _11
REMARK    9  A    between atoms: _11  and  _15
REMARK   10  A    between atoms: _12  and  _13
REMARK   11  A    between atoms: _13  and  _14
REMARK   12  A    between atoms: _17  and  _19
REMARK   13  A    between atoms: _18  and  _23
REMARK   14  A    between atoms: _19  and  _22
REMARK   15  A    between atoms: _27  and  _37
REMARK   16  A    between atoms: _29  and  _30
REMARK   17  A    between atoms: _31  and  _33
REMARK   18  A    between atoms: _33  and  _35
REMARK   19  A    between atoms: _35  and  _37
REMARK                            x       y       z     vdW  Elec       q    Type
REMARK                         _______ _______ _______ _____ _____    ______ ____
ROOT
ATOM      1  C   UNL     1      27.731  17.302  -1.584  0.00  0.00    +0.400 C 
ATOM      2  N   UNL     1      28.109  16.168  -0.903  0.00  0.00    -0.278 N 
ATOM      3  H   UNL     1      28.330  16.531   0.078  0.00  0.00    +0.152 HD
ATOM      4  O   UNL     1      27.562  18.335  -0.940  0.00  0.00    -0.226 OA
ENDROOT
BRANCH   1   5
ATOM      5  O   UNL     1      27.619  17.174  -2.865  0.00  0.00    -0.450 OA
BRANCH   5   6
ATOM      6  C   UNL     1      26.635  16.876  -3.827  0.00  0.00    +0.240 C 
BRANCH   6   7
ATOM      7  C   UNL     1      25.300  16.295  -3.322  0.00  0.00    +0.100 C 
BRANCH   7   9
ATOM      8  N   UNL     1      26.250  14.067  -3.869  0.00  0.00    -0.134 NA
ATOM      9  C   UNL     1      25.413  14.839  -3.108  0.00  0.00    +0.086 A 
ATOM     10  C   UNL     1      24.830  14.049  -2.141  0.00  0.00    +0.133 A 
ATOM     11  N   UNL     1      25.493  12.860  -2.255  0.00  0.00    -0.251 N 
ATOM     12  N   UNL     1      26.273  12.846  -3.353  0.00  0.00    -0.065 NA
BRANCH  11  13
ATOM     13  C   UNL     1      25.679  11.864  -1.218  0.00  0.00    +0.149 C 
BRANCH  13  14
ATOM     14  C   UNL     1      24.776  12.020   0.025  0.00  0.00    +0.021 C 
BRANCH  14  15
ATOM     15  C   UNL     1      25.435  11.521   1.328  0.00  0.00    +0.125 C 
BRANCH  15  16
ATOM     16  C   UNL     1      26.822  12.067   1.587  0.00  0.00    +0.305 C 
ATOM     17  O   UNL     1      27.064  13.180   2.028  0.00  0.00    -0.251 OA
BRANCH  16  18
ATOM     18  O   UNL     1      27.795  11.170   1.344  0.00  0.00    -0.481 OA
ATOM     19  H   UNL     1      28.693  11.538   1.256  0.00  0.00    +0.295 HD
ENDBRANCH  16  18
ENDBRANCH  15  16
ENDBRANCH  14  15
BRANCH  14  20
ATOM     20  C   UNL     1      23.400  11.349  -0.257  0.00  0.00    +0.009 C 
BRANCH  20  21
ATOM     21  C   UNL     1      22.154  12.187   0.102  0.00  0.00    -0.017 C 
ATOM     22  C   UNL     1      21.075  12.111  -0.981  0.00  0.00    +0.007 C 
ATOM     23  C   UNL     1      21.557  11.720   1.435  0.00  0.00    +0.007 C 
ENDBRANCH  20  21
ENDBRANCH  14  20
ENDBRANCH  13  14
ENDBRANCH  11  13
ENDBRANCH   7   9
ENDBRANCH   6   7
ENDBRANCH   5   6
ENDBRANCH   1   5
BRANCH   2  24
ATOM     24  C   UNL     1      28.324  14.724  -0.915  0.00  0.00    +0.152 C 
BRANCH  24  25
ATOM     25  C   UNL     1      29.583  14.218  -0.181  0.00  0.00    +0.193 C 
ATOM     26  O   UNL     1      29.597  12.781  -0.322  0.00  0.00    -0.219 OA
BRANCH  25  27
ATOM     27  C   UNL     1      30.957  14.672  -0.723  0.00  0.00    +0.212 C 
ATOM     28  O   UNL     1      31.267  15.996  -0.259  0.00  0.00    -0.218 OA
BRANCH  27  29
ATOM     29  C   UNL     1      32.136  13.707  -0.319  0.00  0.00    +0.171 C 
ATOM     30  O   UNL     1      32.741  14.070   0.918  0.00  0.00    -0.343 OA
ATOM     31  C   UNL     1      33.947  13.545   1.389  0.00  0.00    +0.220 C 
ATOM     32  C   UNL     1      35.059  13.629   0.327  0.00  0.00    +0.076 C 
ATOM     33  C   UNL     1      34.523  12.971  -0.955  0.00  0.00    +0.177 C 
ATOM     34  O   UNL     1      35.528  12.985  -1.959  0.00  0.00    -0.221 OA
ATOM     35  C   UNL     1      33.231  13.702  -1.436  0.00  0.00    +0.155 C 
BRANCH  35  36
ATOM     36  N   UNL     1      32.724  13.084  -2.658  0.00  0.00    -0.202 NA
ATOM     37  C   UNL     1      32.967  13.399  -3.956  0.00  0.00    +0.242 C 
ATOM     38  C   UNL     1      32.552  12.418  -5.021  0.00  0.00    +0.096 C 
ATOM     39  O   UNL     1      33.516  14.465  -4.229  0.00  0.00    -0.273 OA
ENDBRANCH  35  36
BRANCH  31  40
ATOM     40  C   UNL     1      33.809  12.043   1.991  0.00  0.00    +0.391 C 
ATOM     41  O   UNL     1      35.074  11.590   2.089  0.00  0.00    -0.243 OA
ATOM     42  O   UNL     1      32.551  11.938   2.436  0.00  0.00    -0.243 OA
ENDBRANCH  31  40
ENDBRANCH  27  29
ENDBRANCH  25  27
ENDBRANCH  24  25
ENDBRANCH   2  24
TORSDOF 17
