REMARK VINA RESULT:    -6.789      1.105      1.477
REMARK INTER + INTRA:         -17.680
REMARK INTER:                 -14.448
REMARK INTRA:                  -3.232
REMARK UNBOUND:                -2.358
REMARK  Name = lig_assembled_30.pdb
REMARK  22 active torsions:
REMARK  status: ('A' for Active; 'I' for Inactive)
REMARK    1  A    between atoms: _2  and  _8
REMARK    2  A    between atoms: _4  and  _17
REMARK    3  A    between atoms: _4  and  _18
REMARK    4  A    between atoms: _5  and  _6
REMARK    5  A    between atoms: _5  and  _20
REMARK    6  A    between atoms: _8  and  _9
REMARK    7  A    between atoms: _9  and  _10
REMARK    8  A    between atoms: _10  and  _11
REMARK    9  A    between atoms: _11  and  _12
REMARK   10  A    between atoms: _12  and  _13
REMARK   11  A    between atoms: _13  and  _14
REMARK   12  A    between atoms: _14  and  _15
REMARK   13  A    between atoms: _15  and  _16
REMARK   14  A    between atoms: _16  and  _17
REMARK   15  A    between atoms: _20  and  _22
REMARK   16  A    between atoms: _21  and  _26
REMARK   17  A    between atoms: _22  and  _25
REMARK   18  A    between atoms: _30  and  _40
REMARK   19  A    between atoms: _32  and  _33
REMARK   20  A    between atoms: _34  and  _36
REMARK   21  A    between atoms: _36  and  _38
REMARK   22  A    between atoms: _38  and  _40
REMARK                            x       y       z     vdW  Elec       q    Type
REMARK                         _______ _______ _______ _____ _____    ______ ____
ROOT
ATOM      1  C   UNL     1      28.094  16.991  -0.648  0.00  0.00    +0.400 C 
ATOM      2  N   UNL     1      28.527  16.089   0.296  0.00  0.00    -0.278 N 
ATOM      3  H   UNL     1      28.837  16.711   1.108  0.00  0.00    +0.152 HD
ATOM      4  O   UNL     1      27.988  18.169  -0.317  0.00  0.00    -0.226 OA
ENDROOT
BRANCH   1   5
ATOM      5  O   UNL     1      27.867  16.505  -1.824  0.00  0.00    -0.450 OA
BRANCH   5   6
ATOM      6  C   UNL     1      26.776  16.124  -2.629  0.00  0.00    +0.240 C 
BRANCH   6   7
ATOM      7  C   UNL     1      26.255  14.681  -2.486  0.00  0.00    +0.100 C 
BRANCH   7   9
ATOM      8  N   UNL     1      24.092  15.724  -3.085  0.00  0.00    -0.134 NA
ATOM      9  C   UNL     1      24.785  14.656  -2.577  0.00  0.00    +0.086 A 
ATOM     10  C   UNL     1      23.892  13.672  -2.212  0.00  0.00    +0.133 A 
ATOM     11  N   UNL     1      22.678  14.203  -2.523  0.00  0.00    -0.251 N 
ATOM     12  N   UNL     1      22.798  15.435  -3.045  0.00  0.00    -0.065 NA
BRANCH  11  13
ATOM     13  C   UNL     1      21.371  13.619  -2.312  0.00  0.00    +0.145 C 
BRANCH  13  14
ATOM     14  C   UNL     1      21.047  13.515  -0.826  0.00  0.00    +0.023 C 
BRANCH  14  15
ATOM     15  C   UNL     1      21.115  12.073  -0.327  0.00  0.00    +0.002 C 
BRANCH  15  16
ATOM     16  C   UNL     1      21.426  12.048   1.170  0.00  0.00    +0.000 C 
BRANCH  16  17
ATOM     17  C   UNL     1      22.110  10.749   1.585  0.00  0.00    +0.000 C 
BRANCH  17  18
ATOM     18  C   UNL     1      23.557  11.010   2.008  0.00  0.00    +0.000 C 
BRANCH  18  19
ATOM     19  C   UNL     1      24.433  11.315   0.796  0.00  0.00    +0.000 C 
BRANCH  19  20
ATOM     20  C   UNL     1      25.721  12.034   1.198  0.00  0.00    +0.001 C 
BRANCH  20  21
ATOM     21  C   UNL     1      26.318  11.398   2.453  0.00  0.00    +0.011 C 
BRANCH  21  22
ATOM     22  C   UNL     1      27.112  12.407   3.278  0.00  0.00    +0.120 C 
BRANCH  22  23
ATOM     23  C   UNL     1      28.586  12.068   3.295  0.00  0.00    +0.305 C 
ATOM     24  O   UNL     1      29.137  11.262   2.561  0.00  0.00    -0.251 OA
BRANCH  23  25
ATOM     25  O   UNL     1      29.265  12.766   4.234  0.00  0.00    -0.481 OA
ATOM     26  H   UNL     1      29.509  12.236   5.017  0.00  0.00    +0.295 HD
ENDBRANCH  23  25
ENDBRANCH  22  23
ENDBRANCH  21  22
ENDBRANCH  20  21
ENDBRANCH  19  20
ENDBRANCH  18  19
ENDBRANCH  17  18
ENDBRANCH  16  17
ENDBRANCH  15  16
ENDBRANCH  14  15
ENDBRANCH  13  14
ENDBRANCH  11  13
ENDBRANCH   7   9
ENDBRANCH   6   7
ENDBRANCH   5   6
ENDBRANCH   1   5
BRANCH   2  27
ATOM     27  C   UNL     1      28.734  14.696   0.683  0.00  0.00    +0.152 C 
BRANCH  27  28
ATOM     28  C   UNL     1      30.103  14.086   0.319  0.00  0.00    +0.193 C 
ATOM     29  O   UNL     1      30.183  14.074  -1.123  0.00  0.00    -0.219 OA
BRANCH  28  30
ATOM     30  C   UNL     1      31.368  14.850   0.769  0.00  0.00    +0.212 C 
ATOM     31  O   UNL     1      31.012  15.963   1.605  0.00  0.00    -0.218 OA
BRANCH  30  32
ATOM     32  C   UNL     1      32.401  13.947   1.544  0.00  0.00    +0.171 C 
ATOM     33  O   UNL     1      32.707  14.453   2.839  0.00  0.00    -0.343 OA
ATOM     34  C   UNL     1      33.759  13.995   3.636  0.00  0.00    +0.220 C 
ATOM     35  C   UNL     1      35.089  13.964   2.863  0.00  0.00    +0.076 C 
ATOM     36  C   UNL     1      34.855  13.159   1.574  0.00  0.00    +0.177 C 
ATOM     37  O   UNL     1      36.067  13.065   0.839  0.00  0.00    -0.221 OA
ATOM     38  C   UNL     1      33.727  13.821   0.724  0.00  0.00    +0.155 C 
BRANCH  38  39
ATOM     39  N   UNL     1      33.507  13.063  -0.505  0.00  0.00    -0.202 NA
ATOM     40  C   UNL     1      33.471  13.490  -1.793  0.00  0.00    +0.242 C 
ATOM     41  C   UNL     1      33.521  12.459  -2.890  0.00  0.00    +0.096 C 
ATOM     42  O   UNL     1      33.400  14.694  -2.032  0.00  0.00    -0.273 OA
ENDBRANCH  38  39
BRANCH  34  43
ATOM     43  C   UNL     1      33.453  12.571   4.356  0.00  0.00    +0.391 C 
ATOM     44  O   UNL     1      34.641  12.166   4.844  0.00  0.00    -0.243 OA
ATOM     45  O   UNL     1      32.121  12.486   4.457  0.00  0.00    -0.243 OA
ENDBRANCH  34  43
ENDBRANCH  30  32
ENDBRANCH  28  30
ENDBRANCH  27  28
ENDBRANCH   2  27
TORSDOF 22
