REMARK VINA RESULT:    -7.470      2.730      8.513
REMARK INTER + INTRA:         -13.871
REMARK INTER:                 -12.273
REMARK INTRA:                  -1.598
REMARK UNBOUND:                -1.598
REMARK  Name = lig_assembled_80.pdb
REMARK  11 active torsions:
REMARK  status: ('A' for Active; 'I' for Inactive)
REMARK    1  A    between atoms: _2  and  _9
REMARK    2  A    between atoms: _6  and  _7
REMARK    3  A    between atoms: _6  and  _19
REMARK    4  A    between atoms: _19  and  _21
REMARK    5  A    between atoms: _20  and  _25
REMARK    6  A    between atoms: _21  and  _24
REMARK    7  A    between atoms: _29  and  _39
REMARK    8  A    between atoms: _31  and  _32
REMARK    9  A    between atoms: _33  and  _35
REMARK   10  A    between atoms: _35  and  _37
REMARK   11  A    between atoms: _37  and  _39
REMARK                            x       y       z     vdW  Elec       q    Type
REMARK                         _______ _______ _______ _____ _____    ______ ____
ROOT
ATOM      1  C   UNL     1      25.606  16.053  -4.277  0.00  0.00    +0.400 C 
ATOM      2  N   UNL     1      24.323  15.636  -4.013  0.00  0.00    -0.278 N 
ATOM      3  H   UNL     1      24.075  15.041  -4.865  0.00  0.00    +0.152 HD
ATOM      4  O   UNL     1      26.193  15.551  -5.233  0.00  0.00    -0.226 OA
ENDROOT
BRANCH   1   5
ATOM      5  O   UNL     1      26.067  16.974  -3.497  0.00  0.00    -0.450 OA
BRANCH   5   6
ATOM      6  C   UNL     1      27.279  17.344  -2.880  0.00  0.00    +0.240 C 
BRANCH   6   7
ATOM      7  C   UNL     1      27.312  17.377  -1.341  0.00  0.00    +0.100 C 
BRANCH   7   9
ATOM      8  N   UNL     1      29.656  17.474  -0.588  0.00  0.00    -0.134 NA
ATOM      9  C   UNL     1      28.538  16.726  -0.837  0.00  0.00    +0.086 A 
ATOM     10  C   UNL     1      28.792  15.406  -0.540  0.00  0.00    +0.134 A 
ATOM     11  N   UNL     1      30.110  15.405  -0.167  0.00  0.00    -0.240 N 
ATOM     12  N   UNL     1      30.612  16.659  -0.162  0.00  0.00    -0.065 NA
BRANCH  11  13
ATOM     13  C   UNL     1      30.933  14.314   0.368  0.00  0.00    +0.195 C 
ATOM     14  C   UNL     1      32.390  14.600   0.032  0.00  0.00    +0.041 C 
ATOM     15  C   UNL     1      33.258  13.388   0.292  0.00  0.00    +0.039 C 
ATOM     16  C   UNL     1      33.667  13.355   1.733  0.00  0.00    -0.026 A 
ATOM     17  C   UNL     1      32.748  13.195   2.771  0.00  0.00    +0.037 A 
ATOM     18  C   UNL     1      33.219  13.052   4.087  0.00  0.00    +0.023 A 
ATOM     19  C   UNL     1      34.574  13.185   4.385  0.00  0.00    +0.002 A 
ATOM     20  C   UNL     1      35.482  13.419   3.362  0.00  0.00    +0.000 A 
ATOM     21  N   UNL     1      31.349  13.244   2.644  0.00  0.00    -0.284 N 
ATOM     22  H   UNL     1      30.839  13.079   3.505  0.00  0.00    +0.155 HD
ATOM     23  C   UNL     1      35.035  13.477   2.044  0.00  0.00    +0.005 A 
ATOM     24  C   UNL     1      30.573  14.004   1.816  0.00  0.00    +0.242 C 
ATOM     25  O   UNL     1      29.483  14.339   2.296  0.00  0.00    -0.273 OA
ENDBRANCH  11  13
ENDBRANCH   7   9
ENDBRANCH   6   7
ENDBRANCH   5   6
ENDBRANCH   1   5
BRANCH   2  26
ATOM     26  C   UNL     1      23.179  15.630  -3.104  0.00  0.00    +0.152 C 
BRANCH  26  27
ATOM     27  C   UNL     1      23.257  14.644  -1.920  0.00  0.00    +0.193 C 
ATOM     28  O   UNL     1      21.900  14.256  -1.612  0.00  0.00    -0.219 OA
BRANCH  27  29
ATOM     29  C   UNL     1      23.998  13.308  -2.149  0.00  0.00    +0.212 C 
ATOM     30  O   UNL     1      25.402  13.461  -1.885  0.00  0.00    -0.218 OA
BRANCH  29  31
ATOM     31  C   UNL     1      23.444  12.128  -1.264  0.00  0.00    +0.171 C 
ATOM     32  O   UNL     1      23.591  12.373   0.131  0.00  0.00    -0.343 OA
ATOM     33  C   UNL     1      23.413  11.407   1.124  0.00  0.00    +0.220 C 
ATOM     34  C   UNL     1      24.215  10.129   0.827  0.00  0.00    +0.076 C 
ATOM     35  C   UNL     1      23.847   9.671  -0.594  0.00  0.00    +0.177 C 
ATOM     36  O   UNL     1      24.533   8.467  -0.905  0.00  0.00    -0.221 OA
ATOM     37  C   UNL     1      24.179  10.795  -1.624  0.00  0.00    +0.155 C 
BRANCH  37  38
ATOM     38  N   UNL     1      23.838  10.362  -2.976  0.00  0.00    -0.202 NA
ATOM     39  C   UNL     1      24.632  10.211  -4.066  0.00  0.00    +0.242 C 
ATOM     40  C   UNL     1      24.081   9.469  -5.256  0.00  0.00    +0.096 C 
ATOM     41  O   UNL     1      25.771  10.675  -4.057  0.00  0.00    -0.273 OA
ENDBRANCH  37  38
BRANCH  33  42
ATOM     42  C   UNL     1      21.852  11.075   1.431  0.00  0.00    +0.391 C 
ATOM     43  O   UNL     1      21.880  10.011   2.258  0.00  0.00    -0.243 OA
ATOM     44  O   UNL     1      21.157  12.138   1.008  0.00  0.00    -0.243 OA
ENDBRANCH  33  42
ENDBRANCH  29  31
ENDBRANCH  27  29
ENDBRANCH  26  27
ENDBRANCH   2  26
TORSDOF 11
