REMARK VINA RESULT:    -6.495      4.230     10.493
REMARK INTER + INTRA:         -13.783
REMARK INTER:                 -11.843
REMARK INTRA:                  -1.940
REMARK UNBOUND:                -2.732
REMARK  Name = lig_assembled_85.pdb
REMARK  14 active torsions:
REMARK  status: ('A' for Active; 'I' for Inactive)
REMARK    1  A    between atoms: _2  and  _9
REMARK    2  A    between atoms: _3  and  _5
REMARK    3  A    between atoms: _3  and  _16
REMARK    4  A    between atoms: _6  and  _7
REMARK    5  A    between atoms: _6  and  _18
REMARK    6  A    between atoms: _14  and  _15
REMARK    7  A    between atoms: _18  and  _20
REMARK    8  A    between atoms: _19  and  _24
REMARK    9  A    between atoms: _20  and  _23
REMARK   10  A    between atoms: _28  and  _38
REMARK   11  A    between atoms: _30  and  _31
REMARK   12  A    between atoms: _32  and  _34
REMARK   13  A    between atoms: _34  and  _36
REMARK   14  A    between atoms: _36  and  _38
REMARK                            x       y       z     vdW  Elec       q    Type
REMARK                         _______ _______ _______ _____ _____    ______ ____
ROOT
ATOM      1  C   UNL     1      27.458  16.668  -2.007  0.00  0.00    +0.400 C 
ATOM      2  N   UNL     1      26.545  16.748  -3.032  0.00  0.00    -0.278 N 
ATOM      3  H   UNL     1      26.047  17.676  -2.848  0.00  0.00    +0.152 HD
ATOM      4  O   UNL     1      27.618  17.657  -1.295  0.00  0.00    -0.226 OA
ENDROOT
BRANCH   2   5
ATOM      5  C   UNL     1      25.976  16.156  -4.240  0.00  0.00    +0.152 C 
BRANCH   5   6
ATOM      6  C   UNL     1      24.586  15.505  -4.087  0.00  0.00    +0.193 C 
ATOM      7  O   UNL     1      24.425  14.603  -5.204  0.00  0.00    -0.219 OA
BRANCH   6   8
ATOM      8  C   UNL     1      24.343  14.623  -2.842  0.00  0.00    +0.212 C 
ATOM      9  O   UNL     1      24.503  15.395  -1.641  0.00  0.00    -0.218 OA
BRANCH   8  10
ATOM     10  C   UNL     1      22.918  13.950  -2.822  0.00  0.00    +0.171 C 
ATOM     11  O   UNL     1      21.861  14.903  -2.862  0.00  0.00    -0.343 OA
ATOM     12  C   UNL     1      20.520  14.603  -2.614  0.00  0.00    +0.220 C 
ATOM     13  C   UNL     1      20.344  13.823  -1.299  0.00  0.00    +0.076 C 
ATOM     14  C   UNL     1      21.279  12.605  -1.355  0.00  0.00    +0.177 C 
ATOM     15  O   UNL     1      21.126  11.825  -0.178  0.00  0.00    -0.221 OA
ATOM     16  C   UNL     1      22.757  13.070  -1.539  0.00  0.00    +0.155 C 
BRANCH  16  17
ATOM     17  N   UNL     1      23.650  11.915  -1.586  0.00  0.00    -0.202 NA
ATOM     18  C   UNL     1      24.482  11.422  -0.634  0.00  0.00    +0.242 C 
ATOM     19  C   UNL     1      25.070  10.050  -0.838  0.00  0.00    +0.096 C 
ATOM     20  O   UNL     1      24.733  12.097   0.363  0.00  0.00    -0.273 OA
ENDBRANCH  16  17
BRANCH  12  21
ATOM     21  C   UNL     1      19.783  13.857  -3.854  0.00  0.00    +0.391 C 
ATOM     22  O   UNL     1      20.748  13.682  -4.778  0.00  0.00    -0.243 OA
ATOM     23  O   UNL     1      18.603  13.434  -3.383  0.00  0.00    -0.243 OA
ENDBRANCH  12  21
ENDBRANCH   8  10
ENDBRANCH   6   8
ENDBRANCH   5   6
ENDBRANCH   2   5
BRANCH   1  24
ATOM     24  O   UNL     1      28.048  15.526  -1.871  0.00  0.00    -0.450 OA
BRANCH  24  25
ATOM     25  C   UNL     1      28.100  14.453  -0.960  0.00  0.00    +0.240 C 
BRANCH  25  26
ATOM     26  C   UNL     1      29.109  14.552   0.200  0.00  0.00    +0.100 C 
BRANCH  26  28
ATOM     27  N   UNL     1      31.078  15.873  -0.487  0.00  0.00    -0.134 NA
ATOM     28  C   UNL     1      30.481  14.656  -0.325  0.00  0.00    +0.086 A 
ATOM     29  C   UNL     1      31.372  13.663  -0.667  0.00  0.00    +0.139 A 
ATOM     30  N   UNL     1      32.515  14.332  -1.031  0.00  0.00    -0.219 N 
ATOM     31  N   UNL     1      32.323  15.665  -0.890  0.00  0.00    -0.061 NA
BRANCH  30  32
ATOM     32  C   UNL     1      33.776  13.820  -1.403  0.00  0.00    +0.080 A 
ATOM     33  C   UNL     1      34.092  13.356  -2.690  0.00  0.00    +0.062 A 
ATOM     34  C   UNL     1      35.302  12.644  -2.852  0.00  0.00    +0.016 A 
ATOM     35  C   UNL     1      36.180  12.421  -1.786  0.00  0.00    +0.021 A 
ATOM     36  C   UNL     1      35.884  12.950  -0.539  0.00  0.00    +0.043 A 
ATOM     37 CL   UNL     1      36.933  12.657   0.792  0.00  0.00    -0.083 Cl
ATOM     38  C   UNL     1      34.706  13.669  -0.348  0.00  0.00    +0.048 A 
BRANCH  33  39
ATOM     39  C   UNL     1      33.275  13.442  -3.936  0.00  0.00    +0.248 C 
ATOM     40  O   UNL     1      33.495  14.434  -4.637  0.00  0.00    -0.270 OA
ATOM     41  N   UNL     1      32.279  12.522  -4.281  0.00  0.00    -0.304 N 
ATOM     42  C   UNL     1      31.982  11.246  -3.645  0.00  0.00    +0.132 C 
ATOM     43  C   UNL     1      31.573  12.769  -5.535  0.00  0.00    +0.132 C 
ENDBRANCH  33  39
ENDBRANCH  30  32
ENDBRANCH  26  28
ENDBRANCH  25  26
ENDBRANCH  24  25
ENDBRANCH   1  24
TORSDOF 12
