REMARK VINA RESULT:    -6.387      2.795      5.506
REMARK INTER + INTRA:         -14.100
REMARK INTER:                 -11.337
REMARK INTRA:                  -2.763
REMARK UNBOUND:                -2.486
REMARK  Name = lig_assembled_29.pdb
REMARK  16 active torsions:
REMARK  status: ('A' for Active; 'I' for Inactive)
REMARK    1  A    between atoms: _2  and  _8
REMARK    2  A    between atoms: _5  and  _6
REMARK    3  A    between atoms: _5  and  _18
REMARK    4  A    between atoms: _8  and  _9
REMARK    5  A    between atoms: _11  and  _17
REMARK    6  A    between atoms: _12  and  _17
REMARK    7  A    between atoms: _13  and  _16
REMARK    8  A    between atoms: _14  and  _16
REMARK    9  A    between atoms: _18  and  _20
REMARK   10  A    between atoms: _19  and  _24
REMARK   11  A    between atoms: _20  and  _23
REMARK   12  A    between atoms: _28  and  _38
REMARK   13  A    between atoms: _30  and  _31
REMARK   14  A    between atoms: _32  and  _34
REMARK   15  A    between atoms: _34  and  _36
REMARK   16  A    between atoms: _36  and  _38
REMARK                            x       y       z     vdW  Elec       q    Type
REMARK                         _______ _______ _______ _____ _____    ______ ____
ROOT
ATOM      1  C   UNL     1      31.742  15.493  -0.332  0.00  0.00    +0.400 C 
ATOM      2  N   UNL     1      31.852  14.838   0.873  0.00  0.00    -0.278 N 
ATOM      3  H   UNL     1      32.784  14.321   0.789  0.00  0.00    +0.152 HD
ATOM      4  O   UNL     1      32.717  15.498  -1.079  0.00  0.00    -0.226 OA
ENDROOT
BRANCH   2   5
ATOM      5  C   UNL     1      31.287  14.551   2.188  0.00  0.00    +0.152 C 
BRANCH   5   6
ATOM      6  C   UNL     1      30.636  13.163   2.360  0.00  0.00    +0.193 C 
ATOM      7  O   UNL     1      30.366  13.002   3.770  0.00  0.00    -0.219 OA
BRANCH   6   8
ATOM      8  C   UNL     1      29.272  12.923   1.677  0.00  0.00    +0.212 C 
ATOM      9  O   UNL     1      28.603  14.173   1.440  0.00  0.00    -0.218 OA
BRANCH   8  10
ATOM     10  C   UNL     1      29.385  12.146   0.310  0.00  0.00    +0.171 C 
ATOM     11  O   UNL     1      29.235  13.000  -0.820  0.00  0.00    -0.343 OA
ATOM     12  C   UNL     1      29.051  12.549  -2.129  0.00  0.00    +0.220 C 
ATOM     13  C   UNL     1      27.917  11.513  -2.221  0.00  0.00    +0.076 C 
ATOM     14  C   UNL     1      28.214  10.409  -1.192  0.00  0.00    +0.177 C 
ATOM     15  O   UNL     1      27.214   9.402  -1.263  0.00  0.00    -0.221 OA
ATOM     16  C   UNL     1      28.302  11.020   0.241  0.00  0.00    +0.155 C 
BRANCH  16  17
ATOM     17  N   UNL     1      28.578   9.973   1.222  0.00  0.00    -0.202 NA
ATOM     18  C   UNL     1      27.756   9.410   2.144  0.00  0.00    +0.242 C 
ATOM     19  C   UNL     1      28.210   8.148   2.830  0.00  0.00    +0.096 C 
ATOM     20  O   UNL     1      26.673   9.936   2.395  0.00  0.00    -0.273 OA
ENDBRANCH  16  17
BRANCH  12  21
ATOM     21  C   UNL     1      30.414  12.005  -2.824  0.00  0.00    +0.391 C 
ATOM     22  O   UNL     1      30.004  11.355  -3.931  0.00  0.00    -0.243 OA
ATOM     23  O   UNL     1      31.420  12.649  -2.220  0.00  0.00    -0.243 OA
ENDBRANCH  12  21
ENDBRANCH   8  10
ENDBRANCH   6   8
ENDBRANCH   5   6
ENDBRANCH   2   5
BRANCH   1  24
ATOM     24  O   UNL     1      30.589  16.023  -0.577  0.00  0.00    -0.450 OA
BRANCH  24  25
ATOM     25  C   UNL     1      29.649  16.870   0.042  0.00  0.00    +0.240 C 
BRANCH  25  26
ATOM     26  C   UNL     1      28.928  17.902  -0.846  0.00  0.00    +0.100 C 
BRANCH  26  28
ATOM     27  N   UNL     1      27.141  17.954  -2.564  0.00  0.00    -0.134 NA
ATOM     28  C   UNL     1      27.890  17.245  -1.662  0.00  0.00    +0.086 A 
ATOM     29  C   UNL     1      27.517  15.922  -1.707  0.00  0.00    +0.134 A 
ATOM     30  N   UNL     1      26.604  15.874  -2.720  0.00  0.00    -0.247 N 
ATOM     31  N   UNL     1      26.346  17.103  -3.202  0.00  0.00    -0.065 NA
BRANCH  30  32
ATOM     32  C   UNL     1      25.981  14.703  -3.310  0.00  0.00    +0.180 C 
BRANCH  32  33
ATOM     33  C   UNL     1      24.714  14.340  -2.569  0.00  0.00    -0.022 A 
ATOM     34  C   UNL     1      23.499  14.970  -2.892  0.00  0.00    +0.054 A 
ATOM     35  C   UNL     1      22.304  14.586  -2.268  0.00  0.00    +0.162 A 
ATOM     36  C   UNL     1      22.321  13.564  -1.298  0.00  0.00    +0.162 A 
ATOM     37  C   UNL     1      23.531  12.939  -0.978  0.00  0.00    +0.050 A 
ATOM     38  C   UNL     1      24.718  13.326  -1.606  0.00  0.00    +0.009 A 
BRANCH  36  39
ATOM     39  O   UNL     1      21.112  13.249  -0.727  0.00  0.00    -0.491 OA
ATOM     40  C   UNL     1      21.092  12.222   0.253  0.00  0.00    +0.277 C 
ENDBRANCH  36  39
BRANCH  35  41
ATOM     41  O   UNL     1      21.076  15.137  -2.543  0.00  0.00    -0.491 OA
ATOM     42  C   UNL     1      20.984  16.039  -3.637  0.00  0.00    +0.277 C 
ENDBRANCH  35  41
ENDBRANCH  32  33
ENDBRANCH  30  32
ENDBRANCH  26  28
ENDBRANCH  25  26
ENDBRANCH  24  25
ENDBRANCH   1  24
TORSDOF 14
