REMARK VINA RESULT:    -7.437      1.357      3.646
REMARK INTER + INTRA:         -13.638
REMARK INTER:                 -12.132
REMARK INTRA:                  -1.506
REMARK UNBOUND:                -1.418
REMARK  Name = lig_assembled_20.pdb
REMARK  11 active torsions:
REMARK  status: ('A' for Active; 'I' for Inactive)
REMARK    1  A    between atoms: _2  and  _10
REMARK    2  A    between atoms: _7  and  _8
REMARK    3  A    between atoms: _7  and  _16
REMARK    4  A    between atoms: _16  and  _18
REMARK    5  A    between atoms: _17  and  _22
REMARK    6  A    between atoms: _18  and  _21
REMARK    7  A    between atoms: _26  and  _36
REMARK    8  A    between atoms: _28  and  _29
REMARK    9  A    between atoms: _30  and  _32
REMARK   10  A    between atoms: _32  and  _34
REMARK   11  A    between atoms: _34  and  _36
REMARK                            x       y       z     vdW  Elec       q    Type
REMARK                         _______ _______ _______ _____ _____    ______ ____
ROOT
ATOM      1  C   UNL     1      27.895  17.412  -0.842  0.00  0.00    +0.400 C 
ATOM      2  N   UNL     1      28.510  16.510  -0.005  0.00  0.00    -0.278 N 
ATOM      3  H   UNL     1      28.630  17.059   0.904  0.00  0.00    +0.152 HD
ATOM      4  O   UNL     1      27.489  18.466  -0.359  0.00  0.00    -0.226 OA
ENDROOT
BRANCH   1   5
ATOM      5  O   UNL     1      27.832  17.068  -2.086  0.00  0.00    -0.450 OA
BRANCH   5   6
ATOM      6  C   UNL     1      27.073  17.356  -3.237  0.00  0.00    +0.240 C 
BRANCH   6   7
ATOM      7  C   UNL     1      26.538  16.164  -4.053  0.00  0.00    +0.100 C 
BRANCH   7   9
ATOM      8  N   UNL     1      24.256  15.532  -3.314  0.00  0.00    -0.134 NA
ATOM      9  C   UNL     1      25.608  15.359  -3.240  0.00  0.00    +0.086 A 
ATOM     10  C   UNL     1      25.884  14.367  -2.328  0.00  0.00    +0.139 A 
ATOM     11  N   UNL     1      24.656  13.954  -1.864  0.00  0.00    -0.220 N 
ATOM     12  N   UNL     1      23.684  14.675  -2.477  0.00  0.00    -0.061 NA
BRANCH  11  13
ATOM     13  C   UNL     1      24.368  12.947  -0.907  0.00  0.00    +0.068 A 
ATOM     14  C   UNL     1      25.418  12.214  -0.328  0.00  0.00    +0.030 A 
ATOM     15  C   UNL     1      25.170  11.214   0.624  0.00  0.00    +0.030 A 
ATOM     16  C   UNL     1      23.836  10.980   0.971  0.00  0.00    +0.066 A 
ATOM     17  C   UNL     1      22.777  11.687   0.416  0.00  0.00    +0.021 A 
ATOM     18  C   UNL     1      21.627  11.146   1.031  0.00  0.00    +0.142 A 
ATOM     19  N   UNL     1      21.916  10.179   1.903  0.00  0.00    -0.181 NA
ATOM     20  N   UNL     1      23.258  10.101   1.850  0.00  0.00    -0.277 N 
ATOM     21  H   UNL     1      23.725   9.421   2.438  0.00  0.00    +0.189 HD
ATOM     22  C   UNL     1      23.036  12.687  -0.538  0.00  0.00    +0.039 A 
ENDBRANCH  11  13
ENDBRANCH   7   9
ENDBRANCH   6   7
ENDBRANCH   5   6
ENDBRANCH   1   5
BRANCH   2  23
ATOM     23  C   UNL     1      29.045  15.167   0.199  0.00  0.00    +0.152 C 
BRANCH  23  24
ATOM     24  C   UNL     1      30.330  14.822  -0.583  0.00  0.00    +0.193 C 
ATOM     25  O   UNL     1      31.187  15.982  -0.505  0.00  0.00    -0.219 OA
BRANCH  24  26
ATOM     26  C   UNL     1      31.201  13.662  -0.051  0.00  0.00    +0.212 C 
ATOM     27  O   UNL     1      30.478  12.422  -0.115  0.00  0.00    -0.218 OA
BRANCH  26  28
ATOM     28  C   UNL     1      32.561  13.494  -0.830  0.00  0.00    +0.171 C 
ATOM     29  O   UNL     1      32.417  12.734  -2.026  0.00  0.00    -0.343 OA
ATOM     30  C   UNL     1      33.484  12.230  -2.773  0.00  0.00    +0.220 C 
ATOM     31  C   UNL     1      34.483  11.460  -1.892  0.00  0.00    +0.076 C 
ATOM     32  C   UNL     1      34.885  12.384  -0.731  0.00  0.00    +0.177 C 
ATOM     33  O   UNL     1      35.841  11.734   0.094  0.00  0.00    -0.221 OA
ATOM     34  C   UNL     1      33.623  12.802   0.085  0.00  0.00    +0.155 C 
BRANCH  34  35
ATOM     35  N   UNL     1      34.001  13.674   1.194  0.00  0.00    -0.202 NA
ATOM     36  C   UNL     1      33.861  13.488   2.531  0.00  0.00    +0.242 C 
ATOM     37  C   UNL     1      34.602  14.412   3.463  0.00  0.00    +0.096 C 
ATOM     38  O   UNL     1      33.144  12.581   2.947  0.00  0.00    -0.273 OA
ENDBRANCH  34  35
BRANCH  30  39
ATOM     39  C   UNL     1      34.229  13.356  -3.677  0.00  0.00    +0.391 C 
ATOM     40  O   UNL     1      35.402  12.797  -4.031  0.00  0.00    -0.243 OA
ATOM     41  O   UNL     1      33.295  14.268  -3.975  0.00  0.00    -0.243 OA
ENDBRANCH  30  39
ENDBRANCH  26  28
ENDBRANCH  24  26
ENDBRANCH  23  24
ENDBRANCH   2  23
TORSDOF 11
