REMARK VINA RESULT:    -7.482      2.793      7.090
REMARK INTER + INTRA:         -14.234
REMARK INTER:                 -11.013
REMARK INTRA:                  -3.221
REMARK UNBOUND:                -1.503
REMARK  Name = lig_assembled_89.pdb
REMARK  14 active torsions:
REMARK  status: ('A' for Active; 'I' for Inactive)
REMARK    1  A    between atoms: _2  and  _11
REMARK    2  A    between atoms: _5  and  _19
REMARK    3  A    between atoms: _8  and  _9
REMARK    4  A    between atoms: _8  and  _24
REMARK    5  A    between atoms: _19  and  _20
REMARK    6  A    between atoms: _19  and  _21
REMARK    7  A    between atoms: _24  and  _26
REMARK    8  A    between atoms: _25  and  _30
REMARK    9  A    between atoms: _26  and  _29
REMARK   10  A    between atoms: _34  and  _44
REMARK   11  A    between atoms: _36  and  _37
REMARK   12  A    between atoms: _38  and  _40
REMARK   13  A    between atoms: _40  and  _42
REMARK   14  A    between atoms: _42  and  _44
REMARK                            x       y       z     vdW  Elec       q    Type
REMARK                         _______ _______ _______ _____ _____    ______ ____
ROOT
ATOM      1  C   UNL     1      26.725  15.134  -2.908  0.00  0.00    +0.240 C 
ENDROOT
BRANCH   1   2
ATOM      2  C   UNL     1      26.833  16.339  -1.955  0.00  0.00    +0.100 C 
BRANCH   2   4
ATOM      3  N   UNL     1      28.870  17.462  -1.135  0.00  0.00    -0.134 NA
ATOM      4  C   UNL     1      28.132  16.323  -1.260  0.00  0.00    +0.087 A 
ATOM      5  C   UNL     1      28.795  15.290  -0.641  0.00  0.00    +0.141 A 
ATOM      6  N   UNL     1      29.941  15.857  -0.118  0.00  0.00    -0.200 N 
ATOM      7  N   UNL     1      29.958  17.173  -0.437  0.00  0.00    -0.059 NA
BRANCH   6   8
ATOM      8  C   UNL     1      30.898  15.193   0.704  0.00  0.00    +0.186 A 
ATOM      9  C   UNL     1      31.925  14.342   0.350  0.00  0.00    +0.158 A 
ATOM     10  C   UNL     1      32.311  13.732  -0.885  0.00  0.00    +0.280 A 
ATOM     11  O   UNL     1      31.539  13.615  -1.827  0.00  0.00    -0.265 OA
ATOM     12  N   UNL     1      33.634  13.246  -0.929  0.00  0.00    -0.302 N 
ATOM     13  C   UNL     1      34.346  12.969   0.299  0.00  0.00    +0.069 A 
ATOM     14  C   UNL     1      35.541  12.235   0.333  0.00  0.00    +0.028 A 
ATOM     15  C   UNL     1      36.178  11.940   1.546  0.00  0.00    +0.002 A 
ATOM     16  C   UNL     1      35.642  12.383   2.751  0.00  0.00    +0.002 A 
ATOM     17  C   UNL     1      34.465  13.124   2.753  0.00  0.00    +0.028 A 
ATOM     18  C   UNL     1      33.823  13.403   1.538  0.00  0.00    +0.072 A 
ATOM     19  N   UNL     1      32.630  14.143   1.506  0.00  0.00    -0.291 N 
ATOM     20  C   UNL     1      31.951  14.776   2.515  0.00  0.00    +0.207 A 
ATOM     21  N   UNL     1      30.903  15.433   2.064  0.00  0.00    -0.216 NA
BRANCH  12  22
ATOM     22  C   UNL     1      34.180  12.840  -2.245  0.00  0.00    +0.085 C 
ATOM     23  C   UNL     1      33.915  13.860  -3.368  0.00  0.00    +0.030 C 
ATOM     24  C   UNL     1      33.693  11.450  -2.656  0.00  0.00    +0.030 C 
ENDBRANCH  12  22
ENDBRANCH   6   8
ENDBRANCH   2   4
ENDBRANCH   1   2
BRANCH   1  25
ATOM     25  O   UNL     1      25.733  14.173  -2.632  0.00  0.00    -0.450 OA
BRANCH  25  26
ATOM     26  C   UNL     1      24.888  13.877  -1.700  0.00  0.00    +0.400 C 
ATOM     27  N   UNL     1      25.399  13.177  -0.633  0.00  0.00    -0.278 N 
ATOM     28  H   UNL     1      24.609  13.211   0.087  0.00  0.00    +0.152 HD
ATOM     29  O   UNL     1      23.699  14.187  -1.674  0.00  0.00    -0.226 OA
BRANCH  27  30
ATOM     30  C   UNL     1      26.504  12.413  -0.060  0.00  0.00    +0.152 C 
BRANCH  30  31
ATOM     31  C   UNL     1      26.676  12.509   1.470  0.00  0.00    +0.193 C 
ATOM     32  O   UNL     1      26.551  11.165   1.986  0.00  0.00    -0.219 OA
BRANCH  31  33
ATOM     33  C   UNL     1      28.037  13.003   2.007  0.00  0.00    +0.212 C 
ATOM     34  O   UNL     1      27.845  14.054   2.968  0.00  0.00    -0.218 OA
BRANCH  33  35
ATOM     35  C   UNL     1      28.897  11.862   2.673  0.00  0.00    +0.171 C 
ATOM     36  O   UNL     1      29.315  12.192   3.994  0.00  0.00    -0.343 OA
ATOM     37  C   UNL     1      30.277  11.482   4.716  0.00  0.00    +0.220 C 
ATOM     38  C   UNL     1      31.564  11.272   3.899  0.00  0.00    +0.076 C 
ATOM     39  C   UNL     1      31.161  10.636   2.558  0.00  0.00    +0.177 C 
ATOM     40  O   UNL     1      32.321  10.383   1.778  0.00  0.00    -0.221 OA
ATOM     41  C   UNL     1      30.161  11.564   1.802  0.00  0.00    +0.155 C 
BRANCH  41  42
ATOM     42  N   UNL     1      29.781  10.966   0.524  0.00  0.00    -0.202 NA
ATOM     43  C   UNL     1      29.180   9.777   0.267  0.00  0.00    +0.242 C 
ATOM     44  C   UNL     1      28.635   9.536  -1.117  0.00  0.00    +0.096 C 
ATOM     45  O   UNL     1      29.093   8.935   1.158  0.00  0.00    -0.273 OA
ENDBRANCH  41  42
BRANCH  37  46
ATOM     46  C   UNL     1      29.724  10.083   5.329  0.00  0.00    +0.391 C 
ATOM     47  O   UNL     1      30.829   9.367   5.613  0.00  0.00    -0.243 OA
ATOM     48  O   UNL     1      28.428  10.284   5.598  0.00  0.00    -0.243 OA
ENDBRANCH  37  46
ENDBRANCH  33  35
ENDBRANCH  31  33
ENDBRANCH  30  31
ENDBRANCH  27  30
ENDBRANCH  25  26
ENDBRANCH   1  25
TORSDOF 12
