REMARK VINA RESULT:    -6.096      1.674      3.455
REMARK INTER + INTRA:         -16.115
REMARK INTER:                 -12.897
REMARK INTRA:                  -3.218
REMARK UNBOUND:                -2.358
REMARK  Name = lig_assembled_30.pdb
REMARK  22 active torsions:
REMARK  status: ('A' for Active; 'I' for Inactive)
REMARK    1  A    between atoms: _2  and  _8
REMARK    2  A    between atoms: _4  and  _17
REMARK    3  A    between atoms: _4  and  _18
REMARK    4  A    between atoms: _5  and  _6
REMARK    5  A    between atoms: _5  and  _20
REMARK    6  A    between atoms: _8  and  _9
REMARK    7  A    between atoms: _9  and  _10
REMARK    8  A    between atoms: _10  and  _11
REMARK    9  A    between atoms: _11  and  _12
REMARK   10  A    between atoms: _12  and  _13
REMARK   11  A    between atoms: _13  and  _14
REMARK   12  A    between atoms: _14  and  _15
REMARK   13  A    between atoms: _15  and  _16
REMARK   14  A    between atoms: _16  and  _17
REMARK   15  A    between atoms: _20  and  _22
REMARK   16  A    between atoms: _21  and  _26
REMARK   17  A    between atoms: _22  and  _25
REMARK   18  A    between atoms: _30  and  _40
REMARK   19  A    between atoms: _32  and  _33
REMARK   20  A    between atoms: _34  and  _36
REMARK   21  A    between atoms: _36  and  _38
REMARK   22  A    between atoms: _38  and  _40
REMARK                            x       y       z     vdW  Elec       q    Type
REMARK                         _______ _______ _______ _____ _____    ______ ____
ROOT
ATOM      1  C   UNL     1      28.575  16.712  -0.836  0.00  0.00    +0.400 C 
ATOM      2  N   UNL     1      28.765  15.678   0.051  0.00  0.00    -0.278 N 
ATOM      3  H   UNL     1      29.729  15.881   0.465  0.00  0.00    +0.152 HD
ATOM      4  O   UNL     1      29.377  17.643  -0.820  0.00  0.00    -0.226 OA
ENDROOT
BRANCH   1   5
ATOM      5  O   UNL     1      27.569  16.585  -1.637  0.00  0.00    -0.450 OA
BRANCH   5   6
ATOM      6  C   UNL     1      27.067  15.673  -2.585  0.00  0.00    +0.240 C 
BRANCH   6   7
ATOM      7  C   UNL     1      25.794  16.074  -3.353  0.00  0.00    +0.100 C 
BRANCH   7   9
ATOM      8  N   UNL     1      24.763  14.298  -1.970  0.00  0.00    -0.134 NA
ATOM      9  C   UNL     1      24.618  15.388  -2.788  0.00  0.00    +0.086 A 
ATOM     10  C   UNL     1      23.276  15.660  -2.944  0.00  0.00    +0.133 A 
ATOM     11  N   UNL     1      22.662  14.701  -2.197  0.00  0.00    -0.251 N 
ATOM     12  N   UNL     1      23.554  13.883  -1.615  0.00  0.00    -0.065 NA
BRANCH  11  13
ATOM     13  C   UNL     1      21.243  14.478  -2.030  0.00  0.00    +0.145 C 
BRANCH  13  14
ATOM     14  C   UNL     1      20.612  13.948  -3.313  0.00  0.00    +0.023 C 
BRANCH  14  15
ATOM     15  C   UNL     1      21.065  12.523  -3.625  0.00  0.00    +0.002 C 
BRANCH  15  16
ATOM     16  C   UNL     1      20.656  11.580  -2.493  0.00  0.00    +0.000 C 
BRANCH  16  17
ATOM     17  C   UNL     1      21.803  10.665  -2.075  0.00  0.00    +0.000 C 
BRANCH  17  18
ATOM     18  C   UNL     1      21.742  10.369  -0.575  0.00  0.00    +0.000 C 
BRANCH  18  19
ATOM     19  C   UNL     1      21.315  11.608   0.207  0.00  0.00    +0.000 C 
BRANCH  19  20
ATOM     20  C   UNL     1      22.025  11.693   1.560  0.00  0.00    +0.001 C 
BRANCH  20  21
ATOM     21  C   UNL     1      22.995  10.524   1.727  0.00  0.00    +0.011 C 
BRANCH  21  22
ATOM     22  C   UNL     1      24.438  11.001   1.880  0.00  0.00    +0.120 C 
BRANCH  22  23
ATOM     23  C   UNL     1      25.064  11.304   0.538  0.00  0.00    +0.305 C 
ATOM     24  O   UNL     1      25.295  10.487  -0.339  0.00  0.00    -0.251 OA
BRANCH  23  25
ATOM     25  O   UNL     1      25.357  12.617   0.392  0.00  0.00    -0.481 OA
ATOM     26  H   UNL     1      26.235  12.864   0.740  0.00  0.00    +0.295 HD
ENDBRANCH  23  25
ENDBRANCH  22  23
ENDBRANCH  21  22
ENDBRANCH  20  21
ENDBRANCH  19  20
ENDBRANCH  18  19
ENDBRANCH  17  18
ENDBRANCH  16  17
ENDBRANCH  15  16
ENDBRANCH  14  15
ENDBRANCH  13  14
ENDBRANCH  11  13
ENDBRANCH   7   9
ENDBRANCH   6   7
ENDBRANCH   5   6
ENDBRANCH   1   5
BRANCH   2  27
ATOM     27  C   UNL     1      28.246  14.465   0.677  0.00  0.00    +0.152 C 
BRANCH  27  28
ATOM     28  C   UNL     1      28.822  14.116   2.065  0.00  0.00    +0.193 C 
ATOM     29  O   UNL     1      27.719  13.631   2.862  0.00  0.00    -0.219 OA
BRANCH  28  30
ATOM     30  C   UNL     1      29.876  12.989   2.138  0.00  0.00    +0.212 C 
ATOM     31  O   UNL     1      29.387  11.801   1.494  0.00  0.00    -0.218 OA
BRANCH  30  32
ATOM     32  C   UNL     1      31.257  13.382   1.489  0.00  0.00    +0.171 C 
ATOM     33  O   UNL     1      31.280  13.172   0.081  0.00  0.00    -0.343 OA
ATOM     34  C   UNL     1      32.436  13.204  -0.702  0.00  0.00    +0.220 C 
ATOM     35  C   UNL     1      33.546  12.312  -0.118  0.00  0.00    +0.076 C 
ATOM     36  C   UNL     1      33.746  12.725   1.350  0.00  0.00    +0.177 C 
ATOM     37  O   UNL     1      34.791  11.956   1.928  0.00  0.00    -0.221 OA
ATOM     38  C   UNL     1      32.413  12.555   2.143  0.00  0.00    +0.155 C 
BRANCH  38  39
ATOM     39  N   UNL     1      32.601  12.940   3.539  0.00  0.00    -0.202 NA
ATOM     40  C   UNL     1      32.521  12.186   4.665  0.00  0.00    +0.242 C 
ATOM     41  C   UNL     1      33.049  12.764   5.952  0.00  0.00    +0.096 C 
ATOM     42  O   UNL     1      32.027  11.061   4.609  0.00  0.00    -0.273 OA
ENDBRANCH  38  39
BRANCH  34  43
ATOM     43  C   UNL     1      32.975  14.708  -1.001  0.00  0.00    +0.391 C 
ATOM     44  O   UNL     1      31.922  15.510  -0.747  0.00  0.00    -0.243 OA
ATOM     45  O   UNL     1      34.307  14.613  -1.088  0.00  0.00    -0.243 OA
ENDBRANCH  34  43
ENDBRANCH  30  32
ENDBRANCH  28  30
ENDBRANCH  27  28
ENDBRANCH   2  27
TORSDOF 22
