REMARK VINA RESULT:    -6.177      4.911     10.124
REMARK INTER + INTRA:         -12.340
REMARK INTER:                 -10.149
REMARK INTRA:                  -2.191
REMARK UNBOUND:                -2.191
REMARK  Name = lig_assembled_93.pdb
REMARK  11 active torsions:
REMARK  status: ('A' for Active; 'I' for Inactive)
REMARK    1  A    between atoms: _2  and  _8
REMARK    2  A    between atoms: _5  and  _6
REMARK    3  A    between atoms: _5  and  _13
REMARK    4  A    between atoms: _13  and  _15
REMARK    5  A    between atoms: _14  and  _19
REMARK    6  A    between atoms: _15  and  _18
REMARK    7  A    between atoms: _23  and  _33
REMARK    8  A    between atoms: _25  and  _26
REMARK    9  A    between atoms: _27  and  _29
REMARK   10  A    between atoms: _29  and  _31
REMARK   11  A    between atoms: _31  and  _33
REMARK                            x       y       z     vdW  Elec       q    Type
REMARK                         _______ _______ _______ _____ _____    ______ ____
ROOT
ATOM      1  C   UNL     1      32.102  13.777   2.225  0.00  0.00    +0.400 C 
ATOM      2  N   UNL     1      31.578  14.530   1.201  0.00  0.00    -0.278 N 
ATOM      3  H   UNL     1      31.271  13.796   0.487  0.00  0.00    +0.152 HD
ATOM      4  O   UNL     1      31.945  12.559   2.188  0.00  0.00    -0.226 OA
ENDROOT
BRANCH   1   5
ATOM      5  O   UNL     1      32.748  14.436   3.130  0.00  0.00    -0.450 OA
BRANCH   5   6
ATOM      6  C   UNL     1      34.063  14.572   3.617  0.00  0.00    +0.240 C 
BRANCH   6   7
ATOM      7  C   UNL     1      34.797  13.289   4.052  0.00  0.00    +0.100 C 
BRANCH   7   9
ATOM      8  N   UNL     1      33.753  11.249   4.966  0.00  0.00    -0.134 NA
ATOM      9  C   UNL     1      34.017  12.577   5.080  0.00  0.00    +0.086 A 
ATOM     10  C   UNL     1      33.454  13.044   6.246  0.00  0.00    +0.139 A 
ATOM     11  N   UNL     1      32.859  11.941   6.838  0.00  0.00    -0.219 N 
ATOM     12  N   UNL     1      33.052  10.879   6.026  0.00  0.00    -0.061 NA
BRANCH  11  13
ATOM     13  C   UNL     1      32.164  11.877   8.087  0.00  0.00    +0.080 A 
ATOM     14  C   UNL     1      30.813  12.299   8.107  0.00  0.00    +0.029 A 
ATOM     15  C   UNL     1      30.057  12.291   9.283  0.00  0.00    +0.002 A 
ATOM     16  C   UNL     1      30.628  11.864  10.470  0.00  0.00    +0.001 A 
ATOM     17  C   UNL     1      31.954  11.439  10.479  0.00  0.00    +0.016 A 
ATOM     18  C   UNL     1      32.732  11.437   9.302  0.00  0.00    +0.039 A 
ATOM     19  I   UNL     1      34.699  10.732   9.637  0.00  0.00    -0.042 I 
ENDBRANCH  11  13
ENDBRANCH   7   9
ENDBRANCH   6   7
ENDBRANCH   5   6
ENDBRANCH   1   5
BRANCH   2  20
ATOM     20  C   UNL     1      31.247  15.850   0.670  0.00  0.00    +0.152 C 
BRANCH  20  21
ATOM     21  C   UNL     1      29.799  16.040   0.175  0.00  0.00    +0.193 C 
ATOM     22  O   UNL     1      29.808  17.184  -0.707  0.00  0.00    -0.219 OA
BRANCH  21  23
ATOM     23  C   UNL     1      29.178  14.907  -0.671  0.00  0.00    +0.212 C 
ATOM     24  O   UNL     1      30.208  14.076  -1.231  0.00  0.00    -0.218 OA
BRANCH  23  25
ATOM     25  C   UNL     1      28.182  13.994   0.142  0.00  0.00    +0.171 C 
ATOM     26  O   UNL     1      28.847  13.163   1.086  0.00  0.00    -0.343 OA
ATOM     27  C   UNL     1      28.246  12.097   1.759  0.00  0.00    +0.220 C 
ATOM     28  C   UNL     1      27.518  11.148   0.791  0.00  0.00    +0.076 C 
ATOM     29  C   UNL     1      26.561  12.000  -0.060  0.00  0.00    +0.177 C 
ATOM     30  O   UNL     1      25.832  11.164  -0.948  0.00  0.00    -0.221 OA
ATOM     31  C   UNL     1      27.360  13.092  -0.836  0.00  0.00    +0.155 C 
BRANCH  31  32
ATOM     32  N   UNL     1      26.455  13.899  -1.651  0.00  0.00    -0.202 NA
ATOM     33  C   UNL     1      26.392  14.040  -2.999  0.00  0.00    +0.242 C 
ATOM     34  C   UNL     1      25.177  14.702  -3.594  0.00  0.00    +0.096 C 
ATOM     35  O   UNL     1      27.317  13.627  -3.696  0.00  0.00    -0.273 OA
ENDBRANCH  31  32
BRANCH  27  36
ATOM     36  C   UNL     1      27.277  12.564   2.977  0.00  0.00    +0.391 C 
ATOM     37  O   UNL     1      26.630  11.444   3.356  0.00  0.00    -0.243 OA
ATOM     38  O   UNL     1      27.698  13.782   3.338  0.00  0.00    -0.243 OA
ENDBRANCH  27  36
ENDBRANCH  23  25
ENDBRANCH  21  23
ENDBRANCH  20  21
ENDBRANCH   2  20
TORSDOF 11
