REMARK VINA RESULT:    -6.320      1.808      3.832
REMARK INTER + INTRA:         -14.198
REMARK INTER:                 -12.137
REMARK INTRA:                  -2.061
REMARK UNBOUND:                -1.965
REMARK  Name = lig_assembled_11.pdb
REMARK  17 active torsions:
REMARK  status: ('A' for Active; 'I' for Inactive)
REMARK    1  A    between atoms: _2  and  _8
REMARK    2  A    between atoms: _4  and  _8
REMARK    3  A    between atoms: _4  and  _12
REMARK    4  A    between atoms: _5  and  _6
REMARK    5  A    between atoms: _5  and  _16
REMARK    6  A    between atoms: _8  and  _9
REMARK    7  A    between atoms: _9  and  _10
REMARK    8  A    between atoms: _10  and  _11
REMARK    9  A    between atoms: _11  and  _14
REMARK   10  A    between atoms: _16  and  _18
REMARK   11  A    between atoms: _17  and  _22
REMARK   12  A    between atoms: _18  and  _21
REMARK   13  A    between atoms: _26  and  _36
REMARK   14  A    between atoms: _28  and  _29
REMARK   15  A    between atoms: _30  and  _32
REMARK   16  A    between atoms: _32  and  _34
REMARK   17  A    between atoms: _34  and  _36
REMARK                            x       y       z     vdW  Elec       q    Type
REMARK                         _______ _______ _______ _____ _____    ______ ____
ROOT
ATOM      1  C   UNL     1      27.864  17.404  -0.675  0.00  0.00    +0.400 C 
ATOM      2  N   UNL     1      28.526  16.446   0.056  0.00  0.00    -0.278 N 
ATOM      3  H   UNL     1      28.727  16.937   0.984  0.00  0.00    +0.152 HD
ATOM      4  O   UNL     1      27.515  18.432  -0.100  0.00  0.00    -0.226 OA
ENDROOT
BRANCH   1   5
ATOM      5  O   UNL     1      27.698  17.136  -1.928  0.00  0.00    -0.450 OA
BRANCH   5   6
ATOM      6  C   UNL     1      26.895  17.546  -3.011  0.00  0.00    +0.240 C 
BRANCH   6   7
ATOM      7  C   UNL     1      26.764  16.580  -4.204  0.00  0.00    +0.100 C 
BRANCH   7   9
ATOM      8  N   UNL     1      26.309  14.155  -4.013  0.00  0.00    -0.134 NA
ATOM      9  C   UNL     1      25.889  15.445  -3.854  0.00  0.00    +0.086 A 
ATOM     10  C   UNL     1      24.611  15.442  -3.342  0.00  0.00    +0.134 A 
ATOM     11  N   UNL     1      24.288  14.119  -3.252  0.00  0.00    -0.238 N 
ATOM     12  N   UNL     1      25.327  13.350  -3.630  0.00  0.00    -0.065 NA
BRANCH  11  13
ATOM     13  C   UNL     1      23.102  13.470  -2.700  0.00  0.00    +0.217 C 
BRANCH  13  14
ATOM     14  C   UNL     1      21.803  14.194  -3.017  0.00  0.00    +0.330 C 
ATOM     15  O   UNL     1      21.186  14.130  -4.069  0.00  0.00    -0.249 OA
BRANCH  14  16
ATOM     16  O   UNL     1      21.343  14.971  -2.003  0.00  0.00    -0.479 OA
ATOM     17  H   UNL     1      20.610  14.613  -1.465  0.00  0.00    +0.295 HD
ENDBRANCH  14  16
ENDBRANCH  13  14
BRANCH  13  18
ATOM     18  C   UNL     1      23.262  13.167  -1.199  0.00  0.00    +0.049 C 
BRANCH  18  19
ATOM     19  C   UNL     1      24.210  12.006  -0.872  0.00  0.00    +0.123 C 
BRANCH  19  20
ATOM     20  C   UNL     1      25.391  12.485  -0.059  0.00  0.00    +0.305 C 
ATOM     21  O   UNL     1      25.639  12.131   1.083  0.00  0.00    -0.251 OA
BRANCH  20  22
ATOM     22  O   UNL     1      26.152  13.382  -0.724  0.00  0.00    -0.481 OA
ATOM     23  H   UNL     1      25.648  14.090  -1.168  0.00  0.00    +0.295 HD
ENDBRANCH  20  22
ENDBRANCH  19  20
ENDBRANCH  18  19
ENDBRANCH  13  18
ENDBRANCH  11  13
ENDBRANCH   7   9
ENDBRANCH   6   7
ENDBRANCH   5   6
ENDBRANCH   1   5
BRANCH   2  24
ATOM     24  C   UNL     1      29.053  15.086   0.137  0.00  0.00    +0.152 C 
BRANCH  24  25
ATOM     25  C   UNL     1      30.418  14.844  -0.541  0.00  0.00    +0.193 C 
ATOM     26  O   UNL     1      31.139  16.094  -0.481  0.00  0.00    -0.219 OA
BRANCH  25  27
ATOM     27  C   UNL     1      31.369  13.818   0.112  0.00  0.00    +0.212 C 
ATOM     28  O   UNL     1      30.703  12.558   0.291  0.00  0.00    -0.218 OA
BRANCH  27  29
ATOM     29  C   UNL     1      32.690  13.577  -0.713  0.00  0.00    +0.171 C 
ATOM     30  O   UNL     1      32.457  12.864  -1.923  0.00  0.00    -0.343 OA
ATOM     31  C   UNL     1      33.464  12.308  -2.717  0.00  0.00    +0.220 C 
ATOM     32  C   UNL     1      34.431  11.444  -1.889  0.00  0.00    +0.076 C 
ATOM     33  C   UNL     1      34.932  12.304  -0.716  0.00  0.00    +0.177 C 
ATOM     34  O   UNL     1      35.862  11.564   0.060  0.00  0.00    -0.221 OA
ATOM     35  C   UNL     1      33.726  12.785   0.150  0.00  0.00    +0.155 C 
BRANCH  35  36
ATOM     36  N   UNL     1      34.198  13.597   1.269  0.00  0.00    -0.202 NA
ATOM     37  C   UNL     1      34.114  13.367   2.604  0.00  0.00    +0.242 C 
ATOM     38  C   UNL     1      34.942  14.219   3.530  0.00  0.00    +0.096 C 
ATOM     39  O   UNL     1      33.375  12.478   3.022  0.00  0.00    -0.273 OA
ENDBRANCH  35  36
BRANCH  31  40
ATOM     40  C   UNL     1      34.260  13.404  -3.613  0.00  0.00    +0.391 C 
ATOM     41  O   UNL     1      35.409  12.795  -3.966  0.00  0.00    -0.243 OA
ATOM     42  O   UNL     1      33.369  14.357  -3.910  0.00  0.00    -0.243 OA
ENDBRANCH  31  40
ENDBRANCH  27  29
ENDBRANCH  25  27
ENDBRANCH  24  25
ENDBRANCH   2  24
TORSDOF 17
