REMARK VINA RESULT:    -6.970      1.979      2.613
REMARK INTER + INTRA:         -14.004
REMARK INTER:                 -12.518
REMARK INTRA:                  -1.486
REMARK UNBOUND:                -2.144
REMARK  Name = lig_assembled_63.pdb
REMARK  12 active torsions:
REMARK  status: ('A' for Active; 'I' for Inactive)
REMARK    1  A    between atoms: _2  and  _10
REMARK    2  A    between atoms: _6  and  _14
REMARK    3  A    between atoms: _7  and  _8
REMARK    4  A    between atoms: _7  and  _15
REMARK    5  A    between atoms: _15  and  _17
REMARK    6  A    between atoms: _16  and  _21
REMARK    7  A    between atoms: _17  and  _20
REMARK    8  A    between atoms: _25  and  _35
REMARK    9  A    between atoms: _27  and  _28
REMARK   10  A    between atoms: _29  and  _31
REMARK   11  A    between atoms: _31  and  _33
REMARK   12  A    between atoms: _33  and  _35
REMARK                            x       y       z     vdW  Elec       q    Type
REMARK                         _______ _______ _______ _____ _____    ______ ____
ROOT
ATOM      1  C   UNL     1      27.845  17.473  -0.832  0.00  0.00    +0.400 C 
ATOM      2  N   UNL     1      28.503  16.465  -0.168  0.00  0.00    -0.278 N 
ATOM      3  H   UNL     1      28.691  16.886   0.796  0.00  0.00    +0.152 HD
ATOM      4  O   UNL     1      27.483  18.453  -0.186  0.00  0.00    -0.226 OA
ENDROOT
BRANCH   2   5
ATOM      5  C   UNL     1      29.036  15.105  -0.184  0.00  0.00    +0.152 C 
BRANCH   5   6
ATOM      6  C   UNL     1      30.572  14.976  -0.138  0.00  0.00    +0.193 C 
ATOM      7  O   UNL     1      31.104  16.317  -0.218  0.00  0.00    -0.219 OA
BRANCH   6   8
ATOM      8  C   UNL     1      31.202  14.388   1.144  0.00  0.00    +0.212 C 
ATOM      9  O   UNL     1      31.403  15.419   2.124  0.00  0.00    -0.218 OA
BRANCH   8  10
ATOM     10  C   UNL     1      30.340  13.238   1.792  0.00  0.00    +0.171 C 
ATOM     11  O   UNL     1      30.138  13.426   3.188  0.00  0.00    -0.343 OA
ATOM     12  C   UNL     1      29.627  12.452   4.049  0.00  0.00    +0.220 C 
ATOM     13  C   UNL     1      30.370  11.113   3.901  0.00  0.00    +0.076 C 
ATOM     14  C   UNL     1      30.350  10.735   2.410  0.00  0.00    +0.177 C 
ATOM     15  O   UNL     1      30.991   9.482   2.222  0.00  0.00    -0.221 OA
ATOM     16  C   UNL     1      31.032  11.854   1.563  0.00  0.00    +0.155 C 
BRANCH  16  17
ATOM     17  N   UNL     1      31.020  11.496   0.147  0.00  0.00    -0.202 NA
ATOM     18  C   UNL     1      32.052  11.383  -0.728  0.00  0.00    +0.242 C 
ATOM     19  C   UNL     1      31.796  10.713  -2.053  0.00  0.00    +0.096 C 
ATOM     20  O   UNL     1      33.158  11.824  -0.423  0.00  0.00    -0.273 OA
ENDBRANCH  16  17
BRANCH  12  21
ATOM     21  C   UNL     1      28.019  12.258   3.926  0.00  0.00    +0.391 C 
ATOM     22  O   UNL     1      27.766  11.070   4.508  0.00  0.00    -0.243 OA
ATOM     23  O   UNL     1      27.528  13.454   3.578  0.00  0.00    -0.243 OA
ENDBRANCH  12  21
ENDBRANCH   8  10
ENDBRANCH   6   8
ENDBRANCH   5   6
ENDBRANCH   2   5
BRANCH   1  24
ATOM     24  O   UNL     1      27.695  17.300  -2.105  0.00  0.00    -0.450 OA
BRANCH  24  25
ATOM     25  C   UNL     1      26.714  17.483  -3.099  0.00  0.00    +0.240 C 
BRANCH  25  26
ATOM     26  C   UNL     1      26.608  16.409  -4.199  0.00  0.00    +0.100 C 
BRANCH  26  28
ATOM     27  N   UNL     1      24.857  14.840  -4.959  0.00  0.00    -0.134 NA
ATOM     28  C   UNL     1      25.460  15.521  -3.941  0.00  0.00    +0.087 A 
ATOM     29  C   UNL     1      24.812  15.229  -2.765  0.00  0.00    +0.141 A 
ATOM     30  N   UNL     1      23.781  14.383  -3.125  0.00  0.00    -0.201 N 
ATOM     31  N   UNL     1      23.845  14.149  -4.453  0.00  0.00    -0.059 NA
BRANCH  30  32
ATOM     32  C   UNL     1      22.761  13.876  -2.266  0.00  0.00    +0.173 A 
ATOM     33  C   UNL     1      21.485  14.442  -2.206  0.00  0.00    +0.096 A 
ATOM     34  C   UNL     1      20.590  13.925  -1.254  0.00  0.00    +0.024 A 
ATOM     35  C   UNL     1      20.965  12.872  -0.427  0.00  0.00    +0.021 A 
ATOM     36  C   UNL     1      22.232  12.347  -0.579  0.00  0.00    +0.113 A 
ATOM     37  N   UNL     1      23.130  12.823  -1.468  0.00  0.00    -0.235 NA
BRANCH  33  38
ATOM     38  C   UNL     1      21.000  15.495  -3.047  0.00  0.00    +0.103 C 
ATOM     39  N   UNL     1      20.707  16.379  -3.741  0.00  0.00    -0.191 NA
ENDBRANCH  33  38
ENDBRANCH  30  32
ENDBRANCH  26  28
ENDBRANCH  25  26
ENDBRANCH  24  25
ENDBRANCH   1  24
TORSDOF 12
