REMARK VINA RESULT:    -7.227      4.648      8.609
REMARK INTER + INTRA:         -14.906
REMARK INTER:                 -11.633
REMARK INTRA:                  -3.274
REMARK UNBOUND:                -1.975
REMARK  Name = lig_assembled_77.pdb
REMARK  14 active torsions:
REMARK  status: ('A' for Active; 'I' for Inactive)
REMARK    1  A    between atoms: _2  and  _9
REMARK    2  A    between atoms: _3  and  _16
REMARK    3  A    between atoms: _6  and  _7
REMARK    4  A    between atoms: _6  and  _22
REMARK    5  A    between atoms: _12  and  _50
REMARK    6  A    between atoms: _13  and  _50
REMARK    7  A    between atoms: _22  and  _24
REMARK    8  A    between atoms: _23  and  _28
REMARK    9  A    between atoms: _24  and  _27
REMARK   10  A    between atoms: _32  and  _42
REMARK   11  A    between atoms: _34  and  _35
REMARK   12  A    between atoms: _36  and  _38
REMARK   13  A    between atoms: _38  and  _40
REMARK   14  A    between atoms: _40  and  _42
REMARK                            x       y       z     vdW  Elec       q    Type
REMARK                         _______ _______ _______ _____ _____    ______ ____
ROOT
ATOM      1  C   UNL     1      28.693  14.431  -0.848  0.00  0.00    +0.240 C 
ENDROOT
BRANCH   1   2
ATOM      2  C   UNL     1      27.329  13.776  -0.556  0.00  0.00    +0.100 C 
BRANCH   2   4
ATOM      3  N   UNL     1      26.429  12.057   0.976  0.00  0.00    -0.134 NA
ATOM      4  C   UNL     1      27.398  12.969   0.677  0.00  0.00    +0.086 A 
ATOM      5  C   UNL     1      28.347  12.961   1.674  0.00  0.00    +0.139 A 
ATOM      6  N   UNL     1      27.915  12.007   2.568  0.00  0.00    -0.220 N 
ATOM      7  N   UNL     1      26.744  11.483   2.130  0.00  0.00    -0.061 NA
BRANCH   6   8
ATOM      8  C   UNL     1      28.554  11.534   3.745  0.00  0.00    +0.067 A 
ATOM      9  C   UNL     1      29.749  12.113   4.198  0.00  0.00    +0.030 A 
ATOM     10  C   UNL     1      30.428  11.558   5.287  0.00  0.00    +0.029 A 
ATOM     11  C   UNL     1      29.910  10.427   5.922  0.00  0.00    +0.094 A 
ATOM     12  C   UNL     1      28.676   9.898   5.537  0.00  0.00    +0.029 A 
ATOM     13  C   UNL     1      28.004  10.443   4.440  0.00  0.00    +0.030 A 
BRANCH  11  14
ATOM     14  S   UNL     1      30.813   9.678   7.264  0.00  0.00    +0.025 S 
ATOM     15  O   UNL     1      29.843   8.907   8.022  0.00  0.00    -0.164 OA
ATOM     16  O   UNL     1      31.984   9.040   6.695  0.00  0.00    -0.164 OA
BRANCH  14  17
ATOM     17  C   UNL     1      31.414  10.963   8.340  0.00  0.00    +0.094 A 
ATOM     18  C   UNL     1      32.783  11.160   8.530  0.00  0.00    +0.029 A 
ATOM     19  C   UNL     1      33.219  12.138   9.431  0.00  0.00    +0.024 A 
ATOM     20  C   UNL     1      32.306  12.954  10.111  0.00  0.00    +0.025 A 
ATOM     21  C   UNL     1      30.940  12.721   9.932  0.00  0.00    +0.024 A 
ATOM     22  C   UNL     1      30.490  11.747   9.036  0.00  0.00    +0.029 A 
BRANCH  20  23
ATOM     23  N   UNL     1      32.745  13.804  11.130  0.00  0.00    -0.358 N 
ATOM     24  H   UNL     1      33.386  14.531  10.830  0.00  0.00    +0.142 HD
ATOM     25  H   UNL     1      32.006  14.159  11.727  0.00  0.00    +0.142 HD
ENDBRANCH  20  23
ENDBRANCH  14  17
ENDBRANCH  11  14
ENDBRANCH   6   8
ENDBRANCH   2   4
ENDBRANCH   1   2
BRANCH   1  26
ATOM     26  O   UNL     1      28.767  15.836  -0.781  0.00  0.00    -0.450 OA
BRANCH  26  27
ATOM     27  C   UNL     1      29.444  16.754  -0.173  0.00  0.00    +0.400 C 
ATOM     28  N   UNL     1      30.618  16.339   0.411  0.00  0.00    -0.278 N 
ATOM     29  H   UNL     1      31.101  17.256   0.673  0.00  0.00    +0.152 HD
ATOM     30  O   UNL     1      29.150  17.944  -0.102  0.00  0.00    -0.226 OA
BRANCH  28  31
ATOM     31  C   UNL     1      31.472  15.235   0.839  0.00  0.00    +0.152 C 
BRANCH  31  32
ATOM     32  C   UNL     1      32.194  14.460  -0.283  0.00  0.00    +0.193 C 
ATOM     33  O   UNL     1      32.787  15.448  -1.155  0.00  0.00    -0.219 OA
BRANCH  32  34
ATOM     34  C   UNL     1      33.372  13.547   0.122  0.00  0.00    +0.212 C 
ATOM     35  O   UNL     1      34.625  14.205  -0.123  0.00  0.00    -0.218 OA
BRANCH  34  36
ATOM     36  C   UNL     1      33.324  13.099   1.632  0.00  0.00    +0.171 C 
ATOM     37  O   UNL     1      34.534  13.386   2.327  0.00  0.00    -0.343 OA
ATOM     38  C   UNL     1      34.854  12.886   3.591  0.00  0.00    +0.220 C 
ATOM     39  C   UNL     1      34.670  11.360   3.664  0.00  0.00    +0.076 C 
ATOM     40  C   UNL     1      33.243  11.043   3.186  0.00  0.00    +0.177 C 
ATOM     41  O   UNL     1      33.006   9.645   3.271  0.00  0.00    -0.221 OA
ATOM     42  C   UNL     1      33.037  11.565   1.730  0.00  0.00    +0.155 C 
BRANCH  42  43
ATOM     43  N   UNL     1      31.685  11.260   1.268  0.00  0.00    -0.202 NA
ATOM     44  C   UNL     1      31.277  10.499   0.221  0.00  0.00    +0.242 C 
ATOM     45  C   UNL     1      29.824  10.108   0.144  0.00  0.00    +0.096 C 
ATOM     46  O   UNL     1      32.092  10.149  -0.630  0.00  0.00    -0.273 OA
ENDBRANCH  42  43
BRANCH  38  47
ATOM     47  C   UNL     1      34.077  13.641   4.802  0.00  0.00    +0.391 C 
ATOM     48  O   UNL     1      34.006  12.728   5.791  0.00  0.00    -0.243 OA
ATOM     49  O   UNL     1      34.072  14.941   4.484  0.00  0.00    -0.243 OA
ENDBRANCH  38  47
ENDBRANCH  34  36
ENDBRANCH  32  34
ENDBRANCH  31  32
ENDBRANCH  28  31
ENDBRANCH  26  27
ENDBRANCH   1  26
TORSDOF 14
