REMARK VINA RESULT:    -6.996      3.014      9.789
REMARK INTER + INTRA:         -13.823
REMARK INTER:                 -11.904
REMARK INTRA:                  -1.920
REMARK UNBOUND:                -1.919
REMARK  Name = lig_assembled_41.pdb
REMARK  13 active torsions:
REMARK  status: ('A' for Active; 'I' for Inactive)
REMARK    1  A    between atoms: _2  and  _8
REMARK    2  A    between atoms: _5  and  _6
REMARK    3  A    between atoms: _5  and  _16
REMARK    4  A    between atoms: _9  and  _10
REMARK    5  A    between atoms: _10  and  _11
REMARK    6  A    between atoms: _16  and  _18
REMARK    7  A    between atoms: _17  and  _22
REMARK    8  A    between atoms: _18  and  _21
REMARK    9  A    between atoms: _26  and  _36
REMARK   10  A    between atoms: _28  and  _29
REMARK   11  A    between atoms: _30  and  _32
REMARK   12  A    between atoms: _32  and  _34
REMARK   13  A    between atoms: _34  and  _36
REMARK                            x       y       z     vdW  Elec       q    Type
REMARK                         _______ _______ _______ _____ _____    ______ ____
ROOT
ATOM      1  C   UNL     1      27.834  17.581  -1.130  0.00  0.00    +0.400 C 
ATOM      2  N   UNL     1      27.190  17.527  -2.344  0.00  0.00    -0.278 N 
ATOM      3  H   UNL     1      26.383  18.218  -2.227  0.00  0.00    +0.152 HD
ATOM      4  O   UNL     1      27.498  18.454  -0.335  0.00  0.00    -0.226 OA
ENDROOT
BRANCH   2   5
ATOM      5  C   UNL     1      27.124  16.973  -3.694  0.00  0.00    +0.152 C 
BRANCH   5   6
ATOM      6  C   UNL     1      25.924  16.050  -3.992  0.00  0.00    +0.193 C 
ATOM      7  O   UNL     1      25.915  15.829  -5.420  0.00  0.00    -0.219 OA
BRANCH   6   8
ATOM      8  C   UNL     1      25.945  14.631  -3.383  0.00  0.00    +0.212 C 
ATOM      9  O   UNL     1      26.663  14.630  -2.138  0.00  0.00    -0.218 OA
BRANCH   8  10
ATOM     10  C   UNL     1      24.507  14.036  -3.135  0.00  0.00    +0.171 C 
ATOM     11  O   UNL     1      23.744  14.812  -2.217  0.00  0.00    -0.343 OA
ATOM     12  C   UNL     1      22.545  14.392  -1.636  0.00  0.00    +0.220 C 
ATOM     13  C   UNL     1      22.673  12.993  -1.011  0.00  0.00    +0.076 C 
ATOM     14  C   UNL     1      23.233  12.053  -2.092  0.00  0.00    +0.177 C 
ATOM     15  O   UNL     1      23.335  10.733  -1.577  0.00  0.00    -0.221 OA
ATOM     16  C   UNL     1      24.616  12.574  -2.593  0.00  0.00    +0.155 C 
BRANCH  16  17
ATOM     17  N   UNL     1      25.154  11.680  -3.615  0.00  0.00    -0.202 NA
ATOM     18  C   UNL     1      26.307  10.963  -3.621  0.00  0.00    +0.242 C 
ATOM     19  C   UNL     1      26.479   9.894  -4.669  0.00  0.00    +0.096 C 
ATOM     20  O   UNL     1      27.173  11.198  -2.780  0.00  0.00    -0.273 OA
ENDBRANCH  16  17
BRANCH  12  21
ATOM     21  C   UNL     1      21.272  14.483  -2.642  0.00  0.00    +0.391 C 
ATOM     22  O   UNL     1      20.459  13.476  -2.265  0.00  0.00    -0.243 OA
ATOM     23  O   UNL     1      21.363  15.673  -3.248  0.00  0.00    -0.243 OA
ENDBRANCH  12  21
ENDBRANCH   8  10
ENDBRANCH   6   8
ENDBRANCH   5   6
ENDBRANCH   2   5
BRANCH   1  24
ATOM     24  O   UNL     1      28.728  16.669  -0.930  0.00  0.00    -0.450 OA
BRANCH  24  25
ATOM     25  C   UNL     1      29.382  16.032   0.143  0.00  0.00    +0.240 C 
BRANCH  25  26
ATOM     26  C   UNL     1      29.811  14.566  -0.056  0.00  0.00    +0.100 C 
BRANCH  26  28
ATOM     27  N   UNL     1      31.939  15.614  -0.733  0.00  0.00    -0.134 NA
ATOM     28  C   UNL     1      31.158  14.500  -0.650  0.00  0.00    +0.086 A 
ATOM     29  C   UNL     1      31.849  13.426  -1.167  0.00  0.00    +0.139 A 
ATOM     30  N   UNL     1      33.020  13.956  -1.659  0.00  0.00    -0.219 N 
ATOM     31  N   UNL     1      33.087  15.268  -1.297  0.00  0.00    -0.061 NA
BRANCH  30  32
ATOM     32  C   UNL     1      34.114  13.336  -2.329  0.00  0.00    +0.077 A 
ATOM     33  C   UNL     1      34.063  12.818  -3.641  0.00  0.00    +0.043 A 
ATOM     34  C   UNL     1      35.208  12.183  -4.165  0.00  0.00    +0.013 A 
ATOM     35  C   UNL     1      36.376  12.054  -3.409  0.00  0.00    +0.001 A 
ATOM     36  C   UNL     1      36.435  12.585  -2.129  0.00  0.00    +0.002 A 
ATOM     37  C   UNL     1      35.318  13.229  -1.599  0.00  0.00    +0.028 A 
BRANCH  33  38
ATOM     38  C   UNL     1      32.944  13.080  -4.598  0.00  0.00    +0.162 C 
ATOM     39  O   UNL     1      33.008  14.051  -5.348  0.00  0.00    -0.292 OA
ATOM     40  C   UNL     1      31.750  12.158  -4.642  0.00  0.00    +0.091 C 
ENDBRANCH  33  38
ENDBRANCH  30  32
ENDBRANCH  26  28
ENDBRANCH  25  26
ENDBRANCH  24  25
ENDBRANCH   1  24
TORSDOF 12
