REMARK VINA RESULT:    -6.956      1.249      3.615
REMARK INTER + INTRA:         -12.975
REMARK INTER:                 -11.728
REMARK INTRA:                  -1.246
REMARK UNBOUND:                -1.545
REMARK  Name = lig_assembled_48.pdb
REMARK  11 active torsions:
REMARK  status: ('A' for Active; 'I' for Inactive)
REMARK    1  A    between atoms: _2  and  _8
REMARK    2  A    between atoms: _5  and  _6
REMARK    3  A    between atoms: _5  and  _13
REMARK    4  A    between atoms: _13  and  _15
REMARK    5  A    between atoms: _14  and  _19
REMARK    6  A    between atoms: _15  and  _18
REMARK    7  A    between atoms: _23  and  _33
REMARK    8  A    between atoms: _25  and  _26
REMARK    9  A    between atoms: _27  and  _29
REMARK   10  A    between atoms: _29  and  _31
REMARK   11  A    between atoms: _31  and  _33
REMARK                            x       y       z     vdW  Elec       q    Type
REMARK                         _______ _______ _______ _____ _____    ______ ____
ROOT
ATOM      1  C   UNL     1      29.118  15.198   0.271  0.00  0.00    +0.152 C 
ENDROOT
BRANCH   1   3
ATOM      2  C   UNL     1      27.860  17.373  -0.793  0.00  0.00    +0.400 C 
ATOM      3  N   UNL     1      28.551  16.524   0.039  0.00  0.00    -0.278 N 
ATOM      4  H   UNL     1      28.736  17.122   0.905  0.00  0.00    +0.152 HD
ATOM      5  O   UNL     1      27.480  18.448  -0.337  0.00  0.00    -0.226 OA
BRANCH   2   6
ATOM      6  O   UNL     1      27.703  16.961  -2.008  0.00  0.00    -0.450 OA
BRANCH   6   7
ATOM      7  C   UNL     1      26.681  16.479  -2.849  0.00  0.00    +0.240 C 
BRANCH   7   8
ATOM      8  C   UNL     1      26.504  14.952  -2.951  0.00  0.00    +0.100 C 
BRANCH   8  10
ATOM      9  N   UNL     1      24.137  15.551  -2.569  0.00  0.00    -0.134 NA
ATOM     10  C   UNL     1      25.099  14.588  -2.694  0.00  0.00    +0.086 A 
ATOM     11  C   UNL     1      24.513  13.347  -2.566  0.00  0.00    +0.134 A 
ATOM     12  N   UNL     1      23.181  13.615  -2.460  0.00  0.00    -0.248 N 
ATOM     13  N   UNL     1      22.972  14.947  -2.386  0.00  0.00    -0.065 NA
BRANCH  12  14
ATOM     14  C   UNL     1      22.027  12.723  -2.473  0.00  0.00    +0.109 C 
ATOM     15  C   UNL     1      22.306  11.445  -1.661  0.00  0.00    +0.027 C 
ATOM     16  C   UNL     1      22.326  11.729  -0.161  0.00  0.00    +0.002 C 
ATOM     17  C   UNL     1      20.992  12.302   0.302  0.00  0.00    +0.000 C 
ATOM     18  C   UNL     1      20.579  13.536  -0.495  0.00  0.00    +0.002 C 
ATOM     19  C   UNL     1      20.693  13.345  -2.012  0.00  0.00    +0.027 C 
ENDBRANCH  12  14
ENDBRANCH   8  10
ENDBRANCH   7   8
ENDBRANCH   6   7
ENDBRANCH   2   6
ENDBRANCH   1   3
BRANCH   1  20
ATOM     20  C   UNL     1      30.446  14.891  -0.451  0.00  0.00    +0.193 C 
ATOM     21  O   UNL     1      31.186  16.131  -0.503  0.00  0.00    -0.219 OA
BRANCH  20  22
ATOM     22  C   UNL     1      31.413  13.893   0.223  0.00  0.00    +0.212 C 
ATOM     23  O   UNL     1      30.743  12.652   0.497  0.00  0.00    -0.218 OA
BRANCH  22  24
ATOM     24  C   UNL     1      32.699  13.592  -0.637  0.00  0.00    +0.171 C 
ATOM     25  O   UNL     1      32.402  12.892  -1.840  0.00  0.00    -0.343 OA
ATOM     26  C   UNL     1      33.360  12.290  -2.660  0.00  0.00    +0.220 C 
ATOM     27  C   UNL     1      34.307  11.381  -1.858  0.00  0.00    +0.076 C 
ATOM     28  C   UNL     1      34.878  12.214  -0.698  0.00  0.00    +0.177 C 
ATOM     29  O   UNL     1      35.793  11.430   0.054  0.00  0.00    -0.221 OA
ATOM     30  C   UNL     1      33.719  12.751   0.199  0.00  0.00    +0.155 C 
BRANCH  30  31
ATOM     31  N   UNL     1      34.258  13.538   1.306  0.00  0.00    -0.202 NA
ATOM     32  C   UNL     1      34.097  13.377   2.644  0.00  0.00    +0.242 C 
ATOM     33  C   UNL     1      35.000  14.148   3.571  0.00  0.00    +0.096 C 
ATOM     34  O   UNL     1      33.230  12.613   3.064  0.00  0.00    -0.273 OA
ENDBRANCH  30  31
BRANCH  26  35
ATOM     35  C   UNL     1      34.184  13.349  -3.576  0.00  0.00    +0.391 C 
ATOM     36  O   UNL     1      35.288  12.684  -3.967  0.00  0.00    -0.243 OA
ATOM     37  O   UNL     1      33.333  14.348  -3.842  0.00  0.00    -0.243 OA
ENDBRANCH  26  35
ENDBRANCH  22  24
ENDBRANCH  20  22
ENDBRANCH   1  20
TORSDOF 11
