REMARK VINA RESULT:    -6.089      3.326      4.993
REMARK INTER + INTRA:         -13.003
REMARK INTER:                 -10.691
REMARK INTRA:                  -2.312
REMARK UNBOUND:                -1.931
REMARK  Name = lig_assembled_55.pdb
REMARK  15 active torsions:
REMARK  status: ('A' for Active; 'I' for Inactive)
REMARK    1  A    between atoms: _2  and  _9
REMARK    2  A    between atoms: _3  and  _10
REMARK    3  A    between atoms: _3  and  _41
REMARK    4  A    between atoms: _5  and  _41
REMARK    5  A    between atoms: _6  and  _7
REMARK    6  A    between atoms: _6  and  _13
REMARK    7  A    between atoms: _9  and  _10
REMARK    8  A    between atoms: _13  and  _15
REMARK    9  A    between atoms: _14  and  _19
REMARK   10  A    between atoms: _15  and  _18
REMARK   11  A    between atoms: _23  and  _33
REMARK   12  A    between atoms: _25  and  _26
REMARK   13  A    between atoms: _27  and  _29
REMARK   14  A    between atoms: _29  and  _31
REMARK   15  A    between atoms: _31  and  _33
REMARK                            x       y       z     vdW  Elec       q    Type
REMARK                         _______ _______ _______ _____ _____    ______ ____
ROOT
ATOM      1  C   UNL     1      30.390  16.302  -0.240  0.00  0.00    +0.400 C 
ATOM      2  N   UNL     1      29.753  15.219   0.318  0.00  0.00    -0.278 N 
ATOM      3  H   UNL     1      30.482  14.440   0.250  0.00  0.00    +0.152 HD
ATOM      4  O   UNL     1      31.589  16.203  -0.490  0.00  0.00    -0.226 OA
ENDROOT
BRANCH   2   5
ATOM      5  C   UNL     1      28.561  14.671   0.961  0.00  0.00    +0.152 C 
BRANCH   5   6
ATOM      6  C   UNL     1      28.324  13.158   0.778  0.00  0.00    +0.193 C 
ATOM      7  O   UNL     1      29.612  12.568   0.492  0.00  0.00    -0.219 OA
BRANCH   6   8
ATOM      8  C   UNL     1      27.798  12.365   1.994  0.00  0.00    +0.212 C 
ATOM      9  O   UNL     1      27.412  13.261   3.049  0.00  0.00    -0.218 OA
BRANCH   8  10
ATOM     10  C   UNL     1      26.573  11.434   1.650  0.00  0.00    +0.171 C 
ATOM     11  O   UNL     1      25.454  12.162   1.154  0.00  0.00    -0.343 OA
ATOM     12  C   UNL     1      24.172  11.629   1.003  0.00  0.00    +0.220 C 
ATOM     13  C   UNL     1      23.692  10.925   2.284  0.00  0.00    +0.076 C 
ATOM     14  C   UNL     1      24.772   9.907   2.685  0.00  0.00    +0.177 C 
ATOM     15  O   UNL     1      24.360   9.198   3.844  0.00  0.00    -0.221 OA
ATOM     16  C   UNL     1      26.134  10.633   2.919  0.00  0.00    +0.155 C 
BRANCH  16  17
ATOM     17  N   UNL     1      27.162   9.670   3.306  0.00  0.00    -0.202 NA
ATOM     18  C   UNL     1      27.983   9.665   4.387  0.00  0.00    +0.242 C 
ATOM     19  C   UNL     1      28.744   8.403   4.701  0.00  0.00    +0.096 C 
ATOM     20  O   UNL     1      28.084  10.677   5.078  0.00  0.00    -0.273 OA
ENDBRANCH  16  17
BRANCH  12  21
ATOM     21  C   UNL     1      24.019  10.670  -0.299  0.00  0.00    +0.391 C 
ATOM     22  O   UNL     1      22.797  10.115  -0.180  0.00  0.00    -0.243 OA
ATOM     23  O   UNL     1      25.008  11.016  -1.132  0.00  0.00    -0.243 OA
ENDBRANCH  12  21
ENDBRANCH   8  10
ENDBRANCH   6   8
ENDBRANCH   5   6
ENDBRANCH   2   5
BRANCH   1  24
ATOM     24  O   UNL     1      29.642  17.328  -0.481  0.00  0.00    -0.450 OA
BRANCH  24  25
ATOM     25  C   UNL     1      28.297  17.724  -0.349  0.00  0.00    +0.240 C 
BRANCH  25  26
ATOM     26  C   UNL     1      27.589  18.264  -1.606  0.00  0.00    +0.100 C 
BRANCH  26  28
ATOM     27  N   UNL     1      27.290  15.852  -2.058  0.00  0.00    -0.134 NA
ATOM     28  C   UNL     1      27.148  17.152  -2.467  0.00  0.00    +0.086 A 
ATOM     29  C   UNL     1      26.567  17.170  -3.716  0.00  0.00    +0.133 A 
ATOM     30  N   UNL     1      26.401  15.852  -4.020  0.00  0.00    -0.250 N 
ATOM     31  N   UNL     1      26.834  15.063  -3.021  0.00  0.00    -0.065 NA
BRANCH  30  32
ATOM     32  C   UNL     1      25.820  15.276  -5.214  0.00  0.00    +0.162 C 
BRANCH  32  33
ATOM     33  C   UNL     1      24.422  14.684  -4.998  0.00  0.00    +0.129 C 
BRANCH  33  34
ATOM     34  N   UNL     1      24.366  13.659  -3.916  0.00  0.00    -0.193 NA
ATOM     35  H   UNL     1      25.302  13.494  -3.528  0.00  0.00    +0.148 HD
BRANCH  34  36
ATOM     36  S   UNL     1      23.194  13.897  -2.728  0.00  0.00    +0.027 S 
ATOM     37  O   UNL     1      22.240  12.818  -2.861  0.00  0.00    -0.158 OA
ATOM     38  O   UNL     1      23.880  14.145  -1.480  0.00  0.00    -0.158 OA
ATOM     39  C   UNL     1      22.421  15.398  -3.286  0.00  0.00    +0.214 C 
ENDBRANCH  34  36
ENDBRANCH  33  34
ENDBRANCH  32  33
ENDBRANCH  30  32
ENDBRANCH  26  28
ENDBRANCH  25  26
ENDBRANCH  24  25
ENDBRANCH   1  24
TORSDOF 14
