REMARK VINA RESULT:    -7.256      1.622      2.960
REMARK INTER + INTRA:         -14.463
REMARK INTER:                 -12.280
REMARK INTRA:                  -2.182
REMARK UNBOUND:                -1.904
REMARK  Name = lig_assembled_73.pdb
REMARK  13 active torsions:
REMARK  status: ('A' for Active; 'I' for Inactive)
REMARK    1  A    between atoms: _2  and  _9
REMARK    2  A    between atoms: _3  and  _13
REMARK    3  A    between atoms: _6  and  _7
REMARK    4  A    between atoms: _6  and  _17
REMARK    5  A    between atoms: _12  and  _15
REMARK    6  A    between atoms: _17  and  _19
REMARK    7  A    between atoms: _18  and  _23
REMARK    8  A    between atoms: _19  and  _22
REMARK    9  A    between atoms: _27  and  _37
REMARK   10  A    between atoms: _29  and  _30
REMARK   11  A    between atoms: _31  and  _33
REMARK   12  A    between atoms: _33  and  _35
REMARK   13  A    between atoms: _35  and  _37
REMARK                            x       y       z     vdW  Elec       q    Type
REMARK                         _______ _______ _______ _____ _____    ______ ____
ROOT
ATOM      1  C   UNL     1      27.952  17.326  -0.926  0.00  0.00    +0.400 C 
ATOM      2  N   UNL     1      28.637  16.451  -0.115  0.00  0.00    -0.278 N 
ATOM      3  H   UNL     1      28.913  17.054   0.723  0.00  0.00    +0.152 HD
ATOM      4  O   UNL     1      27.670  18.433  -0.475  0.00  0.00    -0.226 OA
ENDROOT
BRANCH   2   5
ATOM      5  C   UNL     1      29.131  15.096   0.115  0.00  0.00    +0.152 C 
BRANCH   5   6
ATOM      6  C   UNL     1      30.661  14.942   0.235  0.00  0.00    +0.193 C 
ATOM      7  O   UNL     1      31.055  15.633   1.441  0.00  0.00    -0.219 OA
BRANCH   6   8
ATOM      8  C   UNL     1      31.225  13.514   0.408  0.00  0.00    +0.212 C 
ATOM      9  O   UNL     1      32.149  13.208  -0.649  0.00  0.00    -0.218 OA
BRANCH   8  10
ATOM     10  C   UNL     1      31.948  13.292   1.790  0.00  0.00    +0.171 C 
ATOM     11  O   UNL     1      33.281  12.813   1.641  0.00  0.00    -0.343 OA
ATOM     12  C   UNL     1      34.058  12.305   2.684  0.00  0.00    +0.220 C 
ATOM     13  C   UNL     1      33.304  11.230   3.486  0.00  0.00    +0.076 C 
ATOM     14  C   UNL     1      31.957  11.834   3.917  0.00  0.00    +0.177 C 
ATOM     15  O   UNL     1      31.234  10.892   4.697  0.00  0.00    -0.221 OA
ATOM     16  C   UNL     1      31.140  12.275   2.662  0.00  0.00    +0.155 C 
BRANCH  16  17
ATOM     17  N   UNL     1      29.857  12.843   3.066  0.00  0.00    -0.202 NA
ATOM     18  C   UNL     1      28.596  12.432   2.777  0.00  0.00    +0.242 C 
ATOM     19  C   UNL     1      27.453  13.021   3.562  0.00  0.00    +0.096 C 
ATOM     20  O   UNL     1      28.417  11.596   1.893  0.00  0.00    -0.273 OA
ENDBRANCH  16  17
BRANCH  12  21
ATOM     21  C   UNL     1      34.668  13.455   3.656  0.00  0.00    +0.391 C 
ATOM     22  O   UNL     1      34.945  12.823   4.812  0.00  0.00    -0.243 OA
ATOM     23  O   UNL     1      34.944  14.499   2.864  0.00  0.00    -0.243 OA
ENDBRANCH  12  21
ENDBRANCH   8  10
ENDBRANCH   6   8
ENDBRANCH   5   6
ENDBRANCH   2   5
BRANCH   1  24
ATOM     24  O   UNL     1      27.695  16.899  -2.118  0.00  0.00    -0.450 OA
BRANCH  24  25
ATOM     25  C   UNL     1      26.783  17.140  -3.165  0.00  0.00    +0.240 C 
BRANCH  25  26
ATOM     26  C   UNL     1      26.218  15.916  -3.911  0.00  0.00    +0.100 C 
BRANCH  26  28
ATOM     27  N   UNL     1      23.874  15.781  -3.130  0.00  0.00    -0.134 NA
ATOM     28  C   UNL     1      25.145  15.285  -3.121  0.00  0.00    +0.086 A 
ATOM     29  C   UNL     1      25.189  14.182  -2.299  0.00  0.00    +0.139 A 
ATOM     30  N   UNL     1      23.905  14.037  -1.828  0.00  0.00    -0.220 N 
ATOM     31  N   UNL     1      23.127  15.019  -2.343  0.00  0.00    -0.061 NA
BRANCH  30  32
ATOM     32  C   UNL     1      23.388  13.057  -0.942  0.00  0.00    +0.074 A 
ATOM     33  C   UNL     1      22.009  12.783  -0.934  0.00  0.00    +0.032 A 
ATOM     34  C   UNL     1      21.473  11.826  -0.061  0.00  0.00    +0.054 A 
ATOM     35  C   UNL     1      22.311  11.137   0.814  0.00  0.00    +0.195 A 
ATOM     36  C   UNL     1      23.677  11.413   0.802  0.00  0.00    +0.316 A 
ATOM     37  C   UNL     1      24.234  12.360  -0.069  0.00  0.00    +0.116 A 
BRANCH  36  38
ATOM     38  N   UNL     1      24.572  10.720   1.708  0.00  0.00    +0.083 N 
ATOM     39  O   UNL     1      24.535  11.038   2.904  0.00  0.00    +0.042 OA
ATOM     40  O   UNL     1      25.374   9.925   1.196  0.00  0.00    -0.576 OA
ENDBRANCH  36  38
BRANCH  35  41
ATOM     41  O   UNL     1      21.793  10.192   1.649  0.00  0.00    -0.501 OA
ATOM     42  H   UNL     1      21.047   9.740   1.218  0.00  0.00    +0.292 HD
ENDBRANCH  35  41
ENDBRANCH  30  32
ENDBRANCH  26  28
ENDBRANCH  25  26
ENDBRANCH  24  25
ENDBRANCH   1  24
TORSDOF 13
