REMARK VINA RESULT:    -6.073      2.320      4.184
REMARK INTER + INTRA:         -14.887
REMARK INTER:                 -12.592
REMARK INTRA:                  -2.295
REMARK UNBOUND:                -2.957
REMARK  Name = lig_assembled_74.pdb
REMARK  19 active torsions:
REMARK  status: ('A' for Active; 'I' for Inactive)
REMARK    1  A    between atoms: _2  and  _8
REMARK    2  A    between atoms: _4  and  _13
REMARK    3  A    between atoms: _5  and  _6
REMARK    4  A    between atoms: _5  and  _17
REMARK    5  A    between atoms: _8  and  _9
REMARK    6  A    between atoms: _9  and  _10
REMARK    7  A    between atoms: _9  and  _12
REMARK    8  A    between atoms: _10  and  _11
REMARK    9  A    between atoms: _11  and  _15
REMARK   10  A    between atoms: _12  and  _13
REMARK   11  A    between atoms: _13  and  _14
REMARK   12  A    between atoms: _17  and  _19
REMARK   13  A    between atoms: _18  and  _23
REMARK   14  A    between atoms: _19  and  _22
REMARK   15  A    between atoms: _27  and  _37
REMARK   16  A    between atoms: _29  and  _30
REMARK   17  A    between atoms: _31  and  _33
REMARK   18  A    between atoms: _33  and  _35
REMARK   19  A    between atoms: _35  and  _37
REMARK                            x       y       z     vdW  Elec       q    Type
REMARK                         _______ _______ _______ _____ _____    ______ ____
ROOT
ATOM      1  C   UNL     1      28.271  17.570  -0.619  0.00  0.00    +0.400 C 
ATOM      2  N   UNL     1      29.471  17.416   0.033  0.00  0.00    -0.278 N 
ATOM      3  H   UNL     1      29.483  18.230   0.726  0.00  0.00    +0.152 HD
ATOM      4  O   UNL     1      27.476  18.399  -0.182  0.00  0.00    -0.226 OA
ENDROOT
BRANCH   1   5
ATOM      5  O   UNL     1      28.106  16.834  -1.669  0.00  0.00    -0.450 OA
BRANCH   5   6
ATOM      6  C   UNL     1      27.408  15.676  -2.063  0.00  0.00    +0.240 C 
BRANCH   6   7
ATOM      7  C   UNL     1      26.516  15.775  -3.316  0.00  0.00    +0.100 C 
BRANCH   7   9
ATOM      8  N   UNL     1      24.725  14.133  -3.828  0.00  0.00    -0.134 NA
ATOM      9  C   UNL     1      25.194  15.169  -3.064  0.00  0.00    +0.086 A 
ATOM     10  C   UNL     1      24.290  15.429  -2.057  0.00  0.00    +0.133 A 
ATOM     11  N   UNL     1      23.394  14.402  -2.158  0.00  0.00    -0.251 N 
ATOM     12  N   UNL     1      23.604  13.686  -3.279  0.00  0.00    -0.065 NA
BRANCH  11  13
ATOM     13  C   UNL     1      22.560  13.868  -1.099  0.00  0.00    +0.149 C 
BRANCH  13  14
ATOM     14  C   UNL     1      21.342  13.039  -1.565  0.00  0.00    +0.021 C 
BRANCH  14  15
ATOM     15  C   UNL     1      20.049  13.871  -1.698  0.00  0.00    +0.125 C 
BRANCH  15  16
ATOM     16  C   UNL     1      19.672  14.234  -3.118  0.00  0.00    +0.305 C 
ATOM     17  O   UNL     1      18.678  14.868  -3.436  0.00  0.00    -0.251 OA
BRANCH  16  18
ATOM     18  O   UNL     1      20.589  13.844  -4.022  0.00  0.00    -0.481 OA
ATOM     19  H   UNL     1      21.516  14.022  -3.783  0.00  0.00    +0.295 HD
ENDBRANCH  16  18
ENDBRANCH  15  16
ENDBRANCH  14  15
BRANCH  14  20
ATOM     20  C   UNL     1      21.179  11.805  -0.631  0.00  0.00    +0.009 C 
BRANCH  20  21
ATOM     21  C   UNL     1      22.218  11.675   0.504  0.00  0.00    -0.017 C 
ATOM     22  C   UNL     1      21.568  11.699   1.889  0.00  0.00    +0.007 C 
ATOM     23  C   UNL     1      23.021  10.378   0.352  0.00  0.00    +0.007 C 
ENDBRANCH  20  21
ENDBRANCH  14  20
ENDBRANCH  13  14
ENDBRANCH  11  13
ENDBRANCH   7   9
ENDBRANCH   6   7
ENDBRANCH   5   6
ENDBRANCH   1   5
BRANCH   2  24
ATOM     24  C   UNL     1      30.701  16.649   0.211  0.00  0.00    +0.152 C 
BRANCH  24  25
ATOM     25  C   UNL     1      30.571  15.117   0.086  0.00  0.00    +0.193 C 
ATOM     26  O   UNL     1      31.456  14.710  -0.981  0.00  0.00    -0.219 OA
BRANCH  25  27
ATOM     27  C   UNL     1      31.007  14.261   1.296  0.00  0.00    +0.212 C 
ATOM     28  O   UNL     1      31.323  15.103   2.418  0.00  0.00    -0.218 OA
BRANCH  27  29
ATOM     29  C   UNL     1      29.919  13.212   1.744  0.00  0.00    +0.171 C 
ATOM     30  O   UNL     1      28.718  13.828   2.198  0.00  0.00    -0.343 OA
ATOM     31  C   UNL     1      27.695  13.157   2.872  0.00  0.00    +0.220 C 
ATOM     32  C   UNL     1      28.234  12.341   4.060  0.00  0.00    +0.076 C 
ATOM     33  C   UNL     1      29.359  11.438   3.528  0.00  0.00    +0.177 C 
ATOM     34  O   UNL     1      29.866  10.630   4.580  0.00  0.00    -0.221 OA
ATOM     35  C   UNL     1      30.485  12.305   2.885  0.00  0.00    +0.155 C 
BRANCH  35  36
ATOM     36  N   UNL     1      31.559  11.451   2.384  0.00  0.00    -0.202 NA
ATOM     37  C   UNL     1      32.864  11.391   2.753  0.00  0.00    +0.242 C 
ATOM     38  C   UNL     1      33.687  10.219   2.286  0.00  0.00    +0.096 C 
ATOM     39  O   UNL     1      33.339  12.283   3.454  0.00  0.00    -0.273 OA
ENDBRANCH  35  36
BRANCH  31  40
ATOM     40  C   UNL     1      26.764  12.251   1.898  0.00  0.00    +0.391 C 
ATOM     41  O   UNL     1      26.070  11.448   2.728  0.00  0.00    -0.243 OA
ATOM     42  O   UNL     1      26.809  12.835   0.694  0.00  0.00    -0.243 OA
ENDBRANCH  31  40
ENDBRANCH  27  29
ENDBRANCH  25  27
ENDBRANCH  24  25
ENDBRANCH   2  24
TORSDOF 17
