REMARK VINA RESULT:    -6.848      2.028      3.911
REMARK INTER + INTRA:         -13.493
REMARK INTER:                 -11.753
REMARK INTRA:                  -1.740
REMARK UNBOUND:                -1.841
REMARK  Name = lig_assembled_39.pdb
REMARK  12 active torsions:
REMARK  status: ('A' for Active; 'I' for Inactive)
REMARK    1  A    between atoms: _2  and  _8
REMARK    2  A    between atoms: _5  and  _6
REMARK    3  A    between atoms: _5  and  _14
REMARK    4  A    between atoms: _8  and  _9
REMARK    5  A    between atoms: _14  and  _16
REMARK    6  A    between atoms: _15  and  _20
REMARK    7  A    between atoms: _16  and  _19
REMARK    8  A    between atoms: _24  and  _34
REMARK    9  A    between atoms: _26  and  _27
REMARK   10  A    between atoms: _28  and  _30
REMARK   11  A    between atoms: _30  and  _32
REMARK   12  A    between atoms: _32  and  _34
REMARK                            x       y       z     vdW  Elec       q    Type
REMARK                         _______ _______ _______ _____ _____    ______ ____
ROOT
ATOM      1  C   UNL     1      27.563  14.004  -1.704  0.00  0.00    +0.400 C 
ATOM      2  N   UNL     1      28.369  14.866  -0.999  0.00  0.00    -0.278 N 
ATOM      3  H   UNL     1      29.147  14.232  -0.631  0.00  0.00    +0.152 HD
ATOM      4  O   UNL     1      27.968  12.861  -1.899  0.00  0.00    -0.226 OA
ENDROOT
BRANCH   2   5
ATOM      5  C   UNL     1      28.640  16.229  -0.551  0.00  0.00    +0.152 C 
BRANCH   5   6
ATOM      6  C   UNL     1      30.105  16.546  -0.188  0.00  0.00    +0.193 C 
ATOM      7  O   UNL     1      30.090  17.785   0.556  0.00  0.00    -0.219 OA
BRANCH   6   8
ATOM      8  C   UNL     1      30.845  15.552   0.735  0.00  0.00    +0.212 C 
ATOM      9  O   UNL     1      29.903  14.730   1.443  0.00  0.00    -0.218 OA
BRANCH   8  10
ATOM     10  C   UNL     1      31.852  14.616  -0.036  0.00  0.00    +0.171 C 
ATOM     11  O   UNL     1      31.274  14.025  -1.195  0.00  0.00    -0.343 OA
ATOM     12  C   UNL     1      31.851  12.979  -1.918  0.00  0.00    +0.220 C 
ATOM     13  C   UNL     1      32.264  11.813  -1.003  0.00  0.00    +0.076 C 
ATOM     14  C   UNL     1      33.147  12.392   0.115  0.00  0.00    +0.177 C 
ATOM     15  O   UNL     1      33.590  11.347   0.969  0.00  0.00    -0.221 OA
ATOM     16  C   UNL     1      32.361  13.480   0.911  0.00  0.00    +0.155 C 
BRANCH  16  17
ATOM     17  N   UNL     1      33.195  14.028   1.978  0.00  0.00    -0.202 NA
ATOM     18  C   UNL     1      33.115  13.847   3.321  0.00  0.00    +0.242 C 
ATOM     19  C   UNL     1      34.276  14.290   4.173  0.00  0.00    +0.096 C 
ATOM     20  O   UNL     1      32.110  13.330   3.806  0.00  0.00    -0.273 OA
ENDBRANCH  16  17
BRANCH  12  21
ATOM     21  C   UNL     1      33.078  13.452  -2.872  0.00  0.00    +0.391 C 
ATOM     22  O   UNL     1      33.301  14.738  -2.539  0.00  0.00    -0.243 OA
ATOM     23  O   UNL     1      33.591  12.332  -3.396  0.00  0.00    -0.243 OA
ENDBRANCH  12  21
ENDBRANCH   8  10
ENDBRANCH   6   8
ENDBRANCH   5   6
ENDBRANCH   2   5
BRANCH   1  24
ATOM     24  O   UNL     1      26.420  14.481  -2.074  0.00  0.00    -0.450 OA
BRANCH  24  25
ATOM     25  C   UNL     1      25.627  14.577  -3.234  0.00  0.00    +0.240 C 
BRANCH  25  26
ATOM     26  C   UNL     1      24.578  15.704  -3.288  0.00  0.00    +0.100 C 
BRANCH  26  28
ATOM     27  N   UNL     1      22.106  15.569  -3.326  0.00  0.00    -0.134 NA
ATOM     28  C   UNL     1      23.295  15.239  -2.729  0.00  0.00    +0.086 A 
ATOM     29  C   UNL     1      23.045  14.447  -1.631  0.00  0.00    +0.134 A 
ATOM     30  N   UNL     1      21.693  14.266  -1.663  0.00  0.00    -0.247 N 
ATOM     31  N   UNL     1      21.127  14.990  -2.646  0.00  0.00    -0.065 NA
BRANCH  30  32
ATOM     32  C   UNL     1      20.890  13.370  -0.842  0.00  0.00    +0.181 C 
BRANCH  32  33
ATOM     33  C   UNL     1      21.205  11.903  -1.071  0.00  0.00    -0.012 A 
ATOM     34  C   UNL     1      21.052  11.317  -2.345  0.00  0.00    +0.006 A 
ATOM     35  C   UNL     1      21.334   9.967  -2.569  0.00  0.00    +0.000 A 
ATOM     36  C   UNL     1      21.753   9.162  -1.517  0.00  0.00    +0.001 A 
ATOM     37  C   UNL     1      21.872   9.703  -0.240  0.00  0.00    +0.015 A 
ATOM     38  C   UNL     1      21.591  11.058  -0.014  0.00  0.00    +0.023 A 
ATOM     39 BR   UNL     1      21.732  11.669   1.782  0.00  0.00    -0.050 Br
ENDBRANCH  32  33
ENDBRANCH  30  32
ENDBRANCH  26  28
ENDBRANCH  25  26
ENDBRANCH  24  25
ENDBRANCH   1  24
TORSDOF 12
