REMARK VINA RESULT:    -6.515      4.090      9.026
REMARK INTER + INTRA:         -14.378
REMARK INTER:                 -12.570
REMARK INTRA:                  -1.808
REMARK UNBOUND:                -2.913
REMARK  Name = lig_assembled_92.pdb
REMARK  13 active torsions:
REMARK  status: ('A' for Active; 'I' for Inactive)
REMARK    1  A    between atoms: _2  and  _10
REMARK    2  A    between atoms: _3  and  _49
REMARK    3  A    between atoms: _7  and  _8
REMARK    4  A    between atoms: _7  and  _20
REMARK    5  A    between atoms: _13  and  _49
REMARK    6  A    between atoms: _20  and  _22
REMARK    7  A    between atoms: _21  and  _26
REMARK    8  A    between atoms: _22  and  _25
REMARK    9  A    between atoms: _30  and  _40
REMARK   10  A    between atoms: _32  and  _33
REMARK   11  A    between atoms: _34  and  _36
REMARK   12  A    between atoms: _36  and  _38
REMARK   13  A    between atoms: _38  and  _40
REMARK                            x       y       z     vdW  Elec       q    Type
REMARK                         _______ _______ _______ _____ _____    ______ ____
ROOT
ATOM      1  O   UNL     1      28.939  17.129  -1.245  0.00  0.00    -0.450 OA
ENDROOT
BRANCH   1   2
ATOM      2  C   UNL     1      27.768  17.640  -1.442  0.00  0.00    +0.400 C 
ATOM      3  N   UNL     1      26.826  16.786  -1.966  0.00  0.00    -0.278 N 
ATOM      4  H   UNL     1      25.913  17.333  -1.863  0.00  0.00    +0.152 HD
ATOM      5  O   UNL     1      27.425  18.790  -1.178  0.00  0.00    -0.226 OA
BRANCH   3   6
ATOM      6  C   UNL     1      26.523  15.505  -2.598  0.00  0.00    +0.152 C 
BRANCH   6   7
ATOM      7  C   UNL     1      25.104  14.948  -2.359  0.00  0.00    +0.193 C 
ATOM      8  O   UNL     1      24.295  15.380  -3.476  0.00  0.00    -0.219 OA
BRANCH   7   9
ATOM      9  C   UNL     1      24.934  13.413  -2.331  0.00  0.00    +0.212 C 
ATOM     10  O   UNL     1      26.056  12.772  -2.958  0.00  0.00    -0.218 OA
BRANCH   9  11
ATOM     11  C   UNL     1      24.769  12.830  -0.876  0.00  0.00    +0.171 C 
ATOM     12  O   UNL     1      25.822  11.941  -0.520  0.00  0.00    -0.343 OA
ATOM     13  C   UNL     1      25.803  11.104   0.599  0.00  0.00    +0.220 C 
ATOM     14  C   UNL     1      24.505  10.282   0.673  0.00  0.00    +0.076 C 
ATOM     15  C   UNL     1      23.327  11.267   0.581  0.00  0.00    +0.177 C 
ATOM     16  O   UNL     1      22.099  10.560   0.685  0.00  0.00    -0.221 OA
ATOM     17  C   UNL     1      23.405  12.074  -0.752  0.00  0.00    +0.155 C 
BRANCH  17  18
ATOM     18  N   UNL     1      22.284  13.006  -0.846  0.00  0.00    -0.202 NA
ATOM     19  C   UNL     1      21.261  13.045  -1.737  0.00  0.00    +0.242 C 
ATOM     20  C   UNL     1      20.081  13.930  -1.433  0.00  0.00    +0.096 C 
ATOM     21  O   UNL     1      21.320  12.365  -2.760  0.00  0.00    -0.273 OA
ENDBRANCH  17  18
BRANCH  13  22
ATOM     22  C   UNL     1      26.098  11.882   1.994  0.00  0.00    +0.391 C 
ATOM     23  O   UNL     1      25.555  11.101   2.949  0.00  0.00    -0.243 OA
ATOM     24  O   UNL     1      27.007  12.822   1.709  0.00  0.00    -0.243 OA
ENDBRANCH  13  22
ENDBRANCH   9  11
ENDBRANCH   7   9
ENDBRANCH   6   7
ENDBRANCH   3   6
ENDBRANCH   1   2
BRANCH   1  25
ATOM     25  C   UNL     1      29.674  16.510  -0.216  0.00  0.00    +0.240 C 
BRANCH  25  26
ATOM     26  C   UNL     1      29.292  15.066   0.162  0.00  0.00    +0.100 C 
BRANCH  26  28
ATOM     27  N   UNL     1      31.628  14.293   0.469  0.00  0.00    -0.134 NA
ATOM     28  C   UNL     1      30.363  14.443   0.961  0.00  0.00    +0.086 A 
ATOM     29  C   UNL     1      30.319  13.946   2.243  0.00  0.00    +0.139 A 
ATOM     30  N   UNL     1      31.602  13.523   2.506  0.00  0.00    -0.220 N 
ATOM     31  N   UNL     1      32.373  13.728   1.410  0.00  0.00    -0.061 NA
BRANCH  30  32
ATOM     32  C   UNL     1      32.123  12.987   3.711  0.00  0.00    +0.067 A 
ATOM     33  C   UNL     1      31.574  11.820   4.263  0.00  0.00    +0.030 A 
ATOM     34  C   UNL     1      32.049  11.329   5.479  0.00  0.00    +0.031 A 
ATOM     35  C   UNL     1      33.083  11.995   6.141  0.00  0.00    +0.109 A 
ATOM     36  C   UNL     1      33.646  13.151   5.598  0.00  0.00    +0.031 A 
ATOM     37  C   UNL     1      33.173  13.643   4.376  0.00  0.00    +0.030 A 
BRANCH  35  38
ATOM     38  S   UNL     1      33.556  11.429   7.753  0.00  0.00    +0.074 S 
ATOM     39  O   UNL     1      34.716  10.574   7.593  0.00  0.00    -0.150 OA
ATOM     40  O   UNL     1      33.611  12.565   8.644  0.00  0.00    -0.150 OA
BRANCH  38  41
ATOM     41  N   UNL     1      32.302  10.387   8.190  0.00  0.00    -0.194 N 
ATOM     42  H   UNL     1      32.741   9.582   8.631  0.00  0.00    +0.176 HD
ATOM     43  C   UNL     1      31.344  11.021   9.006  0.00  0.00    +0.177 A 
ATOM     44  S   UNL     1      31.344  10.882  10.709  0.00  0.00    -0.059 S 
ATOM     45  C   UNL     1      29.883  11.782  10.761  0.00  0.00    +0.068 A 
ATOM     46  C   UNL     1      29.465  12.052   9.474  0.00  0.00    +0.120 A 
ATOM     47  N   UNL     1      30.322  11.642   8.469  0.00  0.00    -0.232 NA
ENDBRANCH  38  41
ENDBRANCH  35  38
ENDBRANCH  30  32
ENDBRANCH  26  28
ENDBRANCH  25  26
ENDBRANCH   1  25
TORSDOF 13
