REMARK VINA RESULT:    -6.125      4.113      8.908
REMARK INTER + INTRA:         -12.675
REMARK INTER:                 -10.175
REMARK INTRA:                  -2.500
REMARK UNBOUND:                -1.716
REMARK  Name = lig_assembled_32.pdb
REMARK  14 active torsions:
REMARK  status: ('A' for Active; 'I' for Inactive)
REMARK    1  A    between atoms: _2  and  _8
REMARK    2  A    between atoms: _4  and  _9
REMARK    3  A    between atoms: _4  and  _10
REMARK    4  A    between atoms: _5  and  _6
REMARK    5  A    between atoms: _5  and  _12
REMARK    6  A    between atoms: _8  and  _9
REMARK    7  A    between atoms: _12  and  _14
REMARK    8  A    between atoms: _13  and  _18
REMARK    9  A    between atoms: _14  and  _17
REMARK   10  A    between atoms: _22  and  _32
REMARK   11  A    between atoms: _24  and  _25
REMARK   12  A    between atoms: _26  and  _28
REMARK   13  A    between atoms: _28  and  _30
REMARK   14  A    between atoms: _30  and  _32
REMARK                            x       y       z     vdW  Elec       q    Type
REMARK                         _______ _______ _______ _____ _____    ______ ____
ROOT
ATOM      1  C   UNL     1      27.162  17.094  -3.472  0.00  0.00    +0.152 C 
ENDROOT
BRANCH   1   3
ATOM      2  C   UNL     1      28.021  17.780  -0.975  0.00  0.00    +0.400 C 
ATOM      3  N   UNL     1      27.248  17.558  -2.090  0.00  0.00    -0.278 N 
ATOM      4  H   UNL     1      26.278  17.893  -1.789  0.00  0.00    +0.152 HD
ATOM      5  O   UNL     1      27.531  18.421  -0.048  0.00  0.00    -0.226 OA
BRANCH   2   6
ATOM      6  O   UNL     1      29.202  17.254  -0.999  0.00  0.00    -0.450 OA
BRANCH   6   7
ATOM      7  C   UNL     1      30.122  16.655  -0.117  0.00  0.00    +0.240 C 
BRANCH   7   8
ATOM      8  C   UNL     1      30.486  15.179  -0.364  0.00  0.00    +0.100 C 
BRANCH   8  10
ATOM      9  N   UNL     1      30.539  14.492   2.013  0.00  0.00    -0.134 NA
ATOM     10  C   UNL     1      30.017  14.341   0.756  0.00  0.00    +0.086 A 
ATOM     11  C   UNL     1      29.070  13.341   0.780  0.00  0.00    +0.133 A 
ATOM     12  N   UNL     1      29.074  12.919   2.073  0.00  0.00    -0.251 N 
ATOM     13  N   UNL     1      29.955  13.612   2.814  0.00  0.00    -0.065 NA
BRANCH  12  14
ATOM     14  C   UNL     1      28.274  11.877   2.678  0.00  0.00    +0.156 C 
BRANCH  14  15
ATOM     15  C   UNL     1      26.951  12.411   3.212  0.00  0.00    +0.143 C 
BRANCH  15  16
ATOM     16  C   UNL     1      25.804  11.783   2.473  0.00  0.00    +0.306 C 
ATOM     17  O   UNL     1      24.958  11.064   2.981  0.00  0.00    -0.251 OA
BRANCH  16  18
ATOM     18  O   UNL     1      25.805  12.085   1.157  0.00  0.00    -0.481 OA
ATOM     19  H   UNL     1      26.681  12.329   0.800  0.00  0.00    +0.295 HD
ENDBRANCH  16  18
ENDBRANCH  15  16
ENDBRANCH  14  15
ENDBRANCH  12  14
ENDBRANCH   8  10
ENDBRANCH   7   8
ENDBRANCH   6   7
ENDBRANCH   2   6
ENDBRANCH   1   3
BRANCH   1  20
ATOM     20  C   UNL     1      26.034  16.088  -3.783  0.00  0.00    +0.193 C 
ATOM     21  O   UNL     1      26.022  15.907  -5.216  0.00  0.00    -0.219 OA
BRANCH  20  22
ATOM     22  C   UNL     1      26.176  14.659  -3.215  0.00  0.00    +0.212 C 
ATOM     23  O   UNL     1      26.884  14.683  -1.965  0.00  0.00    -0.218 OA
BRANCH  22  24
ATOM     24  C   UNL     1      24.793  13.934  -2.997  0.00  0.00    +0.171 C 
ATOM     25  O   UNL     1      23.820  14.781  -2.394  0.00  0.00    -0.343 OA
ATOM     26  C   UNL     1      22.604  14.336  -1.871  0.00  0.00    +0.220 C 
ATOM     27  C   UNL     1      22.796  13.151  -0.908  0.00  0.00    +0.076 C 
ATOM     28  C   UNL     1      23.612  12.080  -1.650  0.00  0.00    +0.177 C 
ATOM     29  O   UNL     1      23.785  10.943  -0.816  0.00  0.00    -0.221 OA
ATOM     30  C   UNL     1      24.986  12.667  -2.101  0.00  0.00    +0.155 C 
BRANCH  30  31
ATOM     31  N   UNL     1      25.767  11.650  -2.800  0.00  0.00    -0.202 NA
ATOM     32  C   UNL     1      26.760  10.849  -2.338  0.00  0.00    +0.242 C 
ATOM     33  C   UNL     1      27.194   9.684  -3.189  0.00  0.00    +0.096 C 
ATOM     34  O   UNL     1      27.276  11.088  -1.248  0.00  0.00    -0.273 OA
ENDBRANCH  30  31
BRANCH  26  35
ATOM     35  C   UNL     1      21.491  14.006  -3.008  0.00  0.00    +0.391 C 
ATOM     36  O   UNL     1      22.049  14.409  -4.166  0.00  0.00    -0.243 OA
ATOM     37  O   UNL     1      20.593  13.203  -2.425  0.00  0.00    -0.243 OA
ENDBRANCH  26  35
ENDBRANCH  22  24
ENDBRANCH  20  22
ENDBRANCH   1  20
TORSDOF 14
