REMARK VINA RESULT:    -6.113      3.045      4.693
REMARK INTER + INTRA:         -12.653
REMARK INTER:                 -10.723
REMARK INTRA:                  -1.930
REMARK UNBOUND:                -1.716
REMARK  Name = lig_assembled_32.pdb
REMARK  14 active torsions:
REMARK  status: ('A' for Active; 'I' for Inactive)
REMARK    1  A    between atoms: _2  and  _8
REMARK    2  A    between atoms: _4  and  _9
REMARK    3  A    between atoms: _4  and  _10
REMARK    4  A    between atoms: _5  and  _6
REMARK    5  A    between atoms: _5  and  _12
REMARK    6  A    between atoms: _8  and  _9
REMARK    7  A    between atoms: _12  and  _14
REMARK    8  A    between atoms: _13  and  _18
REMARK    9  A    between atoms: _14  and  _17
REMARK   10  A    between atoms: _22  and  _32
REMARK   11  A    between atoms: _24  and  _25
REMARK   12  A    between atoms: _26  and  _28
REMARK   13  A    between atoms: _28  and  _30
REMARK   14  A    between atoms: _30  and  _32
REMARK                            x       y       z     vdW  Elec       q    Type
REMARK                         _______ _______ _______ _____ _____    ______ ____
ROOT
ATOM      1  C   UNL     1      30.722  16.655   0.288  0.00  0.00    +0.152 C 
ENDROOT
BRANCH   1   3
ATOM      2  C   UNL     1      28.300  17.587  -0.555  0.00  0.00    +0.400 C 
ATOM      3  N   UNL     1      29.486  17.415   0.118  0.00  0.00    -0.278 N 
ATOM      4  H   UNL     1      29.471  18.195   0.849  0.00  0.00    +0.152 HD
ATOM      5  O   UNL     1      27.484  18.383  -0.098  0.00  0.00    -0.226 OA
BRANCH   2   6
ATOM      6  O   UNL     1      28.169  16.901  -1.643  0.00  0.00    -0.450 OA
BRANCH   6   7
ATOM      7  C   UNL     1      27.383  15.850  -2.156  0.00  0.00    +0.240 C 
BRANCH   7   8
ATOM      8  C   UNL     1      26.083  16.228  -2.891  0.00  0.00    +0.100 C 
BRANCH   8  10
ATOM      9  N   UNL     1      24.127  15.011  -3.794  0.00  0.00    -0.134 NA
ATOM     10  C   UNL     1      25.136  15.098  -2.872  0.00  0.00    +0.086 A 
ATOM     11  C   UNL     1      25.065  14.015  -2.024  0.00  0.00    +0.133 A 
ATOM     12  N   UNL     1      23.987  13.318  -2.475  0.00  0.00    -0.251 N 
ATOM     13  N   UNL     1      23.425  13.916  -3.539  0.00  0.00    -0.065 NA
BRANCH  12  14
ATOM     14  C   UNL     1      23.435  12.085  -1.957  0.00  0.00    +0.156 C 
BRANCH  14  15
ATOM     15  C   UNL     1      22.054  12.290  -1.350  0.00  0.00    +0.143 C 
BRANCH  15  16
ATOM     16  C   UNL     1      22.095  12.032   0.129  0.00  0.00    +0.306 C 
ATOM     17  O   UNL     1      21.138  12.130   0.881  0.00  0.00    -0.251 OA
BRANCH  16  18
ATOM     18  O   UNL     1      23.327  11.687   0.563  0.00  0.00    -0.481 OA
ATOM     19  H   UNL     1      23.384  11.520   1.524  0.00  0.00    +0.295 HD
ENDBRANCH  16  18
ENDBRANCH  15  16
ENDBRANCH  14  15
ENDBRANCH  12  14
ENDBRANCH   8  10
ENDBRANCH   7   8
ENDBRANCH   6   7
ENDBRANCH   2   6
ENDBRANCH   1   3
BRANCH   1  20
ATOM     20  C   UNL     1      30.603  15.124   0.146  0.00  0.00    +0.193 C 
ATOM     21  O   UNL     1      31.526  14.730  -0.893  0.00  0.00    -0.219 OA
BRANCH  20  22
ATOM     22  C   UNL     1      31.001  14.260   1.363  0.00  0.00    +0.212 C 
ATOM     23  O   UNL     1      31.332  15.095   2.484  0.00  0.00    -0.218 OA
BRANCH  22  24
ATOM     24  C   UNL     1      29.877  13.247   1.804  0.00  0.00    +0.171 C 
ATOM     25  O   UNL     1      28.584  13.843   1.836  0.00  0.00    -0.343 OA
ATOM     26  C   UNL     1      27.459  13.253   2.416  0.00  0.00    +0.220 C 
ATOM     27  C   UNL     1      27.743  12.769   3.849  0.00  0.00    +0.076 C 
ATOM     28  C   UNL     1      28.989  11.870   3.794  0.00  0.00    +0.177 C 
ATOM     29  O   UNL     1      29.274  11.362   5.090  0.00  0.00    -0.221 OA
ATOM     30  C   UNL     1      30.202  12.666   3.219  0.00  0.00    +0.155 C 
BRANCH  30  31
ATOM     31  N   UNL     1      31.390  11.817   3.172  0.00  0.00    -0.202 NA
ATOM     32  C   UNL     1      32.546  11.903   3.878  0.00  0.00    +0.242 C 
ATOM     33  C   UNL     1      33.490  10.729   3.850  0.00  0.00    +0.096 C 
ATOM     34  O   UNL     1      32.792  12.923   4.519  0.00  0.00    -0.273 OA
ENDBRANCH  30  31
BRANCH  26  35
ATOM     35  C   UNL     1      26.803  12.077   1.508  0.00  0.00    +0.391 C 
ATOM     36  O   UNL     1      25.826  11.551   2.272  0.00  0.00    -0.243 OA
ATOM     37  O   UNL     1      27.262  12.269   0.265  0.00  0.00    -0.243 OA
ENDBRANCH  26  35
ENDBRANCH  22  24
ENDBRANCH  20  22
ENDBRANCH   1  20
TORSDOF 14
