REMARK VINA RESULT:    -6.477      5.576     10.354
REMARK INTER + INTRA:         -14.697
REMARK INTER:                 -11.471
REMARK INTRA:                  -3.226
REMARK UNBOUND:                -2.540
REMARK  Name = lig_assembled_31.pdb
REMARK  15 active torsions:
REMARK  status: ('A' for Active; 'I' for Inactive)
REMARK    1  A    between atoms: _2  and  _10
REMARK    2  A    between atoms: _3  and  _11
REMARK    3  A    between atoms: _4  and  _13
REMARK    4  A    between atoms: _7  and  _8
REMARK    5  A    between atoms: _7  and  _19
REMARK    6  A    between atoms: _10  and  _11
REMARK    7  A    between atoms: _13  and  _14
REMARK    8  A    between atoms: _19  and  _21
REMARK    9  A    between atoms: _20  and  _25
REMARK   10  A    between atoms: _21  and  _24
REMARK   11  A    between atoms: _29  and  _39
REMARK   12  A    between atoms: _31  and  _32
REMARK   13  A    between atoms: _33  and  _35
REMARK   14  A    between atoms: _35  and  _37
REMARK   15  A    between atoms: _37  and  _39
REMARK                            x       y       z     vdW  Elec       q    Type
REMARK                         _______ _______ _______ _____ _____    ______ ____
ROOT
ATOM      1  C   UNL     1      29.264  14.501  -0.504  0.00  0.00    +0.400 C 
ATOM      2  N   UNL     1      30.243  13.883  -1.245  0.00  0.00    -0.278 N 
ATOM      3  H   UNL     1      30.604  14.664  -1.880  0.00  0.00    +0.152 HD
ATOM      4  O   UNL     1      29.161  15.723  -0.585  0.00  0.00    -0.226 OA
ENDROOT
BRANCH   2   5
ATOM      5  C   UNL     1      31.004  12.671  -1.537  0.00  0.00    +0.152 C 
BRANCH   5   6
ATOM      6  C   UNL     1      32.476  12.875  -1.949  0.00  0.00    +0.193 C 
ATOM      7  O   UNL     1      32.460  13.479  -3.261  0.00  0.00    -0.219 OA
BRANCH   6   8
ATOM      8  C   UNL     1      33.332  13.835  -1.094  0.00  0.00    +0.212 C 
ATOM      9  O   UNL     1      32.870  15.187  -1.243  0.00  0.00    -0.218 OA
BRANCH   8  10
ATOM     10  C   UNL     1      33.335  13.470   0.440  0.00  0.00    +0.171 C 
ATOM     11  O   UNL     1      32.488  14.319   1.207  0.00  0.00    -0.343 OA
ATOM     12  C   UNL     1      32.486  14.378   2.602  0.00  0.00    +0.220 C 
ATOM     13  C   UNL     1      33.905  14.566   3.167  0.00  0.00    +0.076 C 
ATOM     14  C   UNL     1      34.791  13.462   2.567  0.00  0.00    +0.177 C 
ATOM     15  O   UNL     1      36.109  13.566   3.089  0.00  0.00    -0.221 OA
ATOM     16  C   UNL     1      34.789  13.558   1.010  0.00  0.00    +0.155 C 
BRANCH  16  17
ATOM     17  N   UNL     1      35.636  12.515   0.436  0.00  0.00    -0.202 NA
ATOM     18  C   UNL     1      36.723  12.625  -0.369  0.00  0.00    +0.242 C 
ATOM     19  C   UNL     1      37.586  11.407  -0.575  0.00  0.00    +0.096 C 
ATOM     20  O   UNL     1      36.977  13.702  -0.903  0.00  0.00    -0.273 OA
ENDBRANCH  16  17
BRANCH  12  21
ATOM     21  C   UNL     1      31.726  13.125   3.303  0.00  0.00    +0.391 C 
ATOM     22  O   UNL     1      32.233  13.063   4.549  0.00  0.00    -0.243 OA
ATOM     23  O   UNL     1      30.693  12.826   2.505  0.00  0.00    -0.243 OA
ENDBRANCH  12  21
ENDBRANCH   8  10
ENDBRANCH   6   8
ENDBRANCH   5   6
ENDBRANCH   2   5
BRANCH   1  24
ATOM     24  O   UNL     1      28.512  13.717   0.196  0.00  0.00    -0.450 OA
BRANCH  24  25
ATOM     25  C   UNL     1      27.611  12.651   0.006  0.00  0.00    +0.240 C 
BRANCH  25  26
ATOM     26  C   UNL     1      26.485  12.479   1.043  0.00  0.00    +0.100 C 
BRANCH  26  28
ATOM     27  N   UNL     1      27.292  13.117   3.295  0.00  0.00    -0.134 NA
ATOM     28  C   UNL     1      27.050  12.142   2.365  0.00  0.00    +0.086 A 
ATOM     29  C   UNL     1      27.412  10.921   2.889  0.00  0.00    +0.133 A 
ATOM     30  N   UNL     1      27.876  11.224   4.135  0.00  0.00    -0.250 N 
ATOM     31  N   UNL     1      27.797  12.542   4.379  0.00  0.00    -0.065 NA
BRANCH  30  32
ATOM     32  C   UNL     1      28.408  10.322   5.136  0.00  0.00    +0.164 C 
BRANCH  32  33
ATOM     33  C   UNL     1      29.874  10.612   5.420  0.00  0.00    +0.129 C 
BRANCH  33  34
ATOM     34  N   UNL     1      30.112  11.790   6.243  0.00  0.00    -0.298 N 
ATOM     35  H   UNL     1      30.489  12.635   5.839  0.00  0.00    +0.150 HD
ATOM     36  C   UNL     1      30.235  11.621   7.598  0.00  0.00    +0.300 C 
ATOM     37  O   UNL     1      30.054  10.539   8.152  0.00  0.00    -0.253 OA
ATOM     38  N   UNL     1      30.546  12.756   8.280  0.00  0.00    -0.292 N 
ATOM     39  H   UNL     1      30.737  13.635   7.820  0.00  0.00    +0.151 HD
BRANCH  38  40
ATOM     40  C   UNL     1      30.691  12.683   9.715  0.00  0.00    +0.180 C 
BRANCH  40  41
ATOM     41  C   UNL     1      32.005  12.144  10.146  0.00  0.00    +0.122 A 
ATOM     42  O   UNL     1      33.112  12.409   9.390  0.00  0.00    -0.466 OA
ATOM     43  C   UNL     1      34.164  11.803  10.008  0.00  0.00    +0.195 A 
ATOM     44  C   UNL     1      33.750  11.153  11.147  0.00  0.00    +0.041 A 
ATOM     45  C   UNL     1      32.357  11.371  11.237  0.00  0.00    +0.046 A 
ENDBRANCH  40  41
ENDBRANCH  38  40
ENDBRANCH  33  34
ENDBRANCH  32  33
ENDBRANCH  30  32
ENDBRANCH  26  28
ENDBRANCH  25  26
ENDBRANCH  24  25
ENDBRANCH   1  24
TORSDOF 15
