REMARK VINA RESULT:    -6.132      1.779      3.705
REMARK INTER + INTRA:         -13.385
REMARK INTER:                 -11.808
REMARK INTRA:                  -1.577
REMARK UNBOUND:                -2.235
REMARK  Name = lig_assembled_50.pdb
REMARK  15 active torsions:
REMARK  status: ('A' for Active; 'I' for Inactive)
REMARK    1  A    between atoms: _2  and  _8
REMARK    2  A    between atoms: _4  and  _9
REMARK    3  A    between atoms: _4  and  _10
REMARK    4  A    between atoms: _5  and  _6
REMARK    5  A    between atoms: _5  and  _12
REMARK    6  A    between atoms: _8  and  _9
REMARK    7  A    between atoms: _9  and  _11
REMARK    8  A    between atoms: _12  and  _14
REMARK    9  A    between atoms: _13  and  _18
REMARK   10  A    between atoms: _14  and  _17
REMARK   11  A    between atoms: _22  and  _32
REMARK   12  A    between atoms: _24  and  _25
REMARK   13  A    between atoms: _26  and  _28
REMARK   14  A    between atoms: _28  and  _30
REMARK   15  A    between atoms: _30  and  _32
REMARK                            x       y       z     vdW  Elec       q    Type
REMARK                         _______ _______ _______ _____ _____    ______ ____
ROOT
ATOM      1  C   UNL     1      29.080  17.139  -0.409  0.00  0.00    +0.400 C 
ATOM      2  N   UNL     1      29.034  15.944   0.270  0.00  0.00    -0.278 N 
ATOM      3  H   UNL     1      29.746  16.078   1.055  0.00  0.00    +0.152 HD
ATOM      4  O   UNL     1      29.713  18.065   0.092  0.00  0.00    -0.226 OA
ENDROOT
BRANCH   2   5
ATOM      5  C   UNL     1      28.451  14.611   0.405  0.00  0.00    +0.152 C 
BRANCH   5   6
ATOM      6  C   UNL     1      28.659  13.913   1.764  0.00  0.00    +0.193 C 
ATOM      7  O   UNL     1      27.403  13.285   2.105  0.00  0.00    -0.219 OA
BRANCH   6   8
ATOM      8  C   UNL     1      29.693  12.767   1.829  0.00  0.00    +0.212 C 
ATOM      9  O   UNL     1      29.271  11.664   1.012  0.00  0.00    -0.218 OA
BRANCH   8  10
ATOM     10  C   UNL     1      31.139  13.205   1.377  0.00  0.00    +0.171 C 
ATOM     11  O   UNL     1      31.349  13.039  -0.021  0.00  0.00    -0.343 OA
ATOM     12  C   UNL     1      32.596  13.116  -0.645  0.00  0.00    +0.220 C 
ATOM     13  C   UNL     1      33.639  12.225   0.053  0.00  0.00    +0.076 C 
ATOM     14  C   UNL     1      33.638  12.595   1.545  0.00  0.00    +0.177 C 
ATOM     15  O   UNL     1      34.615  11.826   2.233  0.00  0.00    -0.221 OA
ATOM     16  C   UNL     1      32.217  12.378   2.152  0.00  0.00    +0.155 C 
BRANCH  16  17
ATOM     17  N   UNL     1      32.213  12.722   3.572  0.00  0.00    -0.202 NA
ATOM     18  C   UNL     1      32.142  11.914   4.660  0.00  0.00    +0.242 C 
ATOM     19  C   UNL     1      32.455  12.503   6.011  0.00  0.00    +0.096 C 
ATOM     20  O   UNL     1      31.830  10.733   4.521  0.00  0.00    -0.273 OA
ENDBRANCH  16  17
BRANCH  12  21
ATOM     21  C   UNL     1      33.137  14.637  -0.828  0.00  0.00    +0.391 C 
ATOM     22  O   UNL     1      34.433  14.506  -1.169  0.00  0.00    -0.243 OA
ATOM     23  O   UNL     1      32.047  15.414  -0.869  0.00  0.00    -0.243 OA
ENDBRANCH  12  21
ENDBRANCH   8  10
ENDBRANCH   6   8
ENDBRANCH   5   6
ENDBRANCH   2   5
BRANCH   1  24
ATOM     24  O   UNL     1      28.465  17.161  -1.545  0.00  0.00    -0.450 OA
BRANCH  24  25
ATOM     25  C   UNL     1      27.173  17.395  -2.057  0.00  0.00    +0.240 C 
BRANCH  25  26
ATOM     26  C   UNL     1      26.990  17.322  -3.585  0.00  0.00    +0.100 C 
BRANCH  26  28
ATOM     27  N   UNL     1      25.955  15.721  -5.167  0.00  0.00    -0.134 NA
ATOM     28  C   UNL     1      25.963  16.320  -3.933  0.00  0.00    +0.086 A 
ATOM     29  C   UNL     1      24.920  15.819  -3.181  0.00  0.00    +0.133 A 
ATOM     30  N   UNL     1      24.316  14.931  -4.013  0.00  0.00    -0.249 N 
ATOM     31  N   UNL     1      24.948  14.861  -5.200  0.00  0.00    -0.065 NA
BRANCH  30  32
ATOM     32  C   UNL     1      23.143  14.125  -3.766  0.00  0.00    +0.178 C 
BRANCH  32  33
ATOM     33  C   UNL     1      21.821  14.888  -3.908  0.00  0.00    +0.161 C 
BRANCH  33  34
ATOM     34  O   UNL     1      21.672  15.501  -5.192  0.00  0.00    -0.388 OA
ATOM     35  H   UNL     1      22.562  15.685  -5.554  0.00  0.00    +0.210 HD
ENDBRANCH  33  34
BRANCH  33  36
ATOM     36  C   UNL     1      20.584  14.036  -3.594  0.00  0.00    +0.189 C 
BRANCH  36  37
ATOM     37  O   UNL     1      20.047  14.353  -2.310  0.00  0.00    -0.392 OA
ATOM     38  H   UNL     1      20.211  13.597  -1.716  0.00  0.00    +0.210 HD
ENDBRANCH  36  37
ENDBRANCH  33  36
ENDBRANCH  32  33
ENDBRANCH  30  32
ENDBRANCH  26  28
ENDBRANCH  25  26
ENDBRANCH  24  25
ENDBRANCH   1  24
TORSDOF 15
