REMARK VINA RESULT:    -6.754      2.292      3.952
REMARK INTER + INTRA:         -12.785
REMARK INTER:                 -11.216
REMARK INTRA:                  -1.569
REMARK UNBOUND:                -1.689
REMARK  Name = lig_assembled_49.pdb
REMARK  11 active torsions:
REMARK  status: ('A' for Active; 'I' for Inactive)
REMARK    1  A    between atoms: _2  and  _8
REMARK    2  A    between atoms: _5  and  _6
REMARK    3  A    between atoms: _5  and  _12
REMARK    4  A    between atoms: _12  and  _14
REMARK    5  A    between atoms: _13  and  _18
REMARK    6  A    between atoms: _14  and  _17
REMARK    7  A    between atoms: _22  and  _32
REMARK    8  A    between atoms: _24  and  _25
REMARK    9  A    between atoms: _26  and  _28
REMARK   10  A    between atoms: _28  and  _30
REMARK   11  A    between atoms: _30  and  _32
REMARK                            x       y       z     vdW  Elec       q    Type
REMARK                         _______ _______ _______ _____ _____    ______ ____
ROOT
ATOM      1  C   UNL     1      28.733  14.894  -0.576  0.00  0.00    +0.152 C 
ENDROOT
BRANCH   1   3
ATOM      2  C   UNL     1      27.838  17.424  -1.065  0.00  0.00    +0.400 C 
ATOM      3  N   UNL     1      28.309  16.286  -0.454  0.00  0.00    -0.278 N 
ATOM      4  H   UNL     1      28.378  16.567   0.574  0.00  0.00    +0.152 HD
ATOM      5  O   UNL     1      27.457  18.349  -0.351  0.00  0.00    -0.226 OA
BRANCH   2   6
ATOM      6  O   UNL     1      27.871  17.421  -2.357  0.00  0.00    -0.450 OA
BRANCH   6   7
ATOM      7  C   UNL     1      27.215  16.805  -3.441  0.00  0.00    +0.240 C 
BRANCH   7   8
ATOM      8  C   UNL     1      25.685  16.957  -3.526  0.00  0.00    +0.100 C 
BRANCH   8  10
ATOM      9  N   UNL     1      25.742  14.620  -2.720  0.00  0.00    -0.134 NA
ATOM     10  C   UNL     1      25.019  15.743  -3.020  0.00  0.00    +0.086 A 
ATOM     11  C   UNL     1      23.686  15.500  -2.774  0.00  0.00    +0.134 A 
ATOM     12  N   UNL     1      23.663  14.208  -2.334  0.00  0.00    -0.248 N 
ATOM     13  N   UNL     1      24.901  13.684  -2.301  0.00  0.00    -0.065 NA
BRANCH  12  14
ATOM     14  C   UNL     1      22.511  13.424  -1.959  0.00  0.00    +0.109 C 
ATOM     15  C   UNL     1      22.704  12.615  -0.675  0.00  0.00    +0.027 C 
ATOM     16  C   UNL     1      21.279  12.267  -0.277  0.00  0.00    +0.002 C 
ATOM     17  C   UNL     1      20.487  13.530  -0.585  0.00  0.00    +0.002 C 
ATOM     18  C   UNL     1      21.238  14.245  -1.711  0.00  0.00    +0.027 C 
ENDBRANCH  12  14
ENDBRANCH   8  10
ENDBRANCH   7   8
ENDBRANCH   6   7
ENDBRANCH   2   6
ENDBRANCH   1   3
BRANCH   1  19
ATOM     19  C   UNL     1      30.230  14.615  -0.328  0.00  0.00    +0.193 C 
ATOM     20  O   UNL     1      30.898  15.896  -0.337  0.00  0.00    -0.219 OA
BRANCH  19  21
ATOM     21  C   UNL     1      30.625  13.985   1.026  0.00  0.00    +0.212 C 
ATOM     22  O   UNL     1      30.834  15.007   2.014  0.00  0.00    -0.218 OA
BRANCH  21  23
ATOM     23  C   UNL     1      29.556  12.964   1.575  0.00  0.00    +0.171 C 
ATOM     24  O   UNL     1      28.417  13.611   2.133  0.00  0.00    -0.343 OA
ATOM     25  C   UNL     1      27.443  12.969   2.900  0.00  0.00    +0.220 C 
ATOM     26  C   UNL     1      28.066  12.142   4.038  0.00  0.00    +0.076 C 
ATOM     27  C   UNL     1      29.115  11.209   3.411  0.00  0.00    +0.177 C 
ATOM     28  O   UNL     1      29.696  10.391   4.417  0.00  0.00    -0.221 OA
ATOM     29  C   UNL     1      30.201  12.045   2.664  0.00  0.00    +0.155 C 
BRANCH  29  30
ATOM     30  N   UNL     1      31.203  11.163   2.072  0.00  0.00    -0.202 NA
ATOM     31  C   UNL     1      32.542  11.105   2.285  0.00  0.00    +0.242 C 
ATOM     32  C   UNL     1      33.298   9.909   1.768  0.00  0.00    +0.096 C 
ATOM     33  O   UNL     1      33.101  12.019   2.889  0.00  0.00    -0.273 OA
ENDBRANCH  29  30
BRANCH  25  34
ATOM     34  C   UNL     1      26.405  12.083   2.018  0.00  0.00    +0.391 C 
ATOM     35  O   UNL     1      25.727  11.344   2.918  0.00  0.00    -0.243 OA
ATOM     36  O   UNL     1      26.400  12.629   0.796  0.00  0.00    -0.243 OA
ENDBRANCH  25  34
ENDBRANCH  21  23
ENDBRANCH  19  21
ENDBRANCH   1  19
TORSDOF 11
