REMARK VINA RESULT:    -6.359      2.986      7.446
REMARK INTER + INTRA:         -13.478
REMARK INTER:                 -11.248
REMARK INTRA:                  -2.230
REMARK UNBOUND:                -2.657
REMARK  Name = lig_assembled_46.pdb
REMARK  12 active torsions:
REMARK  status: ('A' for Active; 'I' for Inactive)
REMARK    1  A    between atoms: _2  and  _8
REMARK    2  A    between atoms: _5  and  _6
REMARK    3  A    between atoms: _5  and  _14
REMARK    4  A    between atoms: _8  and  _9
REMARK    5  A    between atoms: _14  and  _16
REMARK    6  A    between atoms: _15  and  _20
REMARK    7  A    between atoms: _16  and  _19
REMARK    8  A    between atoms: _24  and  _34
REMARK    9  A    between atoms: _26  and  _27
REMARK   10  A    between atoms: _28  and  _30
REMARK   11  A    between atoms: _30  and  _32
REMARK   12  A    between atoms: _32  and  _34
REMARK                            x       y       z     vdW  Elec       q    Type
REMARK                         _______ _______ _______ _____ _____    ______ ____
ROOT
ATOM      1  C   UNL     1      29.052  16.858  -0.499  0.00  0.00    +0.400 C 
ATOM      2  N   UNL     1      27.885  16.586  -1.172  0.00  0.00    -0.278 N 
ATOM      3  H   UNL     1      27.245  17.396  -0.897  0.00  0.00    +0.152 HD
ATOM      4  O   UNL     1      29.160  17.949   0.055  0.00  0.00    -0.226 OA
ENDROOT
BRANCH   2   5
ATOM      5  C   UNL     1      27.149  15.715  -2.086  0.00  0.00    +0.152 C 
BRANCH   5   6
ATOM      6  C   UNL     1      26.263  16.421  -3.132  0.00  0.00    +0.193 C 
ATOM      7  O   UNL     1      27.102  17.386  -3.804  0.00  0.00    -0.219 OA
BRANCH   6   8
ATOM      8  C   UNL     1      25.680  15.558  -4.273  0.00  0.00    +0.212 C 
ATOM      9  O   UNL     1      26.371  15.821  -5.505  0.00  0.00    -0.218 OA
BRANCH   8  10
ATOM     10  C   UNL     1      25.742  14.011  -3.981  0.00  0.00    +0.171 C 
ATOM     11  O   UNL     1      26.699  13.338  -4.793  0.00  0.00    -0.343 OA
ATOM     12  C   UNL     1      26.791  11.949  -4.916  0.00  0.00    +0.220 C 
ATOM     13  C   UNL     1      25.428  11.314  -5.244  0.00  0.00    +0.076 C 
ATOM     14  C   UNL     1      24.423  11.805  -4.189  0.00  0.00    +0.177 C 
ATOM     15  O   UNL     1      23.152  11.215  -4.422  0.00  0.00    -0.221 OA
ATOM     16  C   UNL     1      24.337  13.363  -4.212  0.00  0.00    +0.155 C 
BRANCH  16  17
ATOM     17  N   UNL     1      23.378  13.833  -3.216  0.00  0.00    -0.202 NA
ATOM     18  C   UNL     1      22.222  14.525  -3.383  0.00  0.00    +0.242 C 
ATOM     19  C   UNL     1      21.274  14.626  -2.216  0.00  0.00    +0.096 C 
ATOM     20  O   UNL     1      21.977  15.045  -4.469  0.00  0.00    -0.273 OA
ENDBRANCH  16  17
BRANCH  12  21
ATOM     21  C   UNL     1      27.492  11.231  -3.639  0.00  0.00    +0.391 C 
ATOM     22  O   UNL     1      27.134   9.936  -3.728  0.00  0.00    -0.243 OA
ATOM     23  O   UNL     1      28.385  12.109  -3.165  0.00  0.00    -0.243 OA
ENDBRANCH  12  21
ENDBRANCH   8  10
ENDBRANCH   6   8
ENDBRANCH   5   6
ENDBRANCH   2   5
BRANCH   1  24
ATOM     24  O   UNL     1      29.927  15.907  -0.487  0.00  0.00    -0.450 OA
BRANCH  24  25
ATOM     25  C   UNL     1      30.151  14.669   0.146  0.00  0.00    +0.240 C 
BRANCH  25  26
ATOM     26  C   UNL     1      29.363  14.379   1.438  0.00  0.00    +0.100 C 
BRANCH  26  28
ATOM     27  N   UNL     1      27.754  13.362  -0.145  0.00  0.00    -0.134 NA
ATOM     28  C   UNL     1      28.180  13.550   1.143  0.00  0.00    +0.086 A 
ATOM     29  C   UNL     1      27.368  12.832   1.994  0.00  0.00    +0.134 A 
ATOM     30  N   UNL     1      26.503  12.184   1.159  0.00  0.00    -0.247 N 
ATOM     31  N   UNL     1      26.732  12.518  -0.126  0.00  0.00    -0.065 NA
BRANCH  30  32
ATOM     32  C   UNL     1      25.628  11.070   1.482  0.00  0.00    +0.180 C 
BRANCH  32  33
ATOM     33  C   UNL     1      24.166  11.360   1.252  0.00  0.00    -0.026 A 
ATOM     34  C   UNL     1      23.690  11.706  -0.023  0.00  0.00    +0.005 A 
ATOM     35  C   UNL     1      22.321  11.878  -0.246  0.00  0.00    +0.000 A 
ATOM     36  C   UNL     1      21.415  11.704   0.798  0.00  0.00    +0.000 A 
ATOM     37  C   UNL     1      21.874  11.369   2.069  0.00  0.00    +0.000 A 
ATOM     38  C   UNL     1      23.242  11.197   2.296  0.00  0.00    +0.005 A 
ENDBRANCH  32  33
ENDBRANCH  30  32
ENDBRANCH  26  28
ENDBRANCH  25  26
ENDBRANCH  24  25
ENDBRANCH   1  24
TORSDOF 12
