REMARK VINA RESULT:    -7.229      2.018      4.227
REMARK INTER + INTRA:         -13.196
REMARK INTER:                 -11.910
REMARK INTRA:                  -1.286
REMARK UNBOUND:                -1.318
REMARK  Name = lig_assembled_40.pdb
REMARK  12 active torsions:
REMARK  status: ('A' for Active; 'I' for Inactive)
REMARK    1  A    between atoms: _2  and  _8
REMARK    2  A    between atoms: _5  and  _6
REMARK    3  A    between atoms: _5  and  _14
REMARK    4  A    between atoms: _11  and  _12
REMARK    5  A    between atoms: _14  and  _16
REMARK    6  A    between atoms: _15  and  _20
REMARK    7  A    between atoms: _16  and  _19
REMARK    8  A    between atoms: _24  and  _34
REMARK    9  A    between atoms: _26  and  _27
REMARK   10  A    between atoms: _28  and  _30
REMARK   11  A    between atoms: _30  and  _32
REMARK   12  A    between atoms: _32  and  _34
REMARK                            x       y       z     vdW  Elec       q    Type
REMARK                         _______ _______ _______ _____ _____    ______ ____
ROOT
ATOM      1  C   UNL     1      27.898  17.409  -0.765  0.00  0.00    +0.400 C 
ATOM      2  N   UNL     1      28.539  16.486   0.027  0.00  0.00    -0.278 N 
ATOM      3  H   UNL     1      28.651  16.996   0.959  0.00  0.00    +0.152 HD
ATOM      4  O   UNL     1      27.469  18.430  -0.234  0.00  0.00    -0.226 OA
ENDROOT
BRANCH   1   5
ATOM      5  O   UNL     1      27.836  17.120  -2.024  0.00  0.00    -0.450 OA
BRANCH   5   6
ATOM      6  C   UNL     1      26.958  17.278  -3.114  0.00  0.00    +0.240 C 
BRANCH   6   7
ATOM      7  C   UNL     1      26.574  16.014  -3.906  0.00  0.00    +0.100 C 
BRANCH   7   9
ATOM      8  N   UNL     1      25.332  14.712  -2.206  0.00  0.00    -0.134 NA
ATOM      9  C   UNL     1      25.332  15.428  -3.367  0.00  0.00    +0.086 A 
ATOM     10  C   UNL     1      24.050  15.486  -3.859  0.00  0.00    +0.139 A 
ATOM     11  N   UNL     1      23.283  14.810  -2.937  0.00  0.00    -0.220 N 
ATOM     12  N   UNL     1      24.087  14.332  -1.955  0.00  0.00    -0.061 NA
BRANCH  11  13
ATOM     13  C   UNL     1      21.875  14.634  -2.917  0.00  0.00    +0.067 A 
ATOM     14  C   UNL     1      21.074  15.142  -3.948  0.00  0.00    +0.028 A 
ATOM     15  C   UNL     1      19.682  15.022  -3.878  0.00  0.00    +0.005 A 
ATOM     16  C   UNL     1      19.074  14.397  -2.785  0.00  0.00    -0.050 A 
ATOM     17  C   UNL     1      19.879  13.859  -1.774  0.00  0.00    +0.005 A 
ATOM     18  C   UNL     1      17.580  14.309  -2.684  0.00  0.00    +0.044 C 
ATOM     19  C   UNL     1      21.272  13.975  -1.837  0.00  0.00    +0.028 A 
ENDBRANCH  11  13
ENDBRANCH   7   9
ENDBRANCH   6   7
ENDBRANCH   5   6
ENDBRANCH   1   5
BRANCH   2  20
ATOM     20  C   UNL     1      29.108  15.148   0.167  0.00  0.00    +0.152 C 
BRANCH  20  21
ATOM     21  C   UNL     1      30.471  14.915  -0.516  0.00  0.00    +0.193 C 
ATOM     22  O   UNL     1      31.158  16.187  -0.519  0.00  0.00    -0.219 OA
BRANCH  21  23
ATOM     23  C   UNL     1      31.459  13.946   0.171  0.00  0.00    +0.212 C 
ATOM     24  O   UNL     1      30.807  12.704   0.484  0.00  0.00    -0.218 OA
BRANCH  23  25
ATOM     25  C   UNL     1      32.738  13.638  -0.698  0.00  0.00    +0.171 C 
ATOM     26  O   UNL     1      32.429  12.937  -1.898  0.00  0.00    -0.343 OA
ATOM     27  C   UNL     1      33.379  12.331  -2.723  0.00  0.00    +0.220 C 
ATOM     28  C   UNL     1      34.328  11.419  -1.926  0.00  0.00    +0.076 C 
ATOM     29  C   UNL     1      34.910  12.253  -0.773  0.00  0.00    +0.177 C 
ATOM     30  O   UNL     1      35.828  11.467  -0.025  0.00  0.00    -0.221 OA
ATOM     31  C   UNL     1      33.760  12.795   0.132  0.00  0.00    +0.155 C 
BRANCH  31  32
ATOM     32  N   UNL     1      34.310  13.582   1.233  0.00  0.00    -0.202 NA
ATOM     33  C   UNL     1      34.152  13.429   2.573  0.00  0.00    +0.242 C 
ATOM     34  C   UNL     1      35.065  14.197   3.493  0.00  0.00    +0.096 C 
ATOM     35  O   UNL     1      33.279  12.676   2.999  0.00  0.00    -0.273 OA
ENDBRANCH  31  32
BRANCH  27  36
ATOM     36  C   UNL     1      34.200  13.385  -3.648  0.00  0.00    +0.391 C 
ATOM     37  O   UNL     1      35.298  12.714  -4.048  0.00  0.00    -0.243 OA
ATOM     38  O   UNL     1      33.353  14.388  -3.906  0.00  0.00    -0.243 OA
ENDBRANCH  27  36
ENDBRANCH  23  25
ENDBRANCH  21  23
ENDBRANCH  20  21
ENDBRANCH   2  20
TORSDOF 11
