REMARK VINA RESULT:    -5.879      1.632      2.028
REMARK INTER + INTRA:         -13.210
REMARK INTER:                 -11.669
REMARK INTRA:                  -1.541
REMARK UNBOUND:                -3.035
REMARK  Name = lig_assembled_22.pdb
REMARK  15 active torsions:
REMARK  status: ('A' for Active; 'I' for Inactive)
REMARK    1  A    between atoms: _2  and  _8
REMARK    2  A    between atoms: _4  and  _8
REMARK    3  A    between atoms: _4  and  _11
REMARK    4  A    between atoms: _5  and  _6
REMARK    5  A    between atoms: _5  and  _13
REMARK    6  A    between atoms: _8  and  _9
REMARK    7  A    between atoms: _8  and  _10
REMARK    8  A    between atoms: _13  and  _15
REMARK    9  A    between atoms: _14  and  _19
REMARK   10  A    between atoms: _15  and  _18
REMARK   11  A    between atoms: _23  and  _33
REMARK   12  A    between atoms: _25  and  _26
REMARK   13  A    between atoms: _27  and  _29
REMARK   14  A    between atoms: _29  and  _31
REMARK   15  A    between atoms: _31  and  _33
REMARK                            x       y       z     vdW  Elec       q    Type
REMARK                         _______ _______ _______ _____ _____    ______ ____
ROOT
ATOM      1  C   UNL     1      27.940  16.903  -1.038  0.00  0.00    +0.400 C 
ATOM      2  N   UNL     1      28.521  16.185  -0.018  0.00  0.00    -0.278 N 
ATOM      3  H   UNL     1      29.007  16.936   0.566  0.00  0.00    +0.152 HD
ATOM      4  O   UNL     1      27.942  18.128  -0.957  0.00  0.00    -0.226 OA
ENDROOT
BRANCH   1   5
ATOM      5  O   UNL     1      27.467  16.203  -2.016  0.00  0.00    -0.450 OA
BRANCH   5   6
ATOM      6  C   UNL     1      26.240  15.970  -2.667  0.00  0.00    +0.240 C 
BRANCH   6   7
ATOM      7  C   UNL     1      25.842  14.506  -2.931  0.00  0.00    +0.100 C 
BRANCH   7   9
ATOM      8  N   UNL     1      23.513  15.244  -2.568  0.00  0.00    -0.134 NA
ATOM      9  C   UNL     1      24.460  14.262  -2.476  0.00  0.00    +0.086 A 
ATOM     10  C   UNL     1      23.888  13.136  -1.926  0.00  0.00    +0.135 A 
ATOM     11  N   UNL     1      22.587  13.494  -1.703  0.00  0.00    -0.235 N 
ATOM     12  N   UNL     1      22.375  14.766  -2.091  0.00  0.00    -0.064 NA
BRANCH  11  13
ATOM     13  C   UNL     1      21.496  12.714  -1.116  0.00  0.00    +0.155 C 
ATOM     14  C   UNL     1      21.910  12.042   0.212  0.00  0.00    +0.048 C 
ATOM     15  C   UNL     1      21.085  11.613  -2.112  0.00  0.00    +0.048 C 
BRANCH  13  16
ATOM     16  C   UNL     1      20.295  13.617  -0.823  0.00  0.00    +0.332 C 
ATOM     17  O   UNL     1      19.956  13.967   0.301  0.00  0.00    -0.248 OA
BRANCH  16  18
ATOM     18  O   UNL     1      19.600  14.029  -1.910  0.00  0.00    -0.479 OA
ATOM     19  H   UNL     1      18.746  13.582  -2.075  0.00  0.00    +0.295 HD
ENDBRANCH  16  18
ENDBRANCH  13  16
ENDBRANCH  11  13
ENDBRANCH   7   9
ENDBRANCH   6   7
ENDBRANCH   5   6
ENDBRANCH   1   5
BRANCH   2  20
ATOM     20  C   UNL     1      28.753  14.890   0.616  0.00  0.00    +0.152 C 
BRANCH  20  21
ATOM     21  C   UNL     1      30.092  14.201   0.283  0.00  0.00    +0.193 C 
ATOM     22  O   UNL     1      30.157  14.093  -1.156  0.00  0.00    -0.219 OA
BRANCH  21  23
ATOM     23  C   UNL     1      31.392  14.937   0.673  0.00  0.00    +0.212 C 
ATOM     24  O   UNL     1      31.088  16.165   1.354  0.00  0.00    -0.218 OA
BRANCH  23  25
ATOM     25  C   UNL     1      32.347  14.077   1.587  0.00  0.00    +0.171 C 
ATOM     26  O   UNL     1      32.666  14.730   2.812  0.00  0.00    -0.343 OA
ATOM     27  C   UNL     1      33.670  14.312   3.689  0.00  0.00    +0.220 C 
ATOM     28  C   UNL     1      35.007  14.089   2.961  0.00  0.00    +0.076 C 
ATOM     29  C   UNL     1      34.739  13.137   1.783  0.00  0.00    +0.177 C 
ATOM     30  O   UNL     1      35.953  12.865   1.098  0.00  0.00    -0.221 OA
ATOM     31  C   UNL     1      33.673  13.755   0.825  0.00  0.00    +0.155 C 
BRANCH  31  32
ATOM     32  N   UNL     1      33.421  12.857  -0.299  0.00  0.00    -0.202 NA
ATOM     33  C   UNL     1      33.524  13.086  -1.633  0.00  0.00    +0.242 C 
ATOM     34  C   UNL     1      33.492  11.904  -2.567  0.00  0.00    +0.096 C 
ATOM     35  O   UNL     1      33.642  14.239  -2.044  0.00  0.00    -0.273 OA
ENDBRANCH  31  32
BRANCH  27  36
ATOM     36  C   UNL     1      33.253  13.020   4.581  0.00  0.00    +0.391 C 
ATOM     37  O   UNL     1      31.961  12.791   4.279  0.00  0.00    -0.243 OA
ATOM     38  O   UNL     1      34.400  12.498   5.035  0.00  0.00    -0.243 OA
ENDBRANCH  27  36
ENDBRANCH  23  25
ENDBRANCH  21  23
ENDBRANCH  20  21
ENDBRANCH   2  20
TORSDOF 13
