REMARK VINA RESULT:    -7.553      1.710      2.989
REMARK INTER + INTRA:         -14.771
REMARK INTER:                 -13.194
REMARK INTRA:                  -1.577
REMARK UNBOUND:                -1.919
REMARK  Name = lig_assembled_41.pdb
REMARK  13 active torsions:
REMARK  status: ('A' for Active; 'I' for Inactive)
REMARK    1  A    between atoms: _2  and  _8
REMARK    2  A    between atoms: _5  and  _6
REMARK    3  A    between atoms: _5  and  _16
REMARK    4  A    between atoms: _9  and  _10
REMARK    5  A    between atoms: _10  and  _11
REMARK    6  A    between atoms: _16  and  _18
REMARK    7  A    between atoms: _17  and  _22
REMARK    8  A    between atoms: _18  and  _21
REMARK    9  A    between atoms: _26  and  _36
REMARK   10  A    between atoms: _28  and  _29
REMARK   11  A    between atoms: _30  and  _32
REMARK   12  A    between atoms: _32  and  _34
REMARK   13  A    between atoms: _34  and  _36
REMARK                            x       y       z     vdW  Elec       q    Type
REMARK                         _______ _______ _______ _____ _____    ______ ____
ROOT
ATOM      1  C   UNL     1      28.243  17.131  -0.735  0.00  0.00    +0.400 C 
ATOM      2  N   UNL     1      28.998  16.137  -0.157  0.00  0.00    -0.278 N 
ATOM      3  H   UNL     1      29.275  16.554   0.787  0.00  0.00    +0.152 HD
ATOM      4  O   UNL     1      27.924  18.093  -0.041  0.00  0.00    -0.226 OA
ENDROOT
BRANCH   2   5
ATOM      5  C   UNL     1      29.566  14.795  -0.247  0.00  0.00    +0.152 C 
BRANCH   5   6
ATOM      6  C   UNL     1      31.100  14.695  -0.113  0.00  0.00    +0.193 C 
ATOM      7  O   UNL     1      31.646  15.897  -0.700  0.00  0.00    -0.219 OA
BRANCH   6   8
ATOM      8  C   UNL     1      31.693  14.658   1.312  0.00  0.00    +0.212 C 
ATOM      9  O   UNL     1      31.192  15.756   2.093  0.00  0.00    -0.218 OA
BRANCH   8  10
ATOM     10  C   UNL     1      31.389  13.315   2.080  0.00  0.00    +0.171 C 
ATOM     11  O   UNL     1      30.020  13.194   2.452  0.00  0.00    -0.343 OA
ATOM     12  C   UNL     1      29.527  12.236   3.341  0.00  0.00    +0.220 C 
ATOM     13  C   UNL     1      30.332  12.206   4.652  0.00  0.00    +0.076 C 
ATOM     14  C   UNL     1      31.815  12.042   4.281  0.00  0.00    +0.177 C 
ATOM     15  O   UNL     1      32.602  11.969   5.462  0.00  0.00    -0.221 OA
ATOM     16  C   UNL     1      32.274  13.220   3.366  0.00  0.00    +0.155 C 
BRANCH  16  17
ATOM     17  N   UNL     1      33.684  13.071   3.017  0.00  0.00    -0.202 NA
ATOM     18  C   UNL     1      34.774  13.704   3.521  0.00  0.00    +0.242 C 
ATOM     19  C   UNL     1      36.137  13.152   3.193  0.00  0.00    +0.096 C 
ATOM     20  O   UNL     1      34.627  14.699   4.228  0.00  0.00    -0.273 OA
ENDBRANCH  16  17
BRANCH  12  21
ATOM     21  C   UNL     1      29.395  10.754   2.688  0.00  0.00    +0.391 C 
ATOM     22  O   UNL     1      29.236   9.925   3.737  0.00  0.00    -0.243 OA
ATOM     23  O   UNL     1      29.192  10.944   1.378  0.00  0.00    -0.243 OA
ENDBRANCH  12  21
ENDBRANCH   8  10
ENDBRANCH   6   8
ENDBRANCH   5   6
ENDBRANCH   2   5
BRANCH   1  24
ATOM     24  O   UNL     1      27.964  16.966  -1.986  0.00  0.00    -0.450 OA
BRANCH  24  25
ATOM     25  C   UNL     1      27.029  17.413  -2.940  0.00  0.00    +0.240 C 
BRANCH  25  26
ATOM     26  C   UNL     1      26.723  16.480  -4.127  0.00  0.00    +0.100 C 
BRANCH  26  28
ATOM     27  N   UNL     1      25.434  14.413  -4.510  0.00  0.00    -0.134 NA
ATOM     28  C   UNL     1      25.639  15.545  -3.780  0.00  0.00    +0.086 A 
ATOM     29  C   UNL     1      24.722  15.590  -2.753  0.00  0.00    +0.139 A 
ATOM     30  N   UNL     1      23.898  14.508  -2.960  0.00  0.00    -0.219 N 
ATOM     31  N   UNL     1      24.412  13.761  -3.978  0.00  0.00    -0.061 NA
BRANCH  30  32
ATOM     32  C   UNL     1      22.755  14.056  -2.239  0.00  0.00    +0.077 A 
ATOM     33  C   UNL     1      21.445  14.552  -2.415  0.00  0.00    +0.043 A 
ATOM     34  C   UNL     1      20.414  14.048  -1.596  0.00  0.00    +0.013 A 
ATOM     35  C   UNL     1      20.668  13.083  -0.618  0.00  0.00    +0.001 A 
ATOM     36  C   UNL     1      21.950  12.578  -0.462  0.00  0.00    +0.002 A 
ATOM     37  C   UNL     1      22.981  13.051  -1.272  0.00  0.00    +0.028 A 
BRANCH  33  38
ATOM     38  C   UNL     1      21.031  15.426  -3.555  0.00  0.00    +0.162 C 
ATOM     39  O   UNL     1      20.923  16.638  -3.376  0.00  0.00    -0.292 OA
ATOM     40  C   UNL     1      20.753  14.826  -4.912  0.00  0.00    +0.091 C 
ENDBRANCH  33  38
ENDBRANCH  30  32
ENDBRANCH  26  28
ENDBRANCH  25  26
ENDBRANCH  24  25
ENDBRANCH   1  24
TORSDOF 12
