REMARK VINA RESULT:    -8.547      1.453      3.116
REMARK INTER + INTRA:         -15.811
REMARK INTER:                 -14.137
REMARK INTRA:                  -1.674
REMARK UNBOUND:                -1.768
REMARK  Name = lig_assembled_91.pdb
REMARK  11 active torsions:
REMARK  status: ('A' for Active; 'I' for Inactive)
REMARK    1  A    between atoms: _2  and  _9
REMARK    2  A    between atoms: _6  and  _7
REMARK    3  A    between atoms: _6  and  _21
REMARK    4  A    between atoms: _21  and  _23
REMARK    5  A    between atoms: _22  and  _27
REMARK    6  A    between atoms: _23  and  _26
REMARK    7  A    between atoms: _31  and  _41
REMARK    8  A    between atoms: _33  and  _34
REMARK    9  A    between atoms: _35  and  _37
REMARK   10  A    between atoms: _37  and  _39
REMARK   11  A    between atoms: _39  and  _41
REMARK                            x       y       z     vdW  Elec       q    Type
REMARK                         _______ _______ _______ _____ _____    ______ ____
ROOT
ATOM      1  C   UNL     1      28.762  17.025  -0.527  0.00  0.00    +0.400 C 
ATOM      2  N   UNL     1      28.805  15.895   0.256  0.00  0.00    -0.278 N 
ATOM      3  H   UNL     1      29.503  16.151   1.023  0.00  0.00    +0.152 HD
ATOM      4  O   UNL     1      29.322  18.037  -0.113  0.00  0.00    -0.226 OA
ENDROOT
BRANCH   1   5
ATOM      5  O   UNL     1      28.151  16.899  -1.659  0.00  0.00    -0.450 OA
BRANCH   5   6
ATOM      6  C   UNL     1      27.097  17.499  -2.376  0.00  0.00    +0.240 C 
BRANCH   6   7
ATOM      7  C   UNL     1      26.767  16.924  -3.766  0.00  0.00    +0.100 C 
BRANCH   7   9
ATOM      8  N   UNL     1      25.403  15.062  -4.643  0.00  0.00    -0.134 NA
ATOM      9  C   UNL     1      25.613  16.009  -3.687  0.00  0.00    +0.086 A 
ATOM     10  C   UNL     1      24.623  15.906  -2.736  0.00  0.00    +0.139 A 
ATOM     11  N   UNL     1      23.788  14.899  -3.177  0.00  0.00    -0.219 N 
ATOM     12  N   UNL     1      24.304  14.395  -4.328  0.00  0.00    -0.060 NA
BRANCH  11  13
ATOM     13  C   UNL     1      22.574  14.405  -2.606  0.00  0.00    +0.085 A 
ATOM     14  C   UNL     1      22.616  13.417  -1.557  0.00  0.00    +0.026 A 
ATOM     15  C   UNL     1      21.364  12.982  -1.082  0.00  0.00    +0.074 A 
ATOM     16  C   UNL     1      21.276  12.032  -0.076  0.00  0.00    +0.028 A 
ATOM     17  C   UNL     1      22.404  11.472   0.517  0.00  0.00    +0.002 A 
ATOM     18  C   UNL     1      23.653  11.895   0.108  0.00  0.00    +0.001 A 
ATOM     19  N   UNL     1      20.199  13.445  -1.528  0.00  0.00    -0.247 NA
ATOM     20  C   UNL     1      20.165  14.379  -2.478  0.00  0.00    +0.074 A 
ATOM     21  C   UNL     1      18.895  14.789  -2.870  0.00  0.00    +0.028 A 
ATOM     22  C   UNL     1      18.696  15.730  -3.876  0.00  0.00    +0.002 A 
ATOM     23  C   UNL     1      19.795  16.267  -4.517  0.00  0.00    +0.001 A 
ATOM     24  C   UNL     1      21.078  15.861  -4.137  0.00  0.00    +0.012 A 
ATOM     25  C   UNL     1      23.759  12.866  -0.894  0.00  0.00    +0.012 A 
ATOM     26  C   UNL     1      21.312  14.914  -3.087  0.00  0.00    +0.026 A 
ENDBRANCH  11  13
ENDBRANCH   7   9
ENDBRANCH   6   7
ENDBRANCH   5   6
ENDBRANCH   1   5
BRANCH   2  27
ATOM     27  C   UNL     1      28.324  14.539   0.510  0.00  0.00    +0.152 C 
BRANCH  27  28
ATOM     28  C   UNL     1      28.677  13.941   1.888  0.00  0.00    +0.193 C 
ATOM     29  O   UNL     1      27.483  13.289   2.375  0.00  0.00    -0.219 OA
BRANCH  28  30
ATOM     30  C   UNL     1      29.762  12.842   1.933  0.00  0.00    +0.212 C 
ATOM     31  O   UNL     1      29.332  11.681   1.205  0.00  0.00    -0.218 OA
BRANCH  30  32
ATOM     32  C   UNL     1      31.152  13.313   1.357  0.00  0.00    +0.171 C 
ATOM     33  O   UNL     1      31.250  13.130  -0.052  0.00  0.00    -0.343 OA
ATOM     34  C   UNL     1      32.439  13.231  -0.779  0.00  0.00    +0.220 C 
ATOM     35  C   UNL     1      33.562  12.383  -0.157  0.00  0.00    +0.076 C 
ATOM     36  C   UNL     1      33.673  12.778   1.325  0.00  0.00    +0.177 C 
ATOM     37  O   UNL     1      34.726  12.049   1.940  0.00  0.00    -0.221 OA
ATOM     38  C   UNL     1      32.314  12.530   2.051  0.00  0.00    +0.155 C 
BRANCH  38  39
ATOM     39  N   UNL     1      32.418  12.898   3.461  0.00  0.00    -0.202 NA
ATOM     40  C   UNL     1      32.399  12.110   4.566  0.00  0.00    +0.242 C 
ATOM     41  C   UNL     1      32.820  12.713   5.881  0.00  0.00    +0.096 C 
ATOM     42  O   UNL     1      32.044  10.937   4.471  0.00  0.00    -0.273 OA
ENDBRANCH  38  39
BRANCH  34  43
ATOM     43  C   UNL     1      32.917  14.764  -1.027  0.00  0.00    +0.391 C 
ATOM     44  O   UNL     1      31.878  15.522  -0.625  0.00  0.00    -0.243 OA
ATOM     45  O   UNL     1      34.237  14.709  -1.243  0.00  0.00    -0.243 OA
ENDBRANCH  34  43
ENDBRANCH  30  32
ENDBRANCH  28  30
ENDBRANCH  27  28
ENDBRANCH   2  27
TORSDOF 11
