REMARK VINA RESULT:    -6.219      4.002      9.487
REMARK INTER + INTRA:         -13.240
REMARK INTER:                 -10.848
REMARK INTRA:                  -2.392
REMARK UNBOUND:                -1.931
REMARK  Name = lig_assembled_55.pdb
REMARK  15 active torsions:
REMARK  status: ('A' for Active; 'I' for Inactive)
REMARK    1  A    between atoms: _2  and  _9
REMARK    2  A    between atoms: _3  and  _10
REMARK    3  A    between atoms: _3  and  _41
REMARK    4  A    between atoms: _5  and  _41
REMARK    5  A    between atoms: _6  and  _7
REMARK    6  A    between atoms: _6  and  _13
REMARK    7  A    between atoms: _9  and  _10
REMARK    8  A    between atoms: _13  and  _15
REMARK    9  A    between atoms: _14  and  _19
REMARK   10  A    between atoms: _15  and  _18
REMARK   11  A    between atoms: _23  and  _33
REMARK   12  A    between atoms: _25  and  _26
REMARK   13  A    between atoms: _27  and  _29
REMARK   14  A    between atoms: _29  and  _31
REMARK   15  A    between atoms: _31  and  _33
REMARK                            x       y       z     vdW  Elec       q    Type
REMARK                         _______ _______ _______ _____ _____    ______ ____
ROOT
ATOM      1  C   UNL     1      26.002  16.208  -4.443  0.00  0.00    +0.400 C 
ATOM      2  N   UNL     1      24.787  15.754  -3.989  0.00  0.00    -0.278 N 
ATOM      3  H   UNL     1      24.407  15.195  -4.817  0.00  0.00    +0.152 HD
ATOM      4  O   UNL     1      26.426  15.764  -5.507  0.00  0.00    -0.226 OA
ENDROOT
BRANCH   2   5
ATOM      5  C   UNL     1      23.812  15.681  -2.904  0.00  0.00    +0.152 C 
BRANCH   5   6
ATOM      6  C   UNL     1      22.688  14.637  -3.068  0.00  0.00    +0.193 C 
ATOM      7  O   UNL     1      21.740  15.192  -4.006  0.00  0.00    -0.219 OA
BRANCH   6   8
ATOM      8  C   UNL     1      23.069  13.266  -3.670  0.00  0.00    +0.212 C 
ATOM      9  O   UNL     1      23.357  13.395  -5.071  0.00  0.00    -0.218 OA
BRANCH   8  10
ATOM     10  C   UNL     1      24.307  12.595  -2.961  0.00  0.00    +0.171 C 
ATOM     11  O   UNL     1      25.274  12.114  -3.888  0.00  0.00    -0.343 OA
ATOM     12  C   UNL     1      26.337  11.271  -3.552  0.00  0.00    +0.220 C 
ATOM     13  C   UNL     1      25.862  10.046  -2.753  0.00  0.00    +0.076 C 
ATOM     14  C   UNL     1      25.043  10.561  -1.558  0.00  0.00    +0.177 C 
ATOM     15  O   UNL     1      24.612   9.467  -0.761  0.00  0.00    -0.221 OA
ATOM     16  C   UNL     1      23.832  11.407  -2.062  0.00  0.00    +0.155 C 
BRANCH  16  17
ATOM     17  N   UNL     1      23.046  11.893  -0.930  0.00  0.00    -0.202 NA
ATOM     18  C   UNL     1      21.726  11.733  -0.658  0.00  0.00    +0.242 C 
ATOM     19  C   UNL     1      21.233  12.084   0.722  0.00  0.00    +0.096 C 
ATOM     20  O   UNL     1      20.972  11.310  -1.532  0.00  0.00    -0.273 OA
ENDBRANCH  16  17
BRANCH  12  21
ATOM     21  C   UNL     1      27.557  12.037  -2.803  0.00  0.00    +0.391 C 
ATOM     22  O   UNL     1      28.172  11.084  -2.076  0.00  0.00    -0.243 OA
ATOM     23  O   UNL     1      27.677  13.225  -3.409  0.00  0.00    -0.243 OA
ENDBRANCH  12  21
ENDBRANCH   8  10
ENDBRANCH   6   8
ENDBRANCH   5   6
ENDBRANCH   2   5
BRANCH   1  24
ATOM     24  O   UNL     1      26.577  17.101  -3.705  0.00  0.00    -0.450 OA
BRANCH  24  25
ATOM     25  C   UNL     1      27.200  17.206  -2.447  0.00  0.00    +0.240 C 
BRANCH  25  26
ATOM     26  C   UNL     1      27.349  15.917  -1.617  0.00  0.00    +0.100 C 
BRANCH  26  28
ATOM     27  N   UNL     1      29.449  17.019  -0.919  0.00  0.00    -0.134 NA
ATOM     28  C   UNL     1      28.597  15.950  -0.832  0.00  0.00    +0.086 A 
ATOM     29  C   UNL     1      29.117  15.030   0.050  0.00  0.00    +0.133 A 
ATOM     30  N   UNL     1      30.295  15.586   0.450  0.00  0.00    -0.250 N 
ATOM     31  N   UNL     1      30.490  16.783  -0.133  0.00  0.00    -0.065 NA
BRANCH  30  32
ATOM     32  C   UNL     1      31.260  15.060   1.391  0.00  0.00    +0.162 C 
BRANCH  32  33
ATOM     33  C   UNL     1      32.422  14.311   0.730  0.00  0.00    +0.129 C 
BRANCH  33  34
ATOM     34  N   UNL     1      32.778  14.829  -0.623  0.00  0.00    -0.193 NA
ATOM     35  H   UNL     1      33.545  15.509  -0.558  0.00  0.00    +0.148 HD
BRANCH  34  36
ATOM     36  S   UNL     1      33.029  13.669  -1.820  0.00  0.00    +0.027 S 
ATOM     37  O   UNL     1      33.304  14.386  -3.045  0.00  0.00    -0.158 OA
ATOM     38  O   UNL     1      33.957  12.692  -1.295  0.00  0.00    -0.158 OA
ATOM     39  C   UNL     1      31.414  12.938  -1.951  0.00  0.00    +0.214 C 
ENDBRANCH  34  36
ENDBRANCH  33  34
ENDBRANCH  32  33
ENDBRANCH  30  32
ENDBRANCH  26  28
ENDBRANCH  25  26
ENDBRANCH  24  25
ENDBRANCH   1  24
TORSDOF 14
