REMARK VINA RESULT:    -6.412      2.872      5.675
REMARK INTER + INTRA:         -12.862
REMARK INTER:                 -10.226
REMARK INTRA:                  -2.635
REMARK UNBOUND:                -1.952
REMARK  Name = lig_assembled_44.pdb
REMARK  12 active torsions:
REMARK  status: ('A' for Active; 'I' for Inactive)
REMARK    1  A    between atoms: _2  and  _8
REMARK    2  A    between atoms: _5  and  _6
REMARK    3  A    between atoms: _5  and  _14
REMARK    4  A    between atoms: _8  and  _9
REMARK    5  A    between atoms: _14  and  _16
REMARK    6  A    between atoms: _15  and  _20
REMARK    7  A    between atoms: _16  and  _19
REMARK    8  A    between atoms: _24  and  _34
REMARK    9  A    between atoms: _26  and  _27
REMARK   10  A    between atoms: _28  and  _30
REMARK   11  A    between atoms: _30  and  _32
REMARK   12  A    between atoms: _32  and  _34
REMARK                            x       y       z     vdW  Elec       q    Type
REMARK                         _______ _______ _______ _____ _____    ______ ____
ROOT
ATOM      1  C   UNL     1      31.407  15.607  -0.140  0.00  0.00    +0.400 C 
ATOM      2  N   UNL     1      31.539  14.875   1.016  0.00  0.00    -0.278 N 
ATOM      3  H   UNL     1      32.438  14.319   0.855  0.00  0.00    +0.152 HD
ATOM      4  O   UNL     1      32.344  15.611  -0.935  0.00  0.00    -0.226 OA
ENDROOT
BRANCH   2   5
ATOM      5  C   UNL     1      31.024  14.535   2.340  0.00  0.00    +0.152 C 
BRANCH   5   6
ATOM      6  C   UNL     1      30.312  13.172   2.462  0.00  0.00    +0.193 C 
ATOM      7  O   UNL     1      30.090  12.945   3.872  0.00  0.00    -0.219 OA
BRANCH   6   8
ATOM      8  C   UNL     1      28.912  13.036   1.825  0.00  0.00    +0.212 C 
ATOM      9  O   UNL     1      28.328  14.333   1.616  0.00  0.00    -0.218 OA
BRANCH   8  10
ATOM     10  C   UNL     1      28.923  12.262   0.452  0.00  0.00    +0.171 C 
ATOM     11  O   UNL     1      29.330  13.083  -0.637  0.00  0.00    -0.343 OA
ATOM     12  C   UNL     1      29.199  12.731  -1.983  0.00  0.00    +0.220 C 
ATOM     13  C   UNL     1      27.773  12.258  -2.312  0.00  0.00    +0.076 C 
ATOM     14  C   UNL     1      27.412  11.146  -1.313  0.00  0.00    +0.177 C 
ATOM     15  O   UNL     1      26.114  10.645  -1.599  0.00  0.00    -0.221 OA
ATOM     16  C   UNL     1      27.501  11.686   0.148  0.00  0.00    +0.155 C 
BRANCH  16  17
ATOM     17  N   UNL     1      27.152  10.635   1.100  0.00  0.00    -0.202 NA
ATOM     18  C   UNL     1      26.196  10.619   2.063  0.00  0.00    +0.242 C 
ATOM     19  C   UNL     1      25.852   9.301   2.707  0.00  0.00    +0.096 C 
ATOM     20  O   UNL     1      25.638  11.667   2.383  0.00  0.00    -0.273 OA
ENDBRANCH  16  17
BRANCH  12  21
ATOM     21  C   UNL     1      30.314  11.659  -2.482  0.00  0.00    +0.391 C 
ATOM     22  O   UNL     1      29.980  11.380  -3.757  0.00  0.00    -0.243 OA
ATOM     23  O   UNL     1      31.291  11.689  -1.568  0.00  0.00    -0.243 OA
ENDBRANCH  12  21
ENDBRANCH   8  10
ENDBRANCH   6   8
ENDBRANCH   5   6
ENDBRANCH   2   5
BRANCH   1  24
ATOM     24  O   UNL     1      30.273  16.208  -0.295  0.00  0.00    -0.450 OA
BRANCH  24  25
ATOM     25  C   UNL     1      29.770  17.513  -0.468  0.00  0.00    +0.240 C 
BRANCH  25  26
ATOM     26  C   UNL     1      28.251  17.715  -0.314  0.00  0.00    +0.100 C 
BRANCH  26  28
ATOM     27  N   UNL     1      27.153  18.078  -2.506  0.00  0.00    -0.134 NA
ATOM     28  C   UNL     1      27.541  17.221  -1.510  0.00  0.00    +0.086 A 
ATOM     29  C   UNL     1      27.178  15.940  -1.850  0.00  0.00    +0.134 A 
ATOM     30  N   UNL     1      26.644  16.071  -3.098  0.00  0.00    -0.247 N 
ATOM     31  N   UNL     1      26.592  17.362  -3.472  0.00  0.00    -0.065 NA
BRANCH  30  32
ATOM     32  C   UNL     1      26.165  15.027  -3.984  0.00  0.00    +0.180 C 
BRANCH  32  33
ATOM     33  C   UNL     1      24.779  14.567  -3.598  0.00  0.00    -0.026 A 
ATOM     34  C   UNL     1      23.714  14.662  -4.507  0.00  0.00    +0.006 A 
ATOM     35  C   UNL     1      22.431  14.250  -4.141  0.00  0.00    +0.015 A 
ATOM     36  C   UNL     1      22.205  13.740  -2.864  0.00  0.00    +0.018 A 
ATOM     37 BR   UNL     1      20.471  13.166  -2.376  0.00  0.00    -0.050 Br
ATOM     38  C   UNL     1      23.248  13.650  -1.945  0.00  0.00    +0.015 A 
ATOM     39  C   UNL     1      24.531  14.068  -2.309  0.00  0.00    +0.006 A 
ENDBRANCH  32  33
ENDBRANCH  30  32
ENDBRANCH  26  28
ENDBRANCH  25  26
ENDBRANCH  24  25
ENDBRANCH   1  24
TORSDOF 12
