REMARK VINA RESULT:    -6.992      2.329      3.722
REMARK INTER + INTRA:         -14.510
REMARK INTER:                 -12.483
REMARK INTRA:                  -2.027
REMARK UNBOUND:                -1.794
REMARK  Name = lig_assembled_18.pdb
REMARK  14 active torsions:
REMARK  status: ('A' for Active; 'I' for Inactive)
REMARK    1  A    between atoms: _2  and  _9
REMARK    2  A    between atoms: _3  and  _11
REMARK    3  A    between atoms: _6  and  _7
REMARK    4  A    between atoms: _6  and  _16
REMARK    5  A    between atoms: _9  and  _10
REMARK    6  A    between atoms: _11  and  _12
REMARK    7  A    between atoms: _16  and  _18
REMARK    8  A    between atoms: _17  and  _22
REMARK    9  A    between atoms: _18  and  _21
REMARK   10  A    between atoms: _26  and  _36
REMARK   11  A    between atoms: _28  and  _29
REMARK   12  A    between atoms: _30  and  _32
REMARK   13  A    between atoms: _32  and  _34
REMARK   14  A    between atoms: _34  and  _36
REMARK                            x       y       z     vdW  Elec       q    Type
REMARK                         _______ _______ _______ _____ _____    ______ ____
ROOT
ATOM      1  C   UNL     1      29.176  14.855  -0.049  0.00  0.00    +0.400 C 
ATOM      2  N   UNL     1      29.963  13.894  -0.639  0.00  0.00    -0.278 N 
ATOM      3  H   UNL     1      30.217  13.248   0.174  0.00  0.00    +0.152 HD
ATOM      4  O   UNL     1      28.816  14.676   1.112  0.00  0.00    -0.226 OA
ENDROOT
BRANCH   2   5
ATOM      5  C   UNL     1      30.581  13.364  -1.852  0.00  0.00    +0.152 C 
BRANCH   5   6
ATOM      6  C   UNL     1      32.111  13.174  -1.808  0.00  0.00    +0.193 C 
ATOM      7  O   UNL     1      32.601  13.441  -3.140  0.00  0.00    -0.219 OA
BRANCH   6   8
ATOM      8  C   UNL     1      32.924  14.123  -0.900  0.00  0.00    +0.212 C 
ATOM      9  O   UNL     1      32.313  15.423  -0.859  0.00  0.00    -0.218 OA
BRANCH   8  10
ATOM     10  C   UNL     1      33.081  13.593   0.576  0.00  0.00    +0.171 C 
ATOM     11  O   UNL     1      32.365  14.383   1.521  0.00  0.00    -0.343 OA
ATOM     12  C   UNL     1      32.522  14.290   2.906  0.00  0.00    +0.220 C 
ATOM     13  C   UNL     1      34.002  14.364   3.318  0.00  0.00    +0.076 C 
ATOM     14  C   UNL     1      34.763  13.301   2.508  0.00  0.00    +0.177 C 
ATOM     15  O   UNL     1      36.133  13.300   2.881  0.00  0.00    -0.221 OA
ATOM     16  C   UNL     1      34.591  13.566   0.980  0.00  0.00    +0.155 C 
BRANCH  16  17
ATOM     17  N   UNL     1      35.318  12.562   0.206  0.00  0.00    -0.202 NA
ATOM     18  C   UNL     1      36.282  12.723  -0.736  0.00  0.00    +0.242 C 
ATOM     19  C   UNL     1      37.072  11.514  -1.164  0.00  0.00    +0.096 C 
ATOM     20  O   UNL     1      36.487  13.838  -1.211  0.00  0.00    -0.273 OA
ENDBRANCH  16  17
BRANCH  12  21
ATOM     21  C   UNL     1      31.785  12.995   3.555  0.00  0.00    +0.391 C 
ATOM     22  O   UNL     1      32.408  12.796   4.732  0.00  0.00    -0.243 OA
ATOM     23  O   UNL     1      30.670  12.808   2.839  0.00  0.00    -0.243 OA
ENDBRANCH  12  21
ENDBRANCH   8  10
ENDBRANCH   6   8
ENDBRANCH   5   6
ENDBRANCH   2   5
BRANCH   1  24
ATOM     24  O   UNL     1      28.912  15.888  -0.780  0.00  0.00    -0.450 OA
BRANCH  24  25
ATOM     25  C   UNL     1      28.813  17.288  -0.654  0.00  0.00    +0.240 C 
BRANCH  25  26
ATOM     26  C   UNL     1      27.641  17.984  -1.371  0.00  0.00    +0.100 C 
BRANCH  26  28
ATOM     27  N   UNL     1      26.337  15.938  -1.882  0.00  0.00    -0.134 NA
ATOM     28  C   UNL     1      26.997  17.057  -2.320  0.00  0.00    +0.086 A 
ATOM     29  C   UNL     1      26.930  17.107  -3.694  0.00  0.00    +0.134 A 
ATOM     30  N   UNL     1      26.194  16.011  -4.031  0.00  0.00    -0.243 N 
ATOM     31  N   UNL     1      25.857  15.298  -2.941  0.00  0.00    -0.065 NA
BRANCH  30  32
ATOM     32  C   UNL     1      25.872  15.510  -5.347  0.00  0.00    +0.240 C 
BRANCH  32  33
ATOM     33  C   UNL     1      24.681  14.582  -5.330  0.00  0.00    +0.235 C 
ATOM     34  O   UNL     1      24.765  13.399  -5.658  0.00  0.00    -0.274 OA
ATOM     35  N   UNL     1      23.507  15.142  -4.865  0.00  0.00    -0.309 N 
ATOM     36  H   UNL     1      23.427  16.144  -4.762  0.00  0.00    +0.149 HD
BRANCH  35  37
ATOM     37  C   UNL     1      22.284  14.370  -4.776  0.00  0.00    +0.146 C 
BRANCH  37  38
ATOM     38  C   UNL     1      21.997  14.047  -3.346  0.00  0.00    +0.007 A 
ATOM     39  S   UNL     1      22.868  12.813  -2.536  0.00  0.00    -0.100 S 
ATOM     40  C   UNL     1      21.959  13.023  -1.102  0.00  0.00    +0.045 A 
ATOM     41  C   UNL     1      21.019  14.023  -1.226  0.00  0.00    +0.008 A 
ATOM     42  C   UNL     1      21.046  14.619  -2.520  0.00  0.00    +0.013 A 
ENDBRANCH  37  38
ENDBRANCH  35  37
ENDBRANCH  32  33
ENDBRANCH  30  32
ENDBRANCH  26  28
ENDBRANCH  25  26
ENDBRANCH  24  25
ENDBRANCH   1  24
TORSDOF 14
