REMARK VINA RESULT:    -6.676     23.934     27.240
REMARK INTER + INTRA:         -16.241
REMARK INTER:                 -13.199
REMARK INTRA:                  -3.042
REMARK UNBOUND:                -3.125
REMARK  Name = lig_assembled_47.pdb
REMARK  17 active torsions:
REMARK  status: ('A' for Active; 'I' for Inactive)
REMARK    1  A    between atoms: _2  and  _8
REMARK    2  A    between atoms: _5  and  _6
REMARK    3  A    between atoms: _5  and  _25
REMARK    4  A    between atoms: _8  and  _9
REMARK    5  A    between atoms: _9  and  _10
REMARK    6  A    between atoms: _9  and  _11
REMARK    7  A    between atoms: _10  and  _23
REMARK    8  A    between atoms: _11  and  _12
REMARK    9  A    between atoms: _11  and  _18
REMARK   10  A    between atoms: _25  and  _27
REMARK   11  A    between atoms: _26  and  _31
REMARK   12  A    between atoms: _27  and  _30
REMARK   13  A    between atoms: _35  and  _45
REMARK   14  A    between atoms: _37  and  _38
REMARK   15  A    between atoms: _39  and  _41
REMARK   16  A    between atoms: _41  and  _43
REMARK   17  A    between atoms: _43  and  _45
REMARK                            x       y       z     vdW  Elec       q    Type
REMARK                         _______ _______ _______ _____ _____    ______ ____
ROOT
ATOM      1  C   UNL     1      32.378  41.624   8.628  0.00  0.00    +0.100 C 
ENDROOT
BRANCH   1   3
ATOM      2  N   UNL     1      31.299  39.753   9.854  0.00  0.00    -0.134 NA
ATOM      3  C   UNL     1      31.523  40.421   8.678  0.00  0.00    +0.086 A 
ATOM      4  C   UNL     1      30.864  39.765   7.661  0.00  0.00    +0.133 A 
ATOM      5  N   UNL     1      30.302  38.684   8.274  0.00  0.00    -0.251 N 
ATOM      6  N   UNL     1      30.548  38.691   9.594  0.00  0.00    -0.065 NA
BRANCH   5   7
ATOM      7  C   UNL     1      29.657  37.537   7.653  0.00  0.00    +0.160 C 
BRANCH   7   8
ATOM      8  C   UNL     1      28.306  37.859   7.007  0.00  0.00    +0.131 C 
BRANCH   8   9
ATOM      9  C   UNL     1      28.507  37.855   5.498  0.00  0.00    +0.311 C 
ATOM     10  O   UNL     1      29.591  38.050   4.973  0.00  0.00    -0.251 OA
BRANCH   9  11
ATOM     11  O   UNL     1      27.442  37.512   4.743  0.00  0.00    -0.480 OA
ATOM     12  H   UNL     1      26.928  36.725   4.989  0.00  0.00    +0.295 HD
ENDBRANCH   9  11
ENDBRANCH   8   9
BRANCH   8  13
ATOM     13  C   UNL     1      27.135  36.923   7.442  0.00  0.00    +0.064 C 
BRANCH  13  14
ATOM     14  C   UNL     1      27.428  35.997   8.624  0.00  0.00    -0.039 A 
ATOM     15  C   UNL     1      27.494  36.528   9.928  0.00  0.00    +0.004 A 
ATOM     16  C   UNL     1      27.761  35.709  11.030  0.00  0.00    +0.000 A 
ATOM     17  C   UNL     1      27.983  34.348  10.851  0.00  0.00    +0.000 A 
ATOM     18  C   UNL     1      27.942  33.808   9.569  0.00  0.00    +0.000 A 
ATOM     19  C   UNL     1      27.658  34.622   8.468  0.00  0.00    +0.004 A 
ENDBRANCH  13  14
BRANCH  13  20
ATOM     20  C   UNL     1      25.846  37.736   7.625  0.00  0.00    -0.039 A 
ATOM     21  C   UNL     1      24.624  37.087   7.866  0.00  0.00    +0.004 A 
ATOM     22  C   UNL     1      23.425  37.807   7.863  0.00  0.00    +0.000 A 
ATOM     23  C   UNL     1      23.432  39.183   7.645  0.00  0.00    +0.000 A 
ATOM     24  C   UNL     1      24.637  39.846   7.445  0.00  0.00    +0.000 A 
ATOM     25  C   UNL     1      25.832  39.129   7.436  0.00  0.00    +0.004 A 
ENDBRANCH  13  20
ENDBRANCH   8  13
ENDBRANCH   7   8
ENDBRANCH   5   7
ENDBRANCH   1   3
BRANCH   1  26
ATOM     26  C   UNL     1      33.871  41.242   8.639  0.00  0.00    +0.240 C 
BRANCH  26  27
ATOM     27  O   UNL     1      34.245  40.066   7.959  0.00  0.00    -0.450 OA
BRANCH  27  28
ATOM     28  C   UNL     1      34.978  39.705   6.957  0.00  0.00    +0.400 C 
ATOM     29  N   UNL     1      34.431  39.913   5.713  0.00  0.00    -0.278 N 
ATOM     30  H   UNL     1      35.251  39.739   5.050  0.00  0.00    +0.152 HD
ATOM     31  O   UNL     1      36.109  39.229   7.020  0.00  0.00    -0.226 OA
BRANCH  29  32
ATOM     32  C   UNL     1      33.256  40.243   4.910  0.00  0.00    +0.152 C 
BRANCH  32  33
ATOM     33  C   UNL     1      33.438  40.173   3.380  0.00  0.00    +0.193 C 
ATOM     34  O   UNL     1      32.362  40.942   2.798  0.00  0.00    -0.219 OA
BRANCH  33  35
ATOM     35  C   UNL     1      34.721  40.792   2.783  0.00  0.00    +0.212 C 
ATOM     36  O   UNL     1      35.232  41.819   3.648  0.00  0.00    -0.218 OA
BRANCH  35  37
ATOM     37  C   UNL     1      35.862  39.736   2.526  0.00  0.00    +0.171 C 
ATOM     38  O   UNL     1      36.814  39.689   3.584  0.00  0.00    -0.343 OA
ATOM     39  C   UNL     1      38.043  39.031   3.510  0.00  0.00    +0.220 C 
ATOM     40  C   UNL     1      38.827  39.426   2.246  0.00  0.00    +0.076 C 
ATOM     41  C   UNL     1      37.900  39.205   1.039  0.00  0.00    +0.177 C 
ATOM     42  O   UNL     1      38.591  39.518  -0.162  0.00  0.00    -0.221 OA
ATOM     43  C   UNL     1      36.607  40.064   1.190  0.00  0.00    +0.155 C 
BRANCH  43  44
ATOM     44  N   UNL     1      35.727  39.862   0.042  0.00  0.00    -0.202 NA
ATOM     45  C   UNL     1      35.211  40.769  -0.826  0.00  0.00    +0.242 C 
ATOM     46  C   UNL     1      34.574  40.263  -2.094  0.00  0.00    +0.096 C 
ATOM     47  O   UNL     1      35.277  41.968  -0.563  0.00  0.00    -0.273 OA
ENDBRANCH  43  44
BRANCH  39  48
ATOM     48  C   UNL     1      37.923  37.417   3.658  0.00  0.00    +0.391 C 
ATOM     49  O   UNL     1      39.081  36.936   3.165  0.00  0.00    -0.243 OA
ATOM     50  O   UNL     1      36.881  37.197   4.469  0.00  0.00    -0.243 OA
ENDBRANCH  39  48
ENDBRANCH  35  37
ENDBRANCH  33  35
ENDBRANCH  32  33
ENDBRANCH  29  32
ENDBRANCH  27  28
ENDBRANCH  26  27
ENDBRANCH   1  26
TORSDOF 17
