REMARK VINA RESULT:    -8.004      1.047      3.071
REMARK INTER + INTRA:         -15.122
REMARK INTER:                 -13.377
REMARK INTRA:                  -1.745
REMARK UNBOUND:                -1.503
REMARK  Name = lig_assembled_89.pdb
REMARK  14 active torsions:
REMARK  status: ('A' for Active; 'I' for Inactive)
REMARK    1  A    between atoms: _2  and  _11
REMARK    2  A    between atoms: _5  and  _19
REMARK    3  A    between atoms: _8  and  _9
REMARK    4  A    between atoms: _8  and  _24
REMARK    5  A    between atoms: _19  and  _20
REMARK    6  A    between atoms: _19  and  _21
REMARK    7  A    between atoms: _24  and  _26
REMARK    8  A    between atoms: _25  and  _30
REMARK    9  A    between atoms: _26  and  _29
REMARK   10  A    between atoms: _34  and  _44
REMARK   11  A    between atoms: _36  and  _37
REMARK   12  A    between atoms: _38  and  _40
REMARK   13  A    between atoms: _40  and  _42
REMARK   14  A    between atoms: _42  and  _44
REMARK                            x       y       z     vdW  Elec       q    Type
REMARK                         _______ _______ _______ _____ _____    ______ ____
ROOT
ATOM      1  C   UNL     1      26.797  17.658  -2.993  0.00  0.00    +0.240 C 
ENDROOT
BRANCH   1   2
ATOM      2  C   UNL     1      26.673  16.700  -4.193  0.00  0.00    +0.100 C 
BRANCH   2   4
ATOM      3  N   UNL     1      25.291  14.766  -4.849  0.00  0.00    -0.134 NA
ATOM      4  C   UNL     1      25.742  15.604  -3.873  0.00  0.00    +0.087 A 
ATOM      5  C   UNL     1      25.207  15.217  -2.668  0.00  0.00    +0.141 A 
ATOM      6  N   UNL     1      24.442  14.102  -2.953  0.00  0.00    -0.200 N 
ATOM      7  N   UNL     1      24.512  13.856  -4.282  0.00  0.00    -0.059 NA
BRANCH   6   8
ATOM      8  C   UNL     1      23.770  13.287  -1.995  0.00  0.00    +0.186 A 
ATOM      9  C   UNL     1      24.284  12.564  -0.937  0.00  0.00    +0.158 A 
ATOM     10  C   UNL     1      25.616  12.267  -0.509  0.00  0.00    +0.280 A 
ATOM     11  O   UNL     1      26.580  12.354  -1.257  0.00  0.00    -0.265 OA
ATOM     12  N   UNL     1      25.735  11.834   0.827  0.00  0.00    -0.302 N 
ATOM     13  C   UNL     1      24.587  11.295   1.521  0.00  0.00    +0.069 A 
ATOM     14  C   UNL     1      24.692  10.600   2.735  0.00  0.00    +0.028 A 
ATOM     15  C   UNL     1      23.563  10.046   3.355  0.00  0.00    +0.002 A 
ATOM     16  C   UNL     1      22.304  10.184   2.782  0.00  0.00    +0.002 A 
ATOM     17  C   UNL     1      22.161  10.878   1.584  0.00  0.00    +0.028 A 
ATOM     18  C   UNL     1      23.296  11.418   0.961  0.00  0.00    +0.072 A 
ATOM     19  N   UNL     1      23.188  12.117  -0.252  0.00  0.00    -0.291 N 
ATOM     20  C   UNL     1      22.078  12.484  -0.969  0.00  0.00    +0.207 A 
ATOM     21  N   UNL     1      22.392  13.204  -2.025  0.00  0.00    -0.216 NA
BRANCH  12  22
ATOM     22  C   UNL     1      27.095  11.757   1.413  0.00  0.00    +0.085 C 
ATOM     23  C   UNL     1      27.612  10.317   1.591  0.00  0.00    +0.030 C 
ATOM     24  C   UNL     1      27.189  12.527   2.730  0.00  0.00    +0.030 C 
ENDBRANCH  12  22
ENDBRANCH   6   8
ENDBRANCH   2   4
ENDBRANCH   1   2
BRANCH   1  25
ATOM     25  O   UNL     1      27.629  17.261  -1.927  0.00  0.00    -0.450 OA
BRANCH  25  26
ATOM     26  C   UNL     1      27.761  17.468  -0.658  0.00  0.00    +0.400 C 
ATOM     27  N   UNL     1      28.349  16.449   0.053  0.00  0.00    -0.278 N 
ATOM     28  H   UNL     1      28.539  16.891   1.007  0.00  0.00    +0.152 HD
ATOM     29  O   UNL     1      27.440  18.487  -0.052  0.00  0.00    -0.226 OA
BRANCH  27  30
ATOM     30  C   UNL     1      28.807  15.062   0.092  0.00  0.00    +0.152 C 
BRANCH  30  31
ATOM     31  C   UNL     1      30.211  14.793  -0.487  0.00  0.00    +0.193 C 
ATOM     32  O   UNL     1      30.889  16.068  -0.542  0.00  0.00    -0.219 OA
BRANCH  31  33
ATOM     33  C   UNL     1      31.160  13.887   0.328  0.00  0.00    +0.212 C 
ATOM     34  O   UNL     1      30.512  12.647   0.654  0.00  0.00    -0.218 OA
BRANCH  33  35
ATOM     35  C   UNL     1      32.513  13.570  -0.416  0.00  0.00    +0.171 C 
ATOM     36  O   UNL     1      32.320  12.797  -1.597  0.00  0.00    -0.343 OA
ATOM     37  C   UNL     1      33.349  12.175  -2.308  0.00  0.00    +0.220 C 
ATOM     38  C   UNL     1      34.250  11.334  -1.388  0.00  0.00    +0.076 C 
ATOM     39  C   UNL     1      34.716  12.243  -0.239  0.00  0.00    +0.177 C 
ATOM     40  O   UNL     1      35.587  11.524   0.622  0.00  0.00    -0.221 OA
ATOM     41  C   UNL     1      33.483  12.801   0.539  0.00  0.00    +0.155 C 
BRANCH  41  42
ATOM     42  N   UNL     1      33.922  13.660   1.636  0.00  0.00    -0.202 NA
ATOM     43  C   UNL     1      33.701  13.545   2.970  0.00  0.00    +0.242 C 
ATOM     44  C   UNL     1      34.513  14.402   3.906  0.00  0.00    +0.096 C 
ATOM     45  O   UNL     1      32.855  12.753   3.380  0.00  0.00    -0.273 OA
ENDBRANCH  41  42
BRANCH  37  46
ATOM     46  C   UNL     1      34.218  13.201  -3.220  0.00  0.00    +0.391 C 
ATOM     47  O   UNL     1      35.333  12.518  -3.544  0.00  0.00    -0.243 OA
ATOM     48  O   UNL     1      33.387  14.197  -3.550  0.00  0.00    -0.243 OA
ENDBRANCH  37  46
ENDBRANCH  33  35
ENDBRANCH  31  33
ENDBRANCH  30  31
ENDBRANCH  27  30
ENDBRANCH  25  26
ENDBRANCH   1  25
TORSDOF 12
