REMARK VINA RESULT:    -5.728     21.971     25.785
REMARK INTER + INTRA:         -14.211
REMARK INTER:                 -11.254
REMARK INTRA:                  -2.957
REMARK UNBOUND:                -2.957
REMARK  Name = lig_assembled_74.pdb
REMARK  19 active torsions:
REMARK  status: ('A' for Active; 'I' for Inactive)
REMARK    1  A    between atoms: _2  and  _8
REMARK    2  A    between atoms: _4  and  _13
REMARK    3  A    between atoms: _5  and  _6
REMARK    4  A    between atoms: _5  and  _17
REMARK    5  A    between atoms: _8  and  _9
REMARK    6  A    between atoms: _9  and  _10
REMARK    7  A    between atoms: _9  and  _12
REMARK    8  A    between atoms: _10  and  _11
REMARK    9  A    between atoms: _11  and  _15
REMARK   10  A    between atoms: _12  and  _13
REMARK   11  A    between atoms: _13  and  _14
REMARK   12  A    between atoms: _17  and  _19
REMARK   13  A    between atoms: _18  and  _23
REMARK   14  A    between atoms: _19  and  _22
REMARK   15  A    between atoms: _27  and  _37
REMARK   16  A    between atoms: _29  and  _30
REMARK   17  A    between atoms: _31  and  _33
REMARK   18  A    between atoms: _33  and  _35
REMARK   19  A    between atoms: _35  and  _37
REMARK                            x       y       z     vdW  Elec       q    Type
REMARK                         _______ _______ _______ _____ _____    ______ ____
ROOT
ATOM      1  C   UNL     1      44.991  26.534  11.162  0.00  0.00    +0.400 C 
ATOM      2  N   UNL     1      45.651  25.891  10.141  0.00  0.00    -0.278 N 
ATOM      3  H   UNL     1      44.964  25.953   9.325  0.00  0.00    +0.152 HD
ATOM      4  O   UNL     1      43.958  27.141  10.892  0.00  0.00    -0.226 OA
ENDROOT
BRANCH   1   5
ATOM      5  O   UNL     1      45.517  26.408  12.336  0.00  0.00    -0.450 OA
BRANCH   5   6
ATOM      6  C   UNL     1      46.378  27.111  13.202  0.00  0.00    +0.240 C 
BRANCH   6   7
ATOM      7  C   UNL     1      46.896  26.366  14.447  0.00  0.00    +0.100 C 
BRANCH   7   9
ATOM      8  N   UNL     1      45.246  27.806  15.618  0.00  0.00    -0.134 NA
ATOM      9  C   UNL     1      46.131  26.761  15.646  0.00  0.00    +0.086 A 
ATOM     10  C   UNL     1      46.084  26.166  16.888  0.00  0.00    +0.133 A 
ATOM     11  N   UNL     1      45.025  26.779  17.497  0.00  0.00    -0.251 N 
ATOM     12  N   UNL     1      44.590  27.825  16.770  0.00  0.00    -0.065 NA
BRANCH  11  13
ATOM     13  C   UNL     1      44.202  26.239  18.562  0.00  0.00    +0.149 C 
BRANCH  13  14
ATOM     14  C   UNL     1      44.836  25.091  19.378  0.00  0.00    +0.021 C 
BRANCH  14  15
ATOM     15  C   UNL     1      44.063  23.761  19.268  0.00  0.00    +0.125 C 
BRANCH  15  16
ATOM     16  C   UNL     1      44.785  22.668  18.509  0.00  0.00    +0.305 C 
ATOM     17  O   UNL     1      45.250  21.658  19.012  0.00  0.00    -0.251 OA
BRANCH  16  18
ATOM     18  O   UNL     1      44.814  22.881  17.181  0.00  0.00    -0.481 OA
ATOM     19  H   UNL     1      43.970  23.159  16.782  0.00  0.00    +0.295 HD
ENDBRANCH  16  18
ENDBRANCH  15  16
ENDBRANCH  14  15
BRANCH  14  20
ATOM     20  C   UNL     1      45.033  25.561  20.848  0.00  0.00    +0.009 C 
BRANCH  20  21
ATOM     21  C   UNL     1      44.446  24.636  21.937  0.00  0.00    -0.017 C 
ATOM     22  C   UNL     1      45.533  23.875  22.697  0.00  0.00    +0.007 C 
ATOM     23  C   UNL     1      43.610  25.445  22.936  0.00  0.00    +0.007 C 
ENDBRANCH  20  21
ENDBRANCH  14  20
ENDBRANCH  13  14
ENDBRANCH  11  13
ENDBRANCH   7   9
ENDBRANCH   6   7
ENDBRANCH   5   6
ENDBRANCH   1   5
BRANCH   2  24
ATOM     24  C   UNL     1      46.846  25.190   9.679  0.00  0.00    +0.152 C 
BRANCH  24  25
ATOM     25  C   UNL     1      47.201  23.887  10.424  0.00  0.00    +0.193 C 
ATOM     26  O   UNL     1      47.948  24.271  11.599  0.00  0.00    -0.219 OA
BRANCH  25  27
ATOM     27  C   UNL     1      46.034  23.036  10.971  0.00  0.00    +0.212 C 
ATOM     28  O   UNL     1      44.860  23.215  10.162  0.00  0.00    -0.218 OA
BRANCH  27  29
ATOM     29  C   UNL     1      46.365  21.496  11.045  0.00  0.00    +0.171 C 
ATOM     30  O   UNL     1      45.604  20.728  10.118  0.00  0.00    -0.343 OA
ATOM     31  C   UNL     1      45.517  19.334  10.135  0.00  0.00    +0.220 C 
ATOM     32  C   UNL     1      45.155  18.802  11.533  0.00  0.00    +0.076 C 
ATOM     33  C   UNL     1      46.162  19.399  12.530  0.00  0.00    +0.177 C 
ATOM     34  O   UNL     1      45.896  18.907  13.836  0.00  0.00    -0.221 OA
ATOM     35  C   UNL     1      46.098  20.958  12.488  0.00  0.00    +0.155 C 
BRANCH  35  36
ATOM     36  N   UNL     1      47.048  21.530  13.440  0.00  0.00    -0.202 NA
ATOM     37  C   UNL     1      46.842  22.424  14.440  0.00  0.00    +0.242 C 
ATOM     38  C   UNL     1      47.934  22.621  15.459  0.00  0.00    +0.096 C 
ATOM     39  O   UNL     1      45.782  23.044  14.492  0.00  0.00    -0.273 OA
ENDBRANCH  35  36
BRANCH  31  40
ATOM     40  C   UNL     1      46.836  18.596   9.538  0.00  0.00    +0.391 C 
ATOM     41  O   UNL     1      46.731  17.316   9.945  0.00  0.00    -0.243 OA
ATOM     42  O   UNL     1      47.356  19.439   8.638  0.00  0.00    -0.243 OA
ENDBRANCH  31  40
ENDBRANCH  27  29
ENDBRANCH  25  27
ENDBRANCH  24  25
ENDBRANCH   2  24
TORSDOF 17
