REMARK VINA RESULT:    -7.547      2.401      9.220
REMARK INTER + INTRA:         -13.998
REMARK INTER:                 -12.527
REMARK INTRA:                  -1.472
REMARK UNBOUND:                -1.598
REMARK  Name = lig_assembled_80.pdb
REMARK  11 active torsions:
REMARK  status: ('A' for Active; 'I' for Inactive)
REMARK    1  A    between atoms: _2  and  _9
REMARK    2  A    between atoms: _6  and  _7
REMARK    3  A    between atoms: _6  and  _19
REMARK    4  A    between atoms: _19  and  _21
REMARK    5  A    between atoms: _20  and  _25
REMARK    6  A    between atoms: _21  and  _24
REMARK    7  A    between atoms: _29  and  _39
REMARK    8  A    between atoms: _31  and  _32
REMARK    9  A    between atoms: _33  and  _35
REMARK   10  A    between atoms: _35  and  _37
REMARK   11  A    between atoms: _37  and  _39
REMARK                            x       y       z     vdW  Elec       q    Type
REMARK                         _______ _______ _______ _____ _____    ______ ____
ROOT
ATOM      1  C   UNL     1      27.697  17.775  -1.620  0.00  0.00    +0.400 C 
ATOM      2  N   UNL     1      26.753  16.964  -2.205  0.00  0.00    -0.278 N 
ATOM      3  H   UNL     1      25.912  17.612  -2.328  0.00  0.00    +0.152 HD
ATOM      4  O   UNL     1      27.463  18.980  -1.551  0.00  0.00    -0.226 OA
ENDROOT
BRANCH   1   5
ATOM      5  O   UNL     1      28.745  17.174  -1.161  0.00  0.00    -0.450 OA
BRANCH   5   6
ATOM      6  C   UNL     1      29.550  17.163  -0.006  0.00  0.00    +0.240 C 
BRANCH   6   7
ATOM      7  C   UNL     1      30.918  16.459  -0.099  0.00  0.00    +0.100 C 
BRANCH   7   9
ATOM      8  N   UNL     1      30.416  14.047  -0.074  0.00  0.00    -0.134 NA
ATOM      9  C   UNL     1      30.872  15.152   0.589  0.00  0.00    +0.086 A 
ATOM     10  C   UNL     1      31.237  14.803   1.870  0.00  0.00    +0.134 A 
ATOM     11  N   UNL     1      30.922  13.473   1.945  0.00  0.00    -0.240 N 
ATOM     12  N   UNL     1      30.464  13.016   0.760  0.00  0.00    -0.065 NA
BRANCH  11  13
ATOM     13  C   UNL     1      31.176  12.508   3.022  0.00  0.00    +0.195 C 
ATOM     14  C   UNL     1      32.594  12.719   3.534  0.00  0.00    +0.041 C 
ATOM     15  C   UNL     1      33.024  11.582   4.435  0.00  0.00    +0.039 C 
ATOM     16  C   UNL     1      32.554  11.836   5.834  0.00  0.00    -0.026 A 
ATOM     17  C   UNL     1      31.201  11.889   6.175  0.00  0.00    +0.037 A 
ATOM     18  C   UNL     1      30.839  12.010   7.527  0.00  0.00    +0.023 A 
ATOM     19  C   UNL     1      31.803  12.197   8.516  0.00  0.00    +0.002 A 
ATOM     20  C   UNL     1      33.146  12.221   8.169  0.00  0.00    +0.000 A 
ATOM     21  N   UNL     1      30.128  11.913   5.268  0.00  0.00    -0.284 N 
ATOM     22  H   UNL     1      29.209  11.925   5.699  0.00  0.00    +0.155 HD
ATOM     23  C   UNL     1      33.519  12.015   6.843  0.00  0.00    +0.005 A 
ATOM     24  C   UNL     1      30.038  12.494   4.035  0.00  0.00    +0.242 C 
ATOM     25  O   UNL     1      28.913  12.921   3.747  0.00  0.00    -0.273 OA
ENDBRANCH  11  13
ENDBRANCH   7   9
ENDBRANCH   6   7
ENDBRANCH   5   6
ENDBRANCH   1   5
BRANCH   2  26
ATOM     26  C   UNL     1      26.399  15.650  -2.735  0.00  0.00    +0.152 C 
BRANCH  26  27
ATOM     27  C   UNL     1      25.474  15.642  -3.969  0.00  0.00    +0.193 C 
ATOM     28  O   UNL     1      26.323  15.810  -5.126  0.00  0.00    -0.219 OA
BRANCH  27  29
ATOM     29  C   UNL     1      24.679  14.350  -4.259  0.00  0.00    +0.212 C 
ATOM     30  O   UNL     1      25.535  13.354  -4.841  0.00  0.00    -0.218 OA
BRANCH  29  31
ATOM     31  C   UNL     1      23.993  13.738  -2.978  0.00  0.00    +0.171 C 
ATOM     32  O   UNL     1      24.535  12.472  -2.618  0.00  0.00    -0.343 OA
ATOM     33  C   UNL     1      23.961  11.605  -1.686  0.00  0.00    +0.220 C 
ATOM     34  C   UNL     1      22.468  11.366  -1.972  0.00  0.00    +0.076 C 
ATOM     35  C   UNL     1      21.792  12.743  -2.079  0.00  0.00    +0.177 C 
ATOM     36  O   UNL     1      20.399  12.579  -2.304  0.00  0.00    -0.221 OA
ATOM     37  C   UNL     1      22.455  13.581  -3.215  0.00  0.00    +0.155 C 
BRANCH  37  38
ATOM     38  N   UNL     1      21.811  14.888  -3.324  0.00  0.00    -0.202 NA
ATOM     39  C   UNL     1      21.125  15.433  -4.360  0.00  0.00    +0.242 C 
ATOM     40  C   UNL     1      20.311  16.675  -4.104  0.00  0.00    +0.096 C 
ATOM     41  O   UNL     1      21.181  14.907  -5.470  0.00  0.00    -0.273 OA
ENDBRANCH  37  38
BRANCH  33  42
ATOM     42  C   UNL     1      24.208  12.056  -0.145  0.00  0.00    +0.391 C 
ATOM     43  O   UNL     1      23.344  11.315   0.577  0.00  0.00    -0.243 OA
ATOM     44  O   UNL     1      25.354  12.748  -0.141  0.00  0.00    -0.243 OA
ENDBRANCH  33  42
ENDBRANCH  29  31
ENDBRANCH  27  29
ENDBRANCH  26  27
ENDBRANCH   2  26
TORSDOF 11
