REMARK VINA RESULT:    -6.966      1.895      3.238
REMARK INTER + INTRA:         -13.693
REMARK INTER:                 -12.028
REMARK INTRA:                  -1.664
REMARK UNBOUND:                -1.841
REMARK  Name = lig_assembled_39.pdb
REMARK  12 active torsions:
REMARK  status: ('A' for Active; 'I' for Inactive)
REMARK    1  A    between atoms: _2  and  _8
REMARK    2  A    between atoms: _5  and  _6
REMARK    3  A    between atoms: _5  and  _14
REMARK    4  A    between atoms: _8  and  _9
REMARK    5  A    between atoms: _14  and  _16
REMARK    6  A    between atoms: _15  and  _20
REMARK    7  A    between atoms: _16  and  _19
REMARK    8  A    between atoms: _24  and  _34
REMARK    9  A    between atoms: _26  and  _27
REMARK   10  A    between atoms: _28  and  _30
REMARK   11  A    between atoms: _30  and  _32
REMARK   12  A    between atoms: _32  and  _34
REMARK                            x       y       z     vdW  Elec       q    Type
REMARK                         _______ _______ _______ _____ _____    ______ ____
ROOT
ATOM      1  C   UNL     1      28.254  17.607  -0.599  0.00  0.00    +0.400 C 
ATOM      2  N   UNL     1      29.368  17.184   0.087  0.00  0.00    -0.278 N 
ATOM      3  H   UNL     1      29.412  17.849   0.922  0.00  0.00    +0.152 HD
ATOM      4  O   UNL     1      27.524  18.436  -0.062  0.00  0.00    -0.226 OA
ENDROOT
BRANCH   2   5
ATOM      5  C   UNL     1      30.483  16.246   0.191  0.00  0.00    +0.152 C 
BRANCH   5   6
ATOM      6  C   UNL     1      30.149  14.854   0.765  0.00  0.00    +0.193 C 
ATOM      7  O   UNL     1      29.225  14.235  -0.157  0.00  0.00    -0.219 OA
BRANCH   6   8
ATOM      8  C   UNL     1      31.305  13.837   0.893  0.00  0.00    +0.212 C 
ATOM      9  O   UNL     1      32.473  14.316   0.207  0.00  0.00    -0.218 OA
BRANCH   8  10
ATOM     10  C   UNL     1      31.694  13.517   2.387  0.00  0.00    +0.171 C 
ATOM     11  O   UNL     1      33.071  13.189   2.536  0.00  0.00    -0.343 OA
ATOM     12  C   UNL     1      33.628  12.634   3.690  0.00  0.00    +0.220 C 
ATOM     13  C   UNL     1      32.840  11.402   4.169  0.00  0.00    +0.076 C 
ATOM     14  C   UNL     1      31.365  11.819   4.298  0.00  0.00    +0.177 C 
ATOM     15  O   UNL     1      30.596  10.725   4.777  0.00  0.00    -0.221 OA
ATOM     16  C   UNL     1      30.829  12.330   2.924  0.00  0.00    +0.155 C 
BRANCH  16  17
ATOM     17  N   UNL     1      29.426  12.720   3.041  0.00  0.00    -0.202 NA
ATOM     18  C   UNL     1      28.317  12.134   2.523  0.00  0.00    +0.242 C 
ATOM     19  C   UNL     1      26.970  12.570   3.039  0.00  0.00    +0.096 C 
ATOM     20  O   UNL     1      28.434  11.271   1.656  0.00  0.00    -0.273 OA
ENDBRANCH  16  17
BRANCH  12  21
ATOM     21  C   UNL     1      33.840  13.710   4.889  0.00  0.00    +0.391 C 
ATOM     22  O   UNL     1      33.768  12.986   6.023  0.00  0.00    -0.243 OA
ATOM     23  O   UNL     1      34.298  14.826   4.308  0.00  0.00    -0.243 OA
ENDBRANCH  12  21
ENDBRANCH   8  10
ENDBRANCH   6   8
ENDBRANCH   5   6
ENDBRANCH   2   5
BRANCH   1  24
ATOM     24  O   UNL     1      28.098  17.103  -1.779  0.00  0.00    -0.450 OA
BRANCH  24  25
ATOM     25  C   UNL     1      27.358  16.089  -2.418  0.00  0.00    +0.240 C 
BRANCH  25  26
ATOM     26  C   UNL     1      26.068  16.505  -3.151  0.00  0.00    +0.100 C 
BRANCH  26  28
ATOM     27  N   UNL     1      23.674  15.887  -3.027  0.00  0.00    -0.134 NA
ATOM     28  C   UNL     1      24.991  15.534  -2.885  0.00  0.00    +0.086 A 
ATOM     29  C   UNL     1      25.066  14.213  -2.504  0.00  0.00    +0.134 A 
ATOM     30  N   UNL     1      23.766  13.798  -2.512  0.00  0.00    -0.247 N 
ATOM     31  N   UNL     1      22.929  14.821  -2.767  0.00  0.00    -0.065 NA
BRANCH  30  32
ATOM     32  C   UNL     1      23.259  12.442  -2.358  0.00  0.00    +0.181 C 
BRANCH  32  33
ATOM     33  C   UNL     1      22.758  12.145  -0.956  0.00  0.00    -0.012 A 
ATOM     34  C   UNL     1      21.466  12.539  -0.547  0.00  0.00    +0.006 A 
ATOM     35  C   UNL     1      20.995  12.276   0.742  0.00  0.00    +0.000 A 
ATOM     36  C   UNL     1      21.814  11.635   1.663  0.00  0.00    +0.001 A 
ATOM     37  C   UNL     1      23.109  11.274   1.300  0.00  0.00    +0.015 A 
ATOM     38  C   UNL     1      23.582  11.535   0.007  0.00  0.00    +0.023 A 
ATOM     39 BR   UNL     1      25.385  11.049  -0.353  0.00  0.00    -0.050 Br
ENDBRANCH  32  33
ENDBRANCH  30  32
ENDBRANCH  26  28
ENDBRANCH  25  26
ENDBRANCH  24  25
ENDBRANCH   1  24
TORSDOF 12
