REMARK VINA RESULT:    -7.399      1.694      2.203
REMARK INTER + INTRA:         -14.489
REMARK INTER:                 -12.744
REMARK INTRA:                  -1.744
REMARK UNBOUND:                -1.466
REMARK  Name = lig_assembled_78.pdb
REMARK  13 active torsions:
REMARK  status: ('A' for Active; 'I' for Inactive)
REMARK    1  A    between atoms: _2  and  _8
REMARK    2  A    between atoms: _5  and  _6
REMARK    3  A    between atoms: _5  and  _16
REMARK    4  A    between atoms: _8  and  _44
REMARK    5  A    between atoms: _9  and  _44
REMARK    6  A    between atoms: _16  and  _18
REMARK    7  A    between atoms: _17  and  _22
REMARK    8  A    between atoms: _18  and  _21
REMARK    9  A    between atoms: _26  and  _36
REMARK   10  A    between atoms: _28  and  _29
REMARK   11  A    between atoms: _30  and  _32
REMARK   12  A    between atoms: _32  and  _34
REMARK   13  A    between atoms: _34  and  _36
REMARK                            x       y       z     vdW  Elec       q    Type
REMARK                         _______ _______ _______ _____ _____    ______ ____
ROOT
ATOM      1  C   UNL     1      28.911  17.069  -0.502  0.00  0.00    +0.400 C 
ATOM      2  N   UNL     1      29.018  15.920   0.245  0.00  0.00    -0.278 N 
ATOM      3  H   UNL     1      29.750  16.170   0.982  0.00  0.00    +0.152 HD
ATOM      4  O   UNL     1      29.472  18.081  -0.091  0.00  0.00    -0.226 OA
ENDROOT
BRANCH   2   5
ATOM      5  C   UNL     1      28.579  14.548   0.487  0.00  0.00    +0.152 C 
BRANCH   5   6
ATOM      6  C   UNL     1      29.163  13.857   1.736  0.00  0.00    +0.193 C 
ATOM      7  O   UNL     1      28.128  13.876   2.744  0.00  0.00    -0.219 OA
BRANCH   6   8
ATOM      8  C   UNL     1      29.554  12.368   1.613  0.00  0.00    +0.212 C 
ATOM      9  O   UNL     1      29.466  11.937   0.245  0.00  0.00    -0.218 OA
BRANCH   8  10
ATOM     10  C   UNL     1      31.005  12.058   2.146  0.00  0.00    +0.171 C 
ATOM     11  O   UNL     1      31.080  12.067   3.568  0.00  0.00    -0.343 OA
ATOM     12  C   UNL     1      32.273  12.066   4.294  0.00  0.00    +0.220 C 
ATOM     13  C   UNL     1      33.239  13.159   3.807  0.00  0.00    +0.076 C 
ATOM     14  C   UNL     1      33.406  12.986   2.288  0.00  0.00    +0.177 C 
ATOM     15  O   UNL     1      34.323  13.950   1.791  0.00  0.00    -0.221 OA
ATOM     16  C   UNL     1      32.021  13.102   1.579  0.00  0.00    +0.155 C 
BRANCH  16  17
ATOM     17  N   UNL     1      32.176  12.945   0.135  0.00  0.00    -0.202 NA
ATOM     18  C   UNL     1      32.198  13.886  -0.843  0.00  0.00    +0.242 C 
ATOM     19  C   UNL     1      32.667  13.480  -2.216  0.00  0.00    +0.096 C 
ATOM     20  O   UNL     1      31.842  15.035  -0.589  0.00  0.00    -0.273 OA
ENDBRANCH  16  17
BRANCH  12  21
ATOM     21  C   UNL     1      32.995  10.612   4.349  0.00  0.00    +0.391 C 
ATOM     22  O   UNL     1      34.255  10.864   4.756  0.00  0.00    -0.243 OA
ATOM     23  O   UNL     1      32.012   9.707   4.267  0.00  0.00    -0.243 OA
ENDBRANCH  12  21
ENDBRANCH   8  10
ENDBRANCH   6   8
ENDBRANCH   5   6
ENDBRANCH   2   5
BRANCH   1  24
ATOM     24  O   UNL     1      28.243  16.961  -1.604  0.00  0.00    -0.450 OA
BRANCH  24  25
ATOM     25  C   UNL     1      27.135  17.550  -2.243  0.00  0.00    +0.240 C 
BRANCH  25  26
ATOM     26  C   UNL     1      26.936  17.249  -3.741  0.00  0.00    +0.100 C 
BRANCH  26  28
ATOM     27  N   UNL     1      25.737  15.581  -5.127  0.00  0.00    -0.134 NA
ATOM     28  C   UNL     1      25.906  16.209  -3.922  0.00  0.00    +0.086 A 
ATOM     29  C   UNL     1      24.998  15.701  -3.020  0.00  0.00    +0.135 A 
ATOM     30  N   UNL     1      24.349  14.729  -3.720  0.00  0.00    -0.230 N 
ATOM     31  N   UNL     1      24.764  14.690  -4.998  0.00  0.00    -0.064 NA
BRANCH  30  32
ATOM     32  C   UNL     1      23.285  13.860  -3.281  0.00  0.00    +0.316 C 
BRANCH  32  33
ATOM     33  S   UNL     1      23.853  12.308  -2.639  0.00  0.00    +0.017 S 
ATOM     34  O   UNL     1      23.446  11.230  -3.520  0.00  0.00    -0.168 OA
ATOM     35  O   UNL     1      25.244  12.466  -2.250  0.00  0.00    -0.168 OA
BRANCH  33  36
ATOM     36  C   UNL     1      22.916  12.089  -1.141  0.00  0.00    +0.090 A 
ATOM     37  C   UNL     1      23.489  11.389  -0.074  0.00  0.00    +0.027 A 
ATOM     38  C   UNL     1      22.769  11.236   1.111  0.00  0.00    +0.002 A 
ATOM     39  C   UNL     1      21.496  11.796   1.231  0.00  0.00    +0.000 A 
ATOM     40  C   UNL     1      20.938  12.511   0.170  0.00  0.00    +0.002 A 
ATOM     41  C   UNL     1      21.647  12.659  -1.022  0.00  0.00    +0.027 A 
ENDBRANCH  33  36
ENDBRANCH  32  33
ENDBRANCH  30  32
ENDBRANCH  26  28
ENDBRANCH  25  26
ENDBRANCH  24  25
ENDBRANCH   1  24
TORSDOF 13
