REMARK VINA RESULT:    -7.300      1.697      2.480
REMARK INTER + INTRA:         -17.465
REMARK INTER:                 -14.315
REMARK INTRA:                  -3.150
REMARK UNBOUND:                -3.125
REMARK  Name = lig_assembled_47.pdb
REMARK  17 active torsions:
REMARK  status: ('A' for Active; 'I' for Inactive)
REMARK    1  A    between atoms: _2  and  _8
REMARK    2  A    between atoms: _5  and  _6
REMARK    3  A    between atoms: _5  and  _25
REMARK    4  A    between atoms: _8  and  _9
REMARK    5  A    between atoms: _9  and  _10
REMARK    6  A    between atoms: _9  and  _11
REMARK    7  A    between atoms: _10  and  _23
REMARK    8  A    between atoms: _11  and  _12
REMARK    9  A    between atoms: _11  and  _18
REMARK   10  A    between atoms: _25  and  _27
REMARK   11  A    between atoms: _26  and  _31
REMARK   12  A    between atoms: _27  and  _30
REMARK   13  A    between atoms: _35  and  _45
REMARK   14  A    between atoms: _37  and  _38
REMARK   15  A    between atoms: _39  and  _41
REMARK   16  A    between atoms: _41  and  _43
REMARK   17  A    between atoms: _43  and  _45
REMARK                            x       y       z     vdW  Elec       q    Type
REMARK                         _______ _______ _______ _____ _____    ______ ____
ROOT
ATOM      1  C   UNL     1      27.225  15.321  -2.717  0.00  0.00    +0.100 C 
ENDROOT
BRANCH   1   3
ATOM      2  N   UNL     1      25.771  15.084  -4.716  0.00  0.00    -0.134 NA
ATOM      3  C   UNL     1      25.960  14.924  -3.367  0.00  0.00    +0.086 A 
ATOM      4  C   UNL     1      24.813  14.398  -2.815  0.00  0.00    +0.133 A 
ATOM      5  N   UNL     1      23.950  14.305  -3.869  0.00  0.00    -0.251 N 
ATOM      6  N   UNL     1      24.536  14.699  -5.012  0.00  0.00    -0.065 NA
BRANCH   5   7
ATOM      7  C   UNL     1      22.528  14.003  -3.838  0.00  0.00    +0.160 C 
BRANCH   7   8
ATOM      8  C   UNL     1      21.791  14.603  -2.636  0.00  0.00    +0.131 C 
BRANCH   8   9
ATOM      9  C   UNL     1      21.112  15.881  -3.107  0.00  0.00    +0.311 C 
ATOM     10  O   UNL     1      19.928  15.935  -3.399  0.00  0.00    -0.251 OA
BRANCH   9  11
ATOM     11  O   UNL     1      21.856  17.007  -3.088  0.00  0.00    -0.480 OA
ATOM     12  H   UNL     1      21.440  17.847  -3.348  0.00  0.00    +0.295 HD
ENDBRANCH   9  11
ENDBRANCH   8   9
BRANCH   8  13
ATOM     13  C   UNL     1      20.788  13.632  -1.936  0.00  0.00    +0.064 C 
BRANCH  13  14
ATOM     14  C   UNL     1      20.072  12.640  -2.853  0.00  0.00    -0.039 A 
ATOM     15  C   UNL     1      20.632  11.366  -3.076  0.00  0.00    +0.004 A 
ATOM     16  C   UNL     1      20.002  10.436  -3.910  0.00  0.00    +0.000 A 
ATOM     17  C   UNL     1      18.812  10.764  -4.550  0.00  0.00    +0.000 A 
ATOM     18  C   UNL     1      18.254  12.024  -4.359  0.00  0.00    +0.000 A 
ATOM     19  C   UNL     1      18.873  12.950  -3.511  0.00  0.00    +0.004 A 
ENDBRANCH  13  14
BRANCH  13  20
ATOM     20  C   UNL     1      21.459  12.958  -0.731  0.00  0.00    -0.039 A 
ATOM     21  C   UNL     1      22.759  12.439  -0.841  0.00  0.00    +0.004 A 
ATOM     22  C   UNL     1      23.308  11.675   0.194  0.00  0.00    +0.000 A 
ATOM     23  C   UNL     1      22.580  11.442   1.358  0.00  0.00    +0.000 A 
ATOM     24  C   UNL     1      21.307  11.982   1.498  0.00  0.00    +0.000 A 
ATOM     25  C   UNL     1      20.753  12.733   0.463  0.00  0.00    +0.004 A 
ENDBRANCH  13  20
ENDBRANCH   8  13
ENDBRANCH   7   8
ENDBRANCH   5   7
ENDBRANCH   1   3
BRANCH   1  26
ATOM     26  C   UNL     1      27.360  16.855  -2.659  0.00  0.00    +0.240 C 
BRANCH  26  27
ATOM     27  O   UNL     1      28.271  17.393  -1.729  0.00  0.00    -0.450 OA
BRANCH  27  28
ATOM     28  C   UNL     1      28.313  17.735  -0.483  0.00  0.00    +0.400 C 
ATOM     29  N   UNL     1      29.435  17.337   0.205  0.00  0.00    -0.278 N 
ATOM     30  H   UNL     1      29.364  17.876   1.126  0.00  0.00    +0.152 HD
ATOM     31  O   UNL     1      27.469  18.395   0.117  0.00  0.00    -0.226 OA
BRANCH  29  32
ATOM     32  C   UNL     1      30.644  16.518   0.248  0.00  0.00    +0.152 C 
BRANCH  32  33
ATOM     33  C   UNL     1      30.462  15.021  -0.077  0.00  0.00    +0.193 C 
ATOM     34  O   UNL     1      31.777  14.425  -0.037  0.00  0.00    -0.219 OA
BRANCH  33  35
ATOM     35  C   UNL     1      29.624  14.173   0.905  0.00  0.00    +0.212 C 
ATOM     36  O   UNL     1      28.445  14.889   1.307  0.00  0.00    -0.218 OA
BRANCH  35  37
ATOM     37  C   UNL     1      29.190  12.779   0.312  0.00  0.00    +0.171 C 
ATOM     38  O   UNL     1      28.796  12.863  -1.053  0.00  0.00    -0.343 OA
ATOM     39  C   UNL     1      28.142  11.843  -1.749  0.00  0.00    +0.220 C 
ATOM     40  C   UNL     1      26.915  11.323  -0.980  0.00  0.00    +0.076 C 
ATOM     41  C   UNL     1      27.383  10.944   0.435  0.00  0.00    +0.177 C 
ATOM     42  O   UNL     1      26.292  10.419   1.178  0.00  0.00    -0.221 OA
ATOM     43  C   UNL     1      28.006  12.186   1.145  0.00  0.00    +0.155 C 
BRANCH  43  44
ATOM     44  N   UNL     1      28.445  11.832   2.493  0.00  0.00    -0.202 NA
ATOM     45  C   UNL     1      27.974  12.247   3.696  0.00  0.00    +0.242 C 
ATOM     46  C   UNL     1      28.411  11.502   4.931  0.00  0.00    +0.096 C 
ATOM     47  O   UNL     1      27.209  13.208   3.750  0.00  0.00    -0.273 OA
ENDBRANCH  43  44
BRANCH  39  48
ATOM     48  C   UNL     1      29.127  10.629  -2.194  0.00  0.00    +0.391 C 
ATOM     49  O   UNL     1      28.302   9.617  -2.527  0.00  0.00    -0.243 OA
ATOM     50  O   UNL     1      30.339  11.175  -2.350  0.00  0.00    -0.243 OA
ENDBRANCH  39  48
ENDBRANCH  35  37
ENDBRANCH  33  35
ENDBRANCH  32  33
ENDBRANCH  29  32
ENDBRANCH  27  28
ENDBRANCH  26  27
ENDBRANCH   1  26
TORSDOF 17
