REMARK VINA RESULT:    -6.206      2.594      5.332
REMARK INTER + INTRA:         -12.819
REMARK INTER:                 -10.838
REMARK INTRA:                  -1.981
REMARK UNBOUND:                -1.716
REMARK  Name = lig_assembled_32.pdb
REMARK  14 active torsions:
REMARK  status: ('A' for Active; 'I' for Inactive)
REMARK    1  A    between atoms: _2  and  _8
REMARK    2  A    between atoms: _4  and  _9
REMARK    3  A    between atoms: _4  and  _10
REMARK    4  A    between atoms: _5  and  _6
REMARK    5  A    between atoms: _5  and  _12
REMARK    6  A    between atoms: _8  and  _9
REMARK    7  A    between atoms: _12  and  _14
REMARK    8  A    between atoms: _13  and  _18
REMARK    9  A    between atoms: _14  and  _17
REMARK   10  A    between atoms: _22  and  _32
REMARK   11  A    between atoms: _24  and  _25
REMARK   12  A    between atoms: _26  and  _28
REMARK   13  A    between atoms: _28  and  _30
REMARK   14  A    between atoms: _30  and  _32
REMARK                            x       y       z     vdW  Elec       q    Type
REMARK                         _______ _______ _______ _____ _____    ______ ____
ROOT
ATOM      1  C   UNL     1      33.691  14.060   3.465  0.00  0.00    +0.152 C 
ENDROOT
BRANCH   1   3
ATOM      2  C   UNL     1      31.534  15.201   2.244  0.00  0.00    +0.400 C 
ATOM      3  N   UNL     1      32.790  14.960   2.750  0.00  0.00    -0.278 N 
ATOM      4  H   UNL     1      33.329  15.850   2.508  0.00  0.00    +0.152 HD
ATOM      5  O   UNL     1      31.279  16.334   1.843  0.00  0.00    -0.226 OA
BRANCH   2   6
ATOM      6  O   UNL     1      30.738  14.183   2.211  0.00  0.00    -0.450 OA
BRANCH   6   7
ATOM      7  C   UNL     1      29.808  13.582   1.341  0.00  0.00    +0.240 C 
BRANCH   7   8
ATOM      8  C   UNL     1      30.065  13.708  -0.173  0.00  0.00    +0.100 C 
BRANCH   8  10
ATOM      9  N   UNL     1      29.385  16.041  -0.642  0.00  0.00    -0.134 NA
ATOM     10  C   UNL     1      29.149  14.698  -0.769  0.00  0.00    +0.086 A 
ATOM     11  C   UNL     1      27.991  14.511  -1.492  0.00  0.00    +0.133 A 
ATOM     12  N   UNL     1      27.568  15.776  -1.762  0.00  0.00    -0.251 N 
ATOM     13  N   UNL     1      28.407  16.694  -1.253  0.00  0.00    -0.065 NA
BRANCH  12  14
ATOM     14  C   UNL     1      26.392  16.191  -2.495  0.00  0.00    +0.156 C 
BRANCH  14  15
ATOM     15  C   UNL     1      25.587  15.001  -3.001  0.00  0.00    +0.143 C 
BRANCH  15  16
ATOM     16  C   UNL     1      24.118  15.265  -2.840  0.00  0.00    +0.306 C 
ATOM     17  O   UNL     1      23.286  15.141  -3.725  0.00  0.00    -0.251 OA
BRANCH  16  18
ATOM     18  O   UNL     1      23.796  15.677  -1.594  0.00  0.00    -0.481 OA
ATOM     19  H   UNL     1      22.837  15.685  -1.407  0.00  0.00    +0.295 HD
ENDBRANCH  16  18
ENDBRANCH  15  16
ENDBRANCH  14  15
ENDBRANCH  12  14
ENDBRANCH   8  10
ENDBRANCH   7   8
ENDBRANCH   6   7
ENDBRANCH   2   6
ENDBRANCH   1   3
BRANCH   1  20
ATOM     20  C   UNL     1      34.872  13.493   2.650  0.00  0.00    +0.193 C 
ATOM     21  O   UNL     1      35.741  12.824   3.590  0.00  0.00    -0.219 OA
BRANCH  20  22
ATOM     22  C   UNL     1      34.556  12.418   1.586  0.00  0.00    +0.212 C 
ATOM     23  O   UNL     1      33.224  11.910   1.766  0.00  0.00    -0.218 OA
BRANCH  22  24
ATOM     24  C   UNL     1      34.699  12.944   0.107  0.00  0.00    +0.171 C 
ATOM     25  O   UNL     1      33.522  12.730  -0.666  0.00  0.00    -0.343 OA
ATOM     26  C   UNL     1      33.455  12.873  -2.054  0.00  0.00    +0.220 C 
ATOM     27  C   UNL     1      34.580  12.099  -2.763  0.00  0.00    +0.076 C 
ATOM     28  C   UNL     1      35.912  12.538  -2.131  0.00  0.00    +0.177 C 
ATOM     29  O   UNL     1      36.991  11.880  -2.779  0.00  0.00    -0.221 OA
ATOM     30  C   UNL     1      35.903  12.240  -0.599  0.00  0.00    +0.155 C 
BRANCH  30  31
ATOM     31  N   UNL     1      37.170  12.649   0.003  0.00  0.00    -0.202 NA
ATOM     32  C   UNL     1      38.051  11.929   0.743  0.00  0.00    +0.242 C 
ATOM     33  C   UNL     1      39.419  12.510   0.992  0.00  0.00    +0.096 C 
ATOM     34  O   UNL     1      37.717  10.833   1.188  0.00  0.00    -0.273 OA
ENDBRANCH  30  31
BRANCH  26  35
ATOM     35  C   UNL     1      33.395  14.421  -2.543  0.00  0.00    +0.391 C 
ATOM     36  O   UNL     1      33.422  14.362  -3.889  0.00  0.00    -0.243 OA
ATOM     37  O   UNL     1      33.042  15.135  -1.467  0.00  0.00    -0.243 OA
ENDBRANCH  26  35
ENDBRANCH  22  24
ENDBRANCH  20  22
ENDBRANCH   1  20
TORSDOF 14
