REMARK VINA RESULT:    -6.671      3.738      8.722
REMARK INTER + INTRA:         -14.653
REMARK INTER:                 -12.208
REMARK INTRA:                  -2.445
REMARK UNBOUND:                -2.913
REMARK  Name = lig_assembled_92.pdb
REMARK  13 active torsions:
REMARK  status: ('A' for Active; 'I' for Inactive)
REMARK    1  A    between atoms: _2  and  _10
REMARK    2  A    between atoms: _3  and  _49
REMARK    3  A    between atoms: _7  and  _8
REMARK    4  A    between atoms: _7  and  _20
REMARK    5  A    between atoms: _13  and  _49
REMARK    6  A    between atoms: _20  and  _22
REMARK    7  A    between atoms: _21  and  _26
REMARK    8  A    between atoms: _22  and  _25
REMARK    9  A    between atoms: _30  and  _40
REMARK   10  A    between atoms: _32  and  _33
REMARK   11  A    between atoms: _34  and  _36
REMARK   12  A    between atoms: _36  and  _38
REMARK   13  A    between atoms: _38  and  _40
REMARK                            x       y       z     vdW  Elec       q    Type
REMARK                         _______ _______ _______ _____ _____    ______ ____
ROOT
ATOM      1  O   UNL     1      26.231  17.055  -3.900  0.00  0.00    -0.450 OA
ENDROOT
BRANCH   1   2
ATOM      2  C   UNL     1      25.688  16.027  -4.466  0.00  0.00    +0.400 C 
ATOM      3  N   UNL     1      24.564  15.532  -3.847  0.00  0.00    -0.278 N 
ATOM      4  H   UNL     1      24.173  14.840  -4.561  0.00  0.00    +0.152 HD
ATOM      5  O   UNL     1      26.064  15.486  -5.502  0.00  0.00    -0.226 OA
BRANCH   3   6
ATOM      6  C   UNL     1      23.693  15.518  -2.674  0.00  0.00    +0.152 C 
BRANCH   6   7
ATOM      7  C   UNL     1      22.564  14.467  -2.679  0.00  0.00    +0.193 C 
ATOM      8  O   UNL     1      21.666  14.828  -3.751  0.00  0.00    -0.219 OA
BRANCH   7   9
ATOM      9  C   UNL     1      22.952  13.002  -2.977  0.00  0.00    +0.212 C 
ATOM     10  O   UNL     1      23.023  12.781  -4.395  0.00  0.00    -0.218 OA
BRANCH   9  11
ATOM     11  C   UNL     1      24.325  12.576  -2.331  0.00  0.00    +0.171 C 
ATOM     12  O   UNL     1      25.303  12.225  -3.305  0.00  0.00    -0.343 OA
ATOM     13  C   UNL     1      26.510  11.585  -3.015  0.00  0.00    +0.220 C 
ATOM     14  C   UNL     1      26.298  10.331  -2.148  0.00  0.00    +0.076 C 
ATOM     15  C   UNL     1      25.476  10.752  -0.919  0.00  0.00    +0.177 C 
ATOM     16  O   UNL     1      25.284   9.635  -0.062  0.00  0.00    -0.221 OA
ATOM     17  C   UNL     1      24.112  11.363  -1.368  0.00  0.00    +0.155 C 
BRANCH  17  18
ATOM     18  N   UNL     1      23.325  11.758  -0.202  0.00  0.00    -0.202 NA
ATOM     19  C   UNL     1      22.099  11.337   0.200  0.00  0.00    +0.242 C 
ATOM     20  C   UNL     1      21.645  11.685   1.594  0.00  0.00    +0.096 C 
ATOM     21  O   UNL     1      21.395  10.689  -0.572  0.00  0.00    -0.273 OA
ENDBRANCH  17  18
BRANCH  13  22
ATOM     22  C   UNL     1      27.627  12.574  -2.370  0.00  0.00    +0.391 C 
ATOM     23  O   UNL     1      28.593  11.754  -1.912  0.00  0.00    -0.243 OA
ATOM     24  O   UNL     1      27.322  13.805  -2.797  0.00  0.00    -0.243 OA
ENDBRANCH  13  22
ENDBRANCH   9  11
ENDBRANCH   7   9
ENDBRANCH   6   7
ENDBRANCH   3   6
ENDBRANCH   1   2
BRANCH   1  25
ATOM     25  C   UNL     1      27.304  17.357  -3.039  0.00  0.00    +0.240 C 
BRANCH  25  26
ATOM     26  C   UNL     1      27.110  17.076  -1.536  0.00  0.00    +0.100 C 
BRANCH  26  28
ATOM     27  N   UNL     1      29.461  17.549  -0.905  0.00  0.00    -0.134 NA
ATOM     28  C   UNL     1      28.393  16.699  -0.915  0.00  0.00    +0.086 A 
ATOM     29  C   UNL     1      28.741  15.535  -0.270  0.00  0.00    +0.139 A 
ATOM     30  N   UNL     1      30.037  15.732   0.147  0.00  0.00    -0.220 N 
ATOM     31  N   UNL     1      30.458  16.953  -0.264  0.00  0.00    -0.061 NA
BRANCH  30  32
ATOM     32  C   UNL     1      30.855  14.868   0.918  0.00  0.00    +0.067 A 
ATOM     33  C   UNL     1      31.486  15.338   2.080  0.00  0.00    +0.030 A 
ATOM     34  C   UNL     1      32.337  14.503   2.803  0.00  0.00    +0.031 A 
ATOM     35  C   UNL     1      32.552  13.191   2.375  0.00  0.00    +0.109 A 
ATOM     36  C   UNL     1      31.923  12.706   1.226  0.00  0.00    +0.031 A 
ATOM     37  C   UNL     1      31.066  13.542   0.502  0.00  0.00    +0.030 A 
BRANCH  35  38
ATOM     38  S   UNL     1      33.755  12.210   3.231  0.00  0.00    +0.074 S 
ATOM     39  O   UNL     1      34.467  11.428   2.239  0.00  0.00    -0.150 OA
ATOM     40  O   UNL     1      34.484  13.062   4.141  0.00  0.00    -0.150 OA
BRANCH  38  41
ATOM     41  N   UNL     1      32.820  11.091   4.081  0.00  0.00    -0.194 N 
ATOM     42  H   UNL     1      33.281  10.191   3.967  0.00  0.00    +0.176 HD
ATOM     43  C   UNL     1      32.638  11.463   5.428  0.00  0.00    +0.177 A 
ATOM     44  S   UNL     1      33.595  10.834   6.697  0.00  0.00    -0.059 S 
ATOM     45  C   UNL     1      32.619  11.685   7.824  0.00  0.00    +0.068 A 
ATOM     46  C   UNL     1      31.593  12.320   7.155  0.00  0.00    +0.120 A 
ATOM     47  N   UNL     1      31.625  12.217   5.777  0.00  0.00    -0.232 NA
ENDBRANCH  38  41
ENDBRANCH  35  38
ENDBRANCH  30  32
ENDBRANCH  26  28
ENDBRANCH  25  26
ENDBRANCH   1  25
TORSDOF 13
