REMARK VINA RESULT:    -6.940      3.555      9.840
REMARK INTER + INTRA:         -12.821
REMARK INTER:                 -11.213
REMARK INTRA:                  -1.608
REMARK UNBOUND:                -1.418
REMARK  Name = lig_assembled_20.pdb
REMARK  11 active torsions:
REMARK  status: ('A' for Active; 'I' for Inactive)
REMARK    1  A    between atoms: _2  and  _10
REMARK    2  A    between atoms: _7  and  _8
REMARK    3  A    between atoms: _7  and  _16
REMARK    4  A    between atoms: _16  and  _18
REMARK    5  A    between atoms: _17  and  _22
REMARK    6  A    between atoms: _18  and  _21
REMARK    7  A    between atoms: _26  and  _36
REMARK    8  A    between atoms: _28  and  _29
REMARK    9  A    between atoms: _30  and  _32
REMARK   10  A    between atoms: _32  and  _34
REMARK   11  A    between atoms: _34  and  _36
REMARK                            x       y       z     vdW  Elec       q    Type
REMARK                         _______ _______ _______ _____ _____    ______ ____
ROOT
ATOM      1  C   UNL     1      27.336  17.340  -2.287  0.00  0.00    +0.400 C 
ATOM      2  N   UNL     1      26.544  16.984  -3.353  0.00  0.00    -0.278 N 
ATOM      3  H   UNL     1      25.911  17.835  -3.487  0.00  0.00    +0.152 HD
ATOM      4  O   UNL     1      27.284  18.501  -1.889  0.00  0.00    -0.226 OA
ENDROOT
BRANCH   1   5
ATOM      5  O   UNL     1      28.049  16.390  -1.778  0.00  0.00    -0.450 OA
BRANCH   5   6
ATOM      6  C   UNL     1      28.628  16.032  -0.545  0.00  0.00    +0.240 C 
BRANCH   6   7
ATOM      7  C   UNL     1      29.914  16.768  -0.123  0.00  0.00    +0.100 C 
BRANCH   7   9
ATOM      8  N   UNL     1      31.645  15.019  -0.431  0.00  0.00    -0.134 NA
ATOM      9  C   UNL     1      30.908  15.814   0.399  0.00  0.00    +0.086 A 
ATOM     10  C   UNL     1      31.261  15.549   1.702  0.00  0.00    +0.139 A 
ATOM     11  N   UNL     1      32.231  14.576   1.621  0.00  0.00    -0.220 N 
ATOM     12  N   UNL     1      32.447  14.272   0.318  0.00  0.00    -0.061 NA
BRANCH  11  13
ATOM     13  C   UNL     1      32.938  13.947   2.678  0.00  0.00    +0.068 A 
ATOM     14  C   UNL     1      34.336  14.069   2.753  0.00  0.00    +0.030 A 
ATOM     15  C   UNL     1      35.066  13.464   3.786  0.00  0.00    +0.030 A 
ATOM     16  C   UNL     1      34.343  12.735   4.736  0.00  0.00    +0.066 A 
ATOM     17  C   UNL     1      32.962  12.595   4.689  0.00  0.00    +0.021 A 
ATOM     18  C   UNL     1      32.647  11.800   5.811  0.00  0.00    +0.142 A 
ATOM     19  N   UNL     1      33.724  11.458   6.520  0.00  0.00    -0.181 NA
ATOM     20  N   UNL     1      34.736  12.039   5.850  0.00  0.00    -0.277 N 
ATOM     21  H   UNL     1      35.678  11.920   6.202  0.00  0.00    +0.189 HD
ATOM     22  C   UNL     1      32.239  13.205   3.648  0.00  0.00    +0.039 A 
ENDBRANCH  11  13
ENDBRANCH   7   9
ENDBRANCH   6   7
ENDBRANCH   5   6
ENDBRANCH   1   5
BRANCH   2  23
ATOM     23  C   UNL     1      26.197  15.994  -4.370  0.00  0.00    +0.152 C 
BRANCH  23  24
ATOM     24  C   UNL     1      25.474  14.728  -3.867  0.00  0.00    +0.193 C 
ATOM     25  O   UNL     1      26.497  13.834  -3.375  0.00  0.00    -0.219 OA
BRANCH  24  26
ATOM     26  C   UNL     1      24.498  14.885  -2.680  0.00  0.00    +0.212 C 
ATOM     27  O   UNL     1      23.960  16.217  -2.647  0.00  0.00    -0.218 OA
BRANCH  26  28
ATOM     28  C   UNL     1      23.301  13.859  -2.716  0.00  0.00    +0.171 C 
ATOM     29  O   UNL     1      22.031  14.501  -2.757  0.00  0.00    -0.343 OA
ATOM     30  C   UNL     1      20.812  13.850  -2.552  0.00  0.00    +0.220 C 
ATOM     31  C   UNL     1      20.825  13.008  -1.264  0.00  0.00    +0.076 C 
ATOM     32  C   UNL     1      22.051  12.082  -1.329  0.00  0.00    +0.177 C 
ATOM     33  O   UNL     1      22.089  11.251  -0.178  0.00  0.00    -0.221 OA
ATOM     34  C   UNL     1      23.357  12.926  -1.462  0.00  0.00    +0.155 C 
BRANCH  34  35
ATOM     35  N   UNL     1      24.524  12.050  -1.517  0.00  0.00    -0.202 NA
ATOM     36  C   UNL     1      25.441  11.765  -0.558  0.00  0.00    +0.242 C 
ATOM     37  C   UNL     1      26.374  10.603  -0.783  0.00  0.00    +0.096 C 
ATOM     38  O   UNL     1      25.488  12.451   0.461  0.00  0.00    -0.273 OA
ENDBRANCH  34  35
BRANCH  30  39
ATOM     39  C   UNL     1      20.321  12.977  -3.831  0.00  0.00    +0.391 C 
ATOM     40  O   UNL     1      19.398  12.128  -3.338  0.00  0.00    -0.243 OA
ATOM     41  O   UNL     1      20.780  13.616  -4.913  0.00  0.00    -0.243 OA
ENDBRANCH  30  39
ENDBRANCH  26  28
ENDBRANCH  24  26
ENDBRANCH  23  24
ENDBRANCH   2  23
TORSDOF 11
