REMARK VINA RESULT:    -6.918      2.236      3.596
REMARK INTER + INTRA:         -13.752
REMARK INTER:                 -12.533
REMARK INTRA:                  -1.219
REMARK UNBOUND:                -1.577
REMARK  Name = lig_assembled_66.pdb
REMARK  13 active torsions:
REMARK  status: ('A' for Active; 'I' for Inactive)
REMARK    1  A    between atoms: _2  and  _9
REMARK    2  A    between atoms: _6  and  _7
REMARK    3  A    between atoms: _6  and  _16
REMARK    4  A    between atoms: _9  and  _10
REMARK    5  A    between atoms: _14  and  _15
REMARK    6  A    between atoms: _16  and  _18
REMARK    7  A    between atoms: _17  and  _22
REMARK    8  A    between atoms: _18  and  _21
REMARK    9  A    between atoms: _26  and  _36
REMARK   10  A    between atoms: _28  and  _29
REMARK   11  A    between atoms: _30  and  _32
REMARK   12  A    between atoms: _32  and  _34
REMARK   13  A    between atoms: _34  and  _36
REMARK                            x       y       z     vdW  Elec       q    Type
REMARK                         _______ _______ _______ _____ _____    ______ ____
ROOT
ATOM      1  C   UNL     1      28.323  17.574  -0.611  0.00  0.00    +0.400 C 
ATOM      2  N   UNL     1      29.501  17.543   0.097  0.00  0.00    -0.278 N 
ATOM      3  H   UNL     1      29.453  18.427   0.696  0.00  0.00    +0.152 HD
ATOM      4  O   UNL     1      27.479  18.409  -0.296  0.00  0.00    -0.226 OA
ENDROOT
BRANCH   1   5
ATOM      5  O   UNL     1      28.230  16.723  -1.580  0.00  0.00    -0.450 OA
BRANCH   5   6
ATOM      6  C   UNL     1      27.406  15.657  -1.989  0.00  0.00    +0.240 C 
BRANCH   6   7
ATOM      7  C   UNL     1      26.245  15.983  -2.948  0.00  0.00    +0.100 C 
BRANCH   7   9
ATOM      8  N   UNL     1      26.107  13.550  -3.397  0.00  0.00    -0.134 NA
ATOM      9  C   UNL     1      25.481  14.760  -3.263  0.00  0.00    +0.086 A 
ATOM     10  C   UNL     1      24.123  14.585  -3.425  0.00  0.00    +0.134 A 
ATOM     11  N   UNL     1      23.983  13.237  -3.599  0.00  0.00    -0.247 N 
ATOM     12  N   UNL     1      25.180  12.622  -3.600  0.00  0.00    -0.065 NA
BRANCH  11  13
ATOM     13  C   UNL     1      22.761  12.461  -3.511  0.00  0.00    +0.180 C 
BRANCH  13  14
ATOM     14  C   UNL     1      21.936  12.782  -2.291  0.00  0.00    -0.025 A 
ATOM     15  C   UNL     1      20.911  13.737  -2.361  0.00  0.00    +0.005 A 
ATOM     16  C   UNL     1      20.087  13.980  -1.260  0.00  0.00    +0.002 A 
ATOM     17  C   UNL     1      20.290  13.287  -0.068  0.00  0.00    +0.019 A 
ATOM     18  C   UNL     1      21.330  12.358   0.031  0.00  0.00    +0.052 A 
ATOM     19  C   UNL     1      22.148  12.106  -1.078  0.00  0.00    +0.024 A 
BRANCH  18  20
ATOM     20  C   UNL     1      21.552  11.656   1.261  0.00  0.00    +0.099 C 
ATOM     21  N   UNL     1      21.737  11.081   2.253  0.00  0.00    -0.191 NA
ENDBRANCH  18  20
ENDBRANCH  13  14
ENDBRANCH  11  13
ENDBRANCH   7   9
ENDBRANCH   6   7
ENDBRANCH   5   6
ENDBRANCH   1   5
BRANCH   2  22
ATOM     22  C   UNL     1      30.753  16.854   0.400  0.00  0.00    +0.152 C 
BRANCH  22  23
ATOM     23  C   UNL     1      30.645  15.341   0.678  0.00  0.00    +0.193 C 
ATOM     24  O   UNL     1      30.875  14.670  -0.581  0.00  0.00    -0.219 OA
BRANCH  23  25
ATOM     25  C   UNL     1      31.677  14.715   1.641  0.00  0.00    +0.212 C 
ATOM     26  O   UNL     1      31.934  15.599   2.745  0.00  0.00    -0.218 OA
BRANCH  25  27
ATOM     27  C   UNL     1      31.231  13.314   2.210  0.00  0.00    +0.171 C 
ATOM     28  O   UNL     1      29.834  13.251   2.475  0.00  0.00    -0.343 OA
ATOM     29  C   UNL     1      29.215  12.230   3.202  0.00  0.00    +0.220 C 
ATOM     30  C   UNL     1      29.918  11.980   4.547  0.00  0.00    +0.076 C 
ATOM     31  C   UNL     1      31.410  11.753   4.254  0.00  0.00    +0.177 C 
ATOM     32  O   UNL     1      32.102  11.477   5.464  0.00  0.00    -0.221 OA
ATOM     33  C   UNL     1      32.011  12.997   3.528  0.00  0.00    +0.155 C 
BRANCH  33  34
ATOM     34  N   UNL     1      33.430  12.788   3.254  0.00  0.00    -0.202 NA
ATOM     35  C   UNL     1      34.520  13.284   3.893  0.00  0.00    +0.242 C 
ATOM     36  C   UNL     1      35.865  12.676   3.592  0.00  0.00    +0.096 C 
ATOM     37  O   UNL     1      34.386  14.207   4.695  0.00  0.00    -0.273 OA
ENDBRANCH  33  34
BRANCH  29  38
ATOM     38  C   UNL     1      29.034  10.854   2.358  0.00  0.00    +0.391 C 
ATOM     39  O   UNL     1      29.314  11.188   1.083  0.00  0.00    -0.243 OA
ATOM     40  O   UNL     1      28.975   9.870   3.264  0.00  0.00    -0.243 OA
ENDBRANCH  29  38
ENDBRANCH  25  27
ENDBRANCH  23  25
ENDBRANCH  22  23
ENDBRANCH   2  22
TORSDOF 13
