REMARK VINA RESULT:    -6.839      1.612      2.787
REMARK INTER + INTRA:         -13.501
REMARK INTER:                 -12.052
REMARK INTRA:                  -1.449
REMARK UNBOUND:                -2.263
REMARK  Name = lig_assembled_52.pdb
REMARK  11 active torsions:
REMARK  status: ('A' for Active; 'I' for Inactive)
REMARK    1  A    between atoms: _2  and  _9
REMARK    2  A    between atoms: _6  and  _7
REMARK    3  A    between atoms: _6  and  _13
REMARK    4  A    between atoms: _13  and  _15
REMARK    5  A    between atoms: _14  and  _19
REMARK    6  A    between atoms: _15  and  _18
REMARK    7  A    between atoms: _23  and  _33
REMARK    8  A    between atoms: _25  and  _26
REMARK    9  A    between atoms: _27  and  _29
REMARK   10  A    between atoms: _29  and  _31
REMARK   11  A    between atoms: _31  and  _33
REMARK                            x       y       z     vdW  Elec       q    Type
REMARK                         _______ _______ _______ _____ _____    ______ ____
ROOT
ATOM      1  C   UNL     1      29.162  15.083   0.111  0.00  0.00    +0.152 C 
ENDROOT
BRANCH   1   3
ATOM      2  C   UNL     1      27.971  17.425  -0.626  0.00  0.00    +0.400 C 
ATOM      3  N   UNL     1      28.594  16.429   0.088  0.00  0.00    -0.278 N 
ATOM      4  H   UNL     1      28.682  16.845   1.068  0.00  0.00    +0.152 HD
ATOM      5  O   UNL     1      27.527  18.390  -0.009  0.00  0.00    -0.226 OA
BRANCH   2   6
ATOM      6  O   UNL     1      27.941  17.260  -1.908  0.00  0.00    -0.450 OA
BRANCH   6   7
ATOM      7  C   UNL     1      27.042  17.404  -2.983  0.00  0.00    +0.240 C 
BRANCH   7   8
ATOM      8  C   UNL     1      26.742  16.153  -3.831  0.00  0.00    +0.100 C 
BRANCH   8  10
ATOM      9  N   UNL     1      26.529  14.111  -2.452  0.00  0.00    -0.134 NA
ATOM     10  C   UNL     1      25.944  15.187  -3.054  0.00  0.00    +0.086 A 
ATOM     11  C   UNL     1      24.593  15.167  -2.793  0.00  0.00    +0.140 A 
ATOM     12  N   UNL     1      24.400  14.058  -2.001  0.00  0.00    -0.218 N 
ATOM     13  N   UNL     1      25.586  13.428  -1.819  0.00  0.00    -0.060 NA
BRANCH  12  14
ATOM     14  C   UNL     1      23.204  13.587  -1.419  0.00  0.00    +0.085 A 
ATOM     15  C   UNL     1      23.174  12.453  -0.602  0.00  0.00    +0.031 A 
ATOM     16  C   UNL     1      21.957  12.026  -0.075  0.00  0.00    +0.022 A 
ATOM     17  C   UNL     1      20.815  12.747  -0.381  0.00  0.00    +0.111 A 
ATOM     18  N   UNL     1      20.812  13.848  -1.160  0.00  0.00    -0.261 NA
ATOM     19  C   UNL     1      22.006  14.249  -1.664  0.00  0.00    +0.138 A 
ENDBRANCH  12  14
ENDBRANCH   8  10
ENDBRANCH   7   8
ENDBRANCH   6   7
ENDBRANCH   2   6
ENDBRANCH   1   3
BRANCH   1  20
ATOM     20  C   UNL     1      30.696  14.991  -0.025  0.00  0.00    +0.193 C 
ATOM     21  O   UNL     1      31.141  16.251  -0.573  0.00  0.00    -0.219 OA
BRANCH  20  22
ATOM     22  C   UNL     1      31.519  14.822   1.271  0.00  0.00    +0.212 C 
ATOM     23  O   UNL     1      31.282  15.923   2.164  0.00  0.00    -0.218 OA
BRANCH  22  24
ATOM     24  C   UNL     1      31.211  13.479   2.036  0.00  0.00    +0.171 C 
ATOM     25  O   UNL     1      30.024  13.553   2.818  0.00  0.00    -0.343 OA
ATOM     26  C   UNL     1      29.649  12.607   3.775  0.00  0.00    +0.220 C 
ATOM     27  C   UNL     1      30.793  12.308   4.760  0.00  0.00    +0.076 C 
ATOM     28  C   UNL     1      32.033  11.935   3.930  0.00  0.00    +0.177 C 
ATOM     29  O   UNL     1      33.112  11.610   4.795  0.00  0.00    -0.221 OA
ATOM     30  C   UNL     1      32.409  13.105   2.970  0.00  0.00    +0.155 C 
BRANCH  30  31
ATOM     31  N   UNL     1      33.591  12.757   2.184  0.00  0.00    -0.202 NA
ATOM     32  C   UNL     1      34.834  13.302   2.199  0.00  0.00    +0.242 C 
ATOM     33  C   UNL     1      35.947  12.563   1.503  0.00  0.00    +0.096 C 
ATOM     34  O   UNL     1      35.022  14.372   2.774  0.00  0.00    -0.273 OA
ENDBRANCH  30  31
BRANCH  26  35
ATOM     35  C   UNL     1      29.043  11.243   3.133  0.00  0.00    +0.391 C 
ATOM     36  O   UNL     1      29.029  10.357   4.149  0.00  0.00    -0.243 OA
ATOM     37  O   UNL     1      28.517  11.591   1.953  0.00  0.00    -0.243 OA
ENDBRANCH  26  35
ENDBRANCH  22  24
ENDBRANCH  20  22
ENDBRANCH   1  20
TORSDOF 11
