REMARK VINA RESULT:    -6.844      2.574      8.146
REMARK INTER + INTRA:         -13.072
REMARK INTER:                 -10.938
REMARK INTRA:                  -2.134
REMARK UNBOUND:                -1.427
REMARK  Name = lig_assembled_6.pdb
REMARK  12 active torsions:
REMARK  status: ('A' for Active; 'I' for Inactive)
REMARK    1  A    between atoms: _2  and  _9
REMARK    2  A    between atoms: _3  and  _12
REMARK    3  A    between atoms: _6  and  _7
REMARK    4  A    between atoms: _6  and  _16
REMARK    5  A    between atoms: _16  and  _18
REMARK    6  A    between atoms: _17  and  _22
REMARK    7  A    between atoms: _18  and  _21
REMARK    8  A    between atoms: _26  and  _36
REMARK    9  A    between atoms: _28  and  _29
REMARK   10  A    between atoms: _30  and  _32
REMARK   11  A    between atoms: _32  and  _34
REMARK   12  A    between atoms: _34  and  _36
REMARK                            x       y       z     vdW  Elec       q    Type
REMARK                         _______ _______ _______ _____ _____    ______ ____
ROOT
ATOM      1  C   UNL     1      25.656  15.939  -4.439  0.00  0.00    +0.400 C 
ATOM      2  N   UNL     1      24.368  15.488  -4.272  0.00  0.00    -0.278 N 
ATOM      3  H   UNL     1      24.169  14.967  -5.184  0.00  0.00    +0.152 HD
ATOM      4  O   UNL     1      26.293  15.529  -5.405  0.00  0.00    -0.226 OA
ENDROOT
BRANCH   2   5
ATOM      5  C   UNL     1      23.184  15.391  -3.423  0.00  0.00    +0.152 C 
BRANCH   5   6
ATOM      6  C   UNL     1      23.290  14.436  -2.215  0.00  0.00    +0.193 C 
ATOM      7  O   UNL     1      21.988  14.411  -1.590  0.00  0.00    -0.219 OA
BRANCH   6   8
ATOM      8  C   UNL     1      23.609  12.953  -2.502  0.00  0.00    +0.212 C 
ATOM      9  O   UNL     1      23.853  12.754  -3.904  0.00  0.00    -0.218 OA
BRANCH   8  10
ATOM     10  C   UNL     1      24.849  12.413  -1.693  0.00  0.00    +0.171 C 
ATOM     11  O   UNL     1      25.905  11.971  -2.540  0.00  0.00    -0.343 OA
ATOM     12  C   UNL     1      27.007  11.231  -2.105  0.00  0.00    +0.220 C 
ATOM     13  C   UNL     1      26.581  10.006  -1.277  0.00  0.00    +0.076 C 
ATOM     14  C   UNL     1      25.653  10.505  -0.157  0.00  0.00    +0.177 C 
ATOM     15  O   UNL     1      25.260   9.415   0.665  0.00  0.00    -0.221 OA
ATOM     16  C   UNL     1      24.413  11.230  -0.768  0.00  0.00    +0.155 C 
BRANCH  16  17
ATOM     17  N   UNL     1      23.526  11.699   0.293  0.00  0.00    -0.202 NA
ATOM     18  C   UNL     1      22.294  11.257   0.653  0.00  0.00    +0.242 C 
ATOM     19  C   UNL     1      21.724  11.721   1.968  0.00  0.00    +0.096 C 
ATOM     20  O   UNL     1      21.680  10.496  -0.092  0.00  0.00    -0.273 OA
ENDBRANCH  16  17
BRANCH  12  21
ATOM     21  C   UNL     1      28.118  12.122  -1.323  0.00  0.00    +0.391 C 
ATOM     22  O   UNL     1      28.694  11.273  -0.451  0.00  0.00    -0.243 OA
ATOM     23  O   UNL     1      28.250  13.251  -2.030  0.00  0.00    -0.243 OA
ENDBRANCH  12  21
ENDBRANCH   8  10
ENDBRANCH   6   8
ENDBRANCH   5   6
ENDBRANCH   2   5
BRANCH   1  24
ATOM     24  O   UNL     1      26.068  16.794  -3.560  0.00  0.00    -0.450 OA
BRANCH  24  25
ATOM     25  C   UNL     1      27.277  17.322  -3.069  0.00  0.00    +0.240 C 
BRANCH  25  26
ATOM     26  C   UNL     1      27.329  17.714  -1.580  0.00  0.00    +0.100 C 
BRANCH  26  28
ATOM     27  N   UNL     1      29.705  17.580  -0.898  0.00  0.00    -0.134 NA
ATOM     28  C   UNL     1      28.454  17.035  -0.910  0.00  0.00    +0.086 A 
ATOM     29  C   UNL     1      28.476  15.845  -0.220  0.00  0.00    +0.139 A 
ATOM     30  N   UNL     1      29.770  15.718   0.229  0.00  0.00    -0.220 N 
ATOM     31  N   UNL     1      30.501  16.770  -0.212  0.00  0.00    -0.061 NA
BRANCH  30  32
ATOM     32  C   UNL     1      30.328  14.708   1.057  0.00  0.00    +0.067 A 
ATOM     33  C   UNL     1      29.510  13.942   1.902  0.00  0.00    +0.034 A 
ATOM     34  C   UNL     1      30.077  12.993   2.759  0.00  0.00    +0.086 A 
ATOM     35  C   UNL     1      31.465  12.805   2.768  0.00  0.00    +0.273 A 
ATOM     36  C   UNL     1      32.287  13.545   1.910  0.00  0.00    +0.086 A 
ATOM     37  C   UNL     1      31.717  14.493   1.054  0.00  0.00    +0.034 A 
BRANCH  35  38
ATOM     38  N   UNL     1      32.059  11.838   3.700  0.00  0.00    +0.080 N 
ATOM     39  O   UNL     1      31.658  10.666   3.645  0.00  0.00    +0.041 OA
ATOM     40  O   UNL     1      32.920  12.250   4.489  0.00  0.00    -0.576 OA
ENDBRANCH  35  38
ENDBRANCH  30  32
ENDBRANCH  26  28
ENDBRANCH  25  26
ENDBRANCH  24  25
ENDBRANCH   1  24
TORSDOF 12
