REMARK VINA RESULT:    -6.457      3.821      8.228
REMARK INTER + INTRA:         -12.459
REMARK INTER:                 -10.318
REMARK INTRA:                  -2.141
REMARK UNBOUND:                -1.850
REMARK  Name = lig_assembled_2.pdb
REMARK  11 active torsions:
REMARK  status: ('A' for Active; 'I' for Inactive)
REMARK    1  A    between atoms: _2  and  _8
REMARK    2  A    between atoms: _5  and  _6
REMARK    3  A    between atoms: _5  and  _13
REMARK    4  A    between atoms: _13  and  _15
REMARK    5  A    between atoms: _14  and  _19
REMARK    6  A    between atoms: _15  and  _18
REMARK    7  A    between atoms: _23  and  _33
REMARK    8  A    between atoms: _25  and  _26
REMARK    9  A    between atoms: _27  and  _29
REMARK   10  A    between atoms: _29  and  _31
REMARK   11  A    between atoms: _31  and  _33
REMARK                            x       y       z     vdW  Elec       q    Type
REMARK                         _______ _______ _______ _____ _____    ______ ____
ROOT
ATOM      1  C   UNL     1      26.197  15.324  -4.412  0.00  0.00    +0.400 C 
ATOM      2  N   UNL     1      25.839  14.384  -3.474  0.00  0.00    -0.278 N 
ATOM      3  H   UNL     1      25.632  13.515  -4.062  0.00  0.00    +0.152 HD
ATOM      4  O   UNL     1      26.370  14.951  -5.569  0.00  0.00    -0.226 OA
ENDROOT
BRANCH   1   5
ATOM      5  O   UNL     1      26.288  16.539  -3.980  0.00  0.00    -0.450 OA
BRANCH   5   6
ATOM      6  C   UNL     1      27.195  17.359  -3.280  0.00  0.00    +0.240 C 
BRANCH   6   7
ATOM      7  C   UNL     1      27.067  17.413  -1.746  0.00  0.00    +0.100 C 
BRANCH   7   9
ATOM      8  N   UNL     1      29.366  17.741  -0.892  0.00  0.00    -0.134 NA
ATOM      9  C   UNL     1      28.303  16.915  -1.112  0.00  0.00    +0.086 A 
ATOM     10  C   UNL     1      28.608  15.656  -0.649  0.00  0.00    +0.139 A 
ATOM     11  N   UNL     1      29.875  15.768  -0.122  0.00  0.00    -0.220 N 
ATOM     12  N   UNL     1      30.319  17.037  -0.298  0.00  0.00    -0.061 NA
BRANCH  11  13
ATOM     13  C   UNL     1      30.652  14.784   0.542  0.00  0.00    +0.067 A 
ATOM     14  C   UNL     1      31.751  14.185  -0.092  0.00  0.00    +0.029 A 
ATOM     15  C   UNL     1      32.481  13.189   0.568  0.00  0.00    +0.022 A 
ATOM     16  C   UNL     1      32.119  12.792   1.853  0.00  0.00    +0.041 A 
ATOM     17 CL   UNL     1      33.008  11.553   2.646  0.00  0.00    -0.084 Cl
ATOM     18  C   UNL     1      31.038  13.391   2.495  0.00  0.00    +0.022 A 
ATOM     19  C   UNL     1      30.304  14.387   1.845  0.00  0.00    +0.029 A 
ENDBRANCH  11  13
ENDBRANCH   7   9
ENDBRANCH   6   7
ENDBRANCH   5   6
ENDBRANCH   1   5
BRANCH   2  20
ATOM     20  C   UNL     1      25.634  14.044  -2.069  0.00  0.00    +0.152 C 
BRANCH  20  21
ATOM     21  C   UNL     1      24.303  13.344  -1.726  0.00  0.00    +0.193 C 
ATOM     22  O   UNL     1      23.289  13.951  -2.558  0.00  0.00    -0.219 OA
BRANCH  21  23
ATOM     23  C   UNL     1      24.192  11.833  -2.025  0.00  0.00    +0.212 C 
ATOM     24  O   UNL     1      25.400  11.352  -2.635  0.00  0.00    -0.218 OA
BRANCH  23  25
ATOM     25  C   UNL     1      23.894  10.964  -0.744  0.00  0.00    +0.171 C 
ATOM     26  O   UNL     1      22.521  10.997  -0.366  0.00  0.00    -0.343 OA
ATOM     27  C   UNL     1      22.027  10.524   0.851  0.00  0.00    +0.220 C 
ATOM     28  C   UNL     1      22.813  11.091   2.046  0.00  0.00    +0.076 C 
ATOM     29  C   UNL     1      24.303  10.804   1.797  0.00  0.00    +0.177 C 
ATOM     30  O   UNL     1      25.074  11.274   2.893  0.00  0.00    -0.221 OA
ATOM     31  C   UNL     1      24.761  11.463   0.458  0.00  0.00    +0.155 C 
BRANCH  31  32
ATOM     32  N   UNL     1      26.178  11.198   0.221  0.00  0.00    -0.202 NA
ATOM     33  C   UNL     1      27.268  11.923   0.580  0.00  0.00    +0.242 C 
ATOM     34  C   UNL     1      28.625  11.276   0.470  0.00  0.00    +0.096 C 
ATOM     35  O   UNL     1      27.126  13.075   0.983  0.00  0.00    -0.273 OA
ENDBRANCH  31  32
BRANCH  27  36
ATOM     36  C   UNL     1      21.921   8.904   0.921  0.00  0.00    +0.391 C 
ATOM     37  O   UNL     1      21.669   8.628   2.216  0.00  0.00    -0.243 OA
ATOM     38  O   UNL     1      21.822   8.485  -0.346  0.00  0.00    -0.243 OA
ENDBRANCH  27  36
ENDBRANCH  23  25
ENDBRANCH  21  23
ENDBRANCH  20  21
ENDBRANCH   2  20
TORSDOF 11
