REMARK VINA RESULT:    -6.053      3.748      9.955
REMARK INTER + INTRA:         -14.800
REMARK INTER:                 -12.590
REMARK INTRA:                  -2.210
REMARK UNBOUND:                -3.439
REMARK  Name = lig_assembled_84.pdb
REMARK  16 active torsions:
REMARK  status: ('A' for Active; 'I' for Inactive)
REMARK    1  A    between atoms: _2  and  _10
REMARK    2  A    between atoms: _3  and  _13
REMARK    3  A    between atoms: _4  and  _16
REMARK    4  A    between atoms: _7  and  _8
REMARK    5  A    between atoms: _7  and  _23
REMARK    6  A    between atoms: _10  and  _11
REMARK    7  A    between atoms: _11  and  _12
REMARK    8  A    between atoms: _11  and  _13
REMARK    9  A    between atoms: _23  and  _25
REMARK   10  A    between atoms: _24  and  _29
REMARK   11  A    between atoms: _25  and  _28
REMARK   12  A    between atoms: _33  and  _43
REMARK   13  A    between atoms: _35  and  _36
REMARK   14  A    between atoms: _37  and  _39
REMARK   15  A    between atoms: _39  and  _41
REMARK   16  A    between atoms: _41  and  _43
REMARK                            x       y       z     vdW  Elec       q    Type
REMARK                         _______ _______ _______ _____ _____    ______ ____
ROOT
ATOM      1  C   UNL     1      26.812  15.458  -2.528  0.00  0.00    +0.240 C 
ENDROOT
BRANCH   1   2
ATOM      2  C   UNL     1      27.326  16.816  -2.012  0.00  0.00    +0.100 C 
BRANCH   2   4
ATOM      3  N   UNL     1      29.360  17.638  -0.860  0.00  0.00    -0.134 NA
ATOM      4  C   UNL     1      28.462  16.629  -1.091  0.00  0.00    +0.086 A 
ATOM      5  C   UNL     1      28.844  15.515  -0.377  0.00  0.00    +0.133 A 
ATOM      6  N   UNL     1      30.014  15.889   0.213  0.00  0.00    -0.251 N 
ATOM      7  N   UNL     1      30.311  17.171  -0.060  0.00  0.00    -0.065 NA
BRANCH   6   8
ATOM      8  C   UNL     1      30.957  15.047   0.923  0.00  0.00    +0.149 C 
BRANCH   8   9
ATOM      9  C   UNL     1      31.484  13.856   0.105  0.00  0.00    +0.021 C 
ATOM     10  C   UNL     1      32.401  14.325  -1.034  0.00  0.00    +0.010 C 
BRANCH   9  11
ATOM     11  C   UNL     1      32.268  12.863   0.998  0.00  0.00    +0.089 C 
BRANCH  11  12
ATOM     12  N   UNL     1      32.270  13.166   2.436  0.00  0.00    -0.299 NA
ATOM     13  C   UNL     1      33.668  13.278   2.931  0.00  0.00    +0.103 C 
ATOM     14  C   UNL     1      33.716  13.679   4.419  0.00  0.00    +0.120 C 
ATOM     15  N   UNL     1      32.985  12.692   5.221  0.00  0.00    -0.327 N 
ATOM     16  C   UNL     1      31.602  12.458   4.781  0.00  0.00    +0.120 C 
ATOM     17  C   UNL     1      31.571  12.144   3.257  0.00  0.00    +0.103 C 
BRANCH  15  18
ATOM     18  C   UNL     1      33.532  12.078   6.325  0.00  0.00    +0.030 A 
ATOM     19  C   UNL     1      34.459  11.027   6.193  0.00  0.00    +0.024 A 
ATOM     20  C   UNL     1      35.006  10.374   7.302  0.00  0.00    +0.022 A 
ATOM     21  C   UNL     1      34.641  10.770   8.578  0.00  0.00    +0.041 A 
ATOM     22 CL   UNL     1      35.306   9.968   9.948  0.00  0.00    -0.084 Cl
ATOM     23  C   UNL     1      33.731  11.805   8.753  0.00  0.00    +0.022 A 
ATOM     24  C   UNL     1      33.184  12.447   7.632  0.00  0.00    +0.024 A 
ENDBRANCH  15  18
ENDBRANCH  11  12
ENDBRANCH   9  11
ENDBRANCH   8   9
ENDBRANCH   6   8
ENDBRANCH   2   4
ENDBRANCH   1   2
BRANCH   1  25
ATOM     25  O   UNL     1      25.662  15.465  -3.341  0.00  0.00    -0.450 OA
BRANCH  25  26
ATOM     26  C   UNL     1      25.305  15.128  -4.537  0.00  0.00    +0.400 C 
ATOM     27  N   UNL     1      24.210  14.300  -4.620  0.00  0.00    -0.278 N 
ATOM     28  H   UNL     1      23.972  14.309  -5.662  0.00  0.00    +0.152 HD
ATOM     29  O   UNL     1      25.830  15.500  -5.583  0.00  0.00    -0.226 OA
BRANCH  27  30
ATOM     30  C   UNL     1      23.258  13.424  -3.942  0.00  0.00    +0.152 C 
BRANCH  30  31
ATOM     31  C   UNL     1      23.865  12.262  -3.128  0.00  0.00    +0.193 C 
ATOM     32  O   UNL     1      25.048  11.831  -3.837  0.00  0.00    -0.219 OA
BRANCH  31  33
ATOM     33  C   UNL     1      24.364  12.573  -1.700  0.00  0.00    +0.212 C 
ATOM     34  O   UNL     1      23.866  13.848  -1.261  0.00  0.00    -0.218 OA
BRANCH  33  35
ATOM     35  C   UNL     1      23.951  11.480  -0.642  0.00  0.00    +0.171 C 
ATOM     36  O   UNL     1      22.554  11.483  -0.368  0.00  0.00    -0.343 OA
ATOM     37  C   UNL     1      21.957  10.796   0.692  0.00  0.00    +0.220 C 
ATOM     38  C   UNL     1      22.657  11.093   2.030  0.00  0.00    +0.076 C 
ATOM     39  C   UNL     1      24.157  10.813   1.839  0.00  0.00    +0.177 C 
ATOM     40  O   UNL     1      24.847  11.033   3.061  0.00  0.00    -0.221 OA
ATOM     41  C   UNL     1      24.729  11.706   0.695  0.00  0.00    +0.155 C 
BRANCH  41  42
ATOM     42  N   UNL     1      26.156  11.448   0.516  0.00  0.00    -0.202 NA
ATOM     43  C   UNL     1      27.228  12.104   1.028  0.00  0.00    +0.242 C 
ATOM     44  C   UNL     1      28.582  11.453   0.925  0.00  0.00    +0.096 C 
ATOM     45  O   UNL     1      27.071  13.202   1.560  0.00  0.00    -0.273 OA
ENDBRANCH  41  42
BRANCH  37  46
ATOM     46  C   UNL     1      21.819   9.198   0.432  0.00  0.00    +0.391 C 
ATOM     47  O   UNL     1      22.133   9.029  -0.868  0.00  0.00    -0.243 OA
ATOM     48  O   UNL     1      21.747   8.631   1.642  0.00  0.00    -0.243 OA
ENDBRANCH  37  46
ENDBRANCH  33  35
ENDBRANCH  31  33
ENDBRANCH  30  31
ENDBRANCH  27  30
ENDBRANCH  25  26
ENDBRANCH   1  25
TORSDOF 15
