REMARK VINA RESULT:    -7.612      1.719      2.983
REMARK INTER + INTRA:         -14.877
REMARK INTER:                 -13.498
REMARK INTRA:                  -1.379
REMARK UNBOUND:                -1.480
REMARK  Name = lig_assembled_58.pdb
REMARK  13 active torsions:
REMARK  status: ('A' for Active; 'I' for Inactive)
REMARK    1  A    between atoms: _2  and  _8
REMARK    2  A    between atoms: _5  and  _6
REMARK    3  A    between atoms: _5  and  _20
REMARK    4  A    between atoms: _8  and  _9
REMARK    5  A    between atoms: _8  and  _15
REMARK    6  A    between atoms: _20  and  _22
REMARK    7  A    between atoms: _21  and  _26
REMARK    8  A    between atoms: _22  and  _25
REMARK    9  A    between atoms: _30  and  _40
REMARK   10  A    between atoms: _32  and  _33
REMARK   11  A    between atoms: _34  and  _36
REMARK   12  A    between atoms: _36  and  _38
REMARK   13  A    between atoms: _38  and  _40
REMARK                            x       y       z     vdW  Elec       q    Type
REMARK                         _______ _______ _______ _____ _____    ______ ____
ROOT
ATOM      1  C   UNL     1      27.852  17.558  -1.178  0.00  0.00    +0.400 C 
ATOM      2  N   UNL     1      28.737  16.878  -0.375  0.00  0.00    -0.278 N 
ATOM      3  H   UNL     1      28.944  17.574   0.410  0.00  0.00    +0.152 HD
ATOM      4  O   UNL     1      27.392  18.620  -0.764  0.00  0.00    -0.226 OA
ENDROOT
BRANCH   2   5
ATOM      5  C   UNL     1      29.493  15.656  -0.113  0.00  0.00    +0.152 C 
BRANCH   5   6
ATOM      6  C   UNL     1      31.003  15.833   0.144  0.00  0.00    +0.193 C 
ATOM      7  O   UNL     1      31.172  15.935   1.575  0.00  0.00    -0.219 OA
BRANCH   6   8
ATOM      8  C   UNL     1      31.939  14.677  -0.273  0.00  0.00    +0.212 C 
ATOM      9  O   UNL     1      32.934  15.146  -1.198  0.00  0.00    -0.218 OA
BRANCH   8  10
ATOM     10  C   UNL     1      32.668  13.993   0.946  0.00  0.00    +0.171 C 
ATOM     11  O   UNL     1      34.078  13.910   0.766  0.00  0.00    -0.343 OA
ATOM     12  C   UNL     1      34.931  13.145   1.564  0.00  0.00    +0.220 C 
ATOM     13  C   UNL     1      34.432  11.697   1.708  0.00  0.00    +0.076 C 
ATOM     14  C   UNL     1      32.973  11.756   2.191  0.00  0.00    +0.177 C 
ATOM     15  O   UNL     1      32.474  10.439   2.378  0.00  0.00    -0.221 OA
ATOM     16  C   UNL     1      32.101  12.553   1.171  0.00  0.00    +0.155 C 
BRANCH  16  17
ATOM     17  N   UNL     1      30.713  12.605   1.623  0.00  0.00    -0.202 NA
ATOM     18  C   UNL     1      29.591  12.111   1.040  0.00  0.00    +0.242 C 
ATOM     19  C   UNL     1      28.329  12.044   1.859  0.00  0.00    +0.096 C 
ATOM     20  O   UNL     1      29.631  11.733  -0.130  0.00  0.00    -0.273 OA
ENDBRANCH  16  17
BRANCH  12  21
ATOM     21  C   UNL     1      35.239  13.817   3.011  0.00  0.00    +0.391 C 
ATOM     22  O   UNL     1      36.475  13.393   3.335  0.00  0.00    -0.243 OA
ATOM     23  O   UNL     1      34.301  14.755   3.190  0.00  0.00    -0.243 OA
ENDBRANCH  12  21
ENDBRANCH   8  10
ENDBRANCH   6   8
ENDBRANCH   5   6
ENDBRANCH   2   5
BRANCH   1  24
ATOM     24  O   UNL     1      27.608  17.017  -2.326  0.00  0.00    -0.450 OA
BRANCH  24  25
ATOM     25  C   UNL     1      26.853  17.271  -3.488  0.00  0.00    +0.240 C 
BRANCH  25  26
ATOM     26  C   UNL     1      26.395  16.057  -4.318  0.00  0.00    +0.100 C 
BRANCH  26  28
ATOM     27  N   UNL     1      24.842  15.721  -2.408  0.00  0.00    -0.134 NA
ATOM     28  C   UNL     1      25.229  15.415  -3.684  0.00  0.00    +0.086 A 
ATOM     29  C   UNL     1      24.351  14.495  -4.209  0.00  0.00    +0.134 A 
ATOM     30  N   UNL     1      23.364  14.396  -3.266  0.00  0.00    -0.240 N 
ATOM     31  N   UNL     1      23.710  15.077  -2.151  0.00  0.00    -0.065 NA
BRANCH  30  32
ATOM     32  C   UNL     1      22.057  13.717  -3.348  0.00  0.00    +0.169 C 
BRANCH  32  33
ATOM     33  C   UNL     1      20.965  14.602  -3.966  0.00  0.00    -0.019 A 
ATOM     34  C   UNL     1      19.795  14.041  -4.511  0.00  0.00    +0.006 A 
ATOM     35  C   UNL     1      18.806  14.852  -5.075  0.00  0.00    +0.000 A 
ATOM     36  C   UNL     1      18.955  16.235  -5.082  0.00  0.00    +0.000 A 
ATOM     37  C   UNL     1      20.075  16.814  -4.500  0.00  0.00    +0.000 A 
ATOM     38  C   UNL     1      21.059  16.007  -3.932  0.00  0.00    +0.006 A 
ENDBRANCH  32  33
BRANCH  32  39
ATOM     39  C   UNL     1      21.699  13.105  -1.986  0.00  0.00    -0.019 A 
ATOM     40  C   UNL     1      20.797  13.763  -1.132  0.00  0.00    +0.006 A 
ATOM     41  C   UNL     1      20.509  13.245   0.133  0.00  0.00    +0.000 A 
ATOM     42  C   UNL     1      21.101  12.058   0.560  0.00  0.00    +0.000 A 
ATOM     43  C   UNL     1      21.997  11.394  -0.269  0.00  0.00    +0.000 A 
ATOM     44  C   UNL     1      22.301  11.919  -1.524  0.00  0.00    +0.006 A 
ENDBRANCH  32  39
ENDBRANCH  30  32
ENDBRANCH  26  28
ENDBRANCH  25  26
ENDBRANCH  24  25
ENDBRANCH   1  24
TORSDOF 13
