REMARK VINA RESULT:    -6.774      2.288      4.479
REMARK INTER + INTRA:         -15.076
REMARK INTER:                 -12.805
REMARK INTRA:                  -2.271
REMARK UNBOUND:                -1.965
REMARK  Name = lig_assembled_11.pdb
REMARK  17 active torsions:
REMARK  status: ('A' for Active; 'I' for Inactive)
REMARK    1  A    between atoms: _2  and  _8
REMARK    2  A    between atoms: _4  and  _8
REMARK    3  A    between atoms: _4  and  _12
REMARK    4  A    between atoms: _5  and  _6
REMARK    5  A    between atoms: _5  and  _16
REMARK    6  A    between atoms: _8  and  _9
REMARK    7  A    between atoms: _9  and  _10
REMARK    8  A    between atoms: _10  and  _11
REMARK    9  A    between atoms: _11  and  _14
REMARK   10  A    between atoms: _16  and  _18
REMARK   11  A    between atoms: _17  and  _22
REMARK   12  A    between atoms: _18  and  _21
REMARK   13  A    between atoms: _26  and  _36
REMARK   14  A    between atoms: _28  and  _29
REMARK   15  A    between atoms: _30  and  _32
REMARK   16  A    between atoms: _32  and  _34
REMARK   17  A    between atoms: _34  and  _36
REMARK                            x       y       z     vdW  Elec       q    Type
REMARK                         _______ _______ _______ _____ _____    ______ ____
ROOT
ATOM      1  C   UNL     1      25.603  11.653   1.460  0.00  0.00    +0.400 C 
ATOM      2  N   UNL     1      26.617  12.546   1.207  0.00  0.00    -0.278 N 
ATOM      3  H   UNL     1      26.734  13.057   2.138  0.00  0.00    +0.152 HD
ATOM      4  O   UNL     1      25.227  11.517   2.621  0.00  0.00    -0.226 OA
ENDROOT
BRANCH   1   5
ATOM      5  O   UNL     1      25.113  11.054   0.424  0.00  0.00    -0.450 OA
BRANCH   5   6
ATOM      6  C   UNL     1      24.410  11.364  -0.757  0.00  0.00    +0.240 C 
BRANCH   6   7
ATOM      7  C   UNL     1      23.356  12.485  -0.682  0.00  0.00    +0.100 C 
BRANCH   7   9
ATOM      8  N   UNL     1      22.874  14.564  -1.937  0.00  0.00    -0.134 NA
ATOM      9  C   UNL     1      23.782  13.646  -1.487  0.00  0.00    +0.086 A 
ATOM     10  C   UNL     1      25.040  14.017  -1.904  0.00  0.00    +0.134 A 
ATOM     11  N   UNL     1      24.831  15.145  -2.642  0.00  0.00    -0.238 N 
ATOM     12  N   UNL     1      23.528  15.485  -2.632  0.00  0.00    -0.065 NA
BRANCH  11  13
ATOM     13  C   UNL     1      25.785  16.053  -3.273  0.00  0.00    +0.217 C 
BRANCH  13  14
ATOM     14  C   UNL     1      26.084  15.714  -4.726  0.00  0.00    +0.330 C 
ATOM     15  O   UNL     1      27.183  15.750  -5.258  0.00  0.00    -0.249 OA
BRANCH  14  16
ATOM     16  O   UNL     1      24.990  15.355  -5.445  0.00  0.00    -0.479 OA
ATOM     17  H   UNL     1      24.583  16.042  -6.009  0.00  0.00    +0.295 HD
ENDBRANCH  14  16
ENDBRANCH  13  14
BRANCH  13  18
ATOM     18  C   UNL     1      27.061  16.222  -2.428  0.00  0.00    +0.049 C 
BRANCH  18  19
ATOM     19  C   UNL     1      27.272  17.628  -1.853  0.00  0.00    +0.123 C 
BRANCH  19  20
ATOM     20  C   UNL     1      28.282  17.606  -0.727  0.00  0.00    +0.305 C 
ATOM     21  O   UNL     1      29.478  17.409  -0.869  0.00  0.00    -0.251 OA
BRANCH  20  22
ATOM     22  O   UNL     1      27.715  17.805   0.483  0.00  0.00    -0.481 OA
ATOM     23  H   UNL     1      26.842  18.239   0.455  0.00  0.00    +0.295 HD
ENDBRANCH  20  22
ENDBRANCH  19  20
ENDBRANCH  18  19
ENDBRANCH  13  18
ENDBRANCH  11  13
ENDBRANCH   7   9
ENDBRANCH   6   7
ENDBRANCH   5   6
ENDBRANCH   1   5
BRANCH   2  24
ATOM     24  C   UNL     1      27.593  13.086   0.264  0.00  0.00    +0.152 C 
BRANCH  24  25
ATOM     25  C   UNL     1      29.037  12.563   0.406  0.00  0.00    +0.193 C 
ATOM     26  O   UNL     1      29.409  12.016  -0.878  0.00  0.00    -0.219 OA
BRANCH  25  27
ATOM     27  C   UNL     1      30.143  13.595   0.721  0.00  0.00    +0.212 C 
ATOM     28  O   UNL     1      29.606  14.691   1.478  0.00  0.00    -0.218 OA
BRANCH  27  29
ATOM     29  C   UNL     1      31.361  12.983   1.513  0.00  0.00    +0.171 C 
ATOM     30  O   UNL     1      31.169  13.017   2.924  0.00  0.00    -0.343 OA
ATOM     31  C   UNL     1      32.174  12.769   3.862  0.00  0.00    +0.220 C 
ATOM     32  C   UNL     1      33.435  13.604   3.580  0.00  0.00    +0.076 C 
ATOM     33  C   UNL     1      33.839  13.353   2.118  0.00  0.00    +0.177 C 
ATOM     34  O   UNL     1      35.026  14.072   1.816  0.00  0.00    -0.221 OA
ATOM     35  C   UNL     1      32.674  13.756   1.162  0.00  0.00    +0.155 C 
BRANCH  35  36
ATOM     36  N   UNL     1      33.056  13.526  -0.229  0.00  0.00    -0.202 NA
ATOM     37  C   UNL     1      33.125  14.399  -1.266  0.00  0.00    +0.242 C 
ATOM     38  C   UNL     1      33.831  13.962  -2.523  0.00  0.00    +0.096 C 
ATOM     39  O   UNL     1      32.617  15.513  -1.157  0.00  0.00    -0.273 OA
ENDBRANCH  35  36
BRANCH  31  40
ATOM     40  C   UNL     1      32.526  11.193   4.031  0.00  0.00    +0.391 C 
ATOM     41  O   UNL     1      33.724  11.169   4.648  0.00  0.00    -0.243 OA
ATOM     42  O   UNL     1      31.391  10.530   3.779  0.00  0.00    -0.243 OA
ENDBRANCH  31  40
ENDBRANCH  27  29
ENDBRANCH  25  27
ENDBRANCH  24  25
ENDBRANCH   2  24
TORSDOF 17
