REMARK VINA RESULT:    -6.189      3.548      8.044
REMARK INTER + INTRA:         -13.741
REMARK INTER:                 -10.635
REMARK INTRA:                  -3.105
REMARK UNBOUND:                -2.486
REMARK  Name = lig_assembled_29.pdb
REMARK  16 active torsions:
REMARK  status: ('A' for Active; 'I' for Inactive)
REMARK    1  A    between atoms: _2  and  _8
REMARK    2  A    between atoms: _5  and  _6
REMARK    3  A    between atoms: _5  and  _18
REMARK    4  A    between atoms: _8  and  _9
REMARK    5  A    between atoms: _11  and  _17
REMARK    6  A    between atoms: _12  and  _17
REMARK    7  A    between atoms: _13  and  _16
REMARK    8  A    between atoms: _14  and  _16
REMARK    9  A    between atoms: _18  and  _20
REMARK   10  A    between atoms: _19  and  _24
REMARK   11  A    between atoms: _20  and  _23
REMARK   12  A    between atoms: _28  and  _38
REMARK   13  A    between atoms: _30  and  _31
REMARK   14  A    between atoms: _32  and  _34
REMARK   15  A    between atoms: _34  and  _36
REMARK   16  A    between atoms: _36  and  _38
REMARK                            x       y       z     vdW  Elec       q    Type
REMARK                         _______ _______ _______ _____ _____    ______ ____
ROOT
ATOM      1  C   UNL     1      25.668  15.863  -4.622  0.00  0.00    +0.400 C 
ATOM      2  N   UNL     1      24.544  15.477  -3.930  0.00  0.00    -0.278 N 
ATOM      3  H   UNL     1      24.133  14.702  -4.541  0.00  0.00    +0.152 HD
ATOM      4  O   UNL     1      26.022  15.181  -5.580  0.00  0.00    -0.226 OA
ENDROOT
BRANCH   2   5
ATOM      5  C   UNL     1      23.689  15.636  -2.757  0.00  0.00    +0.152 C 
BRANCH   5   6
ATOM      6  C   UNL     1      22.468  14.697  -2.673  0.00  0.00    +0.193 C 
ATOM      7  O   UNL     1      21.539  15.132  -3.691  0.00  0.00    -0.219 OA
BRANCH   6   8
ATOM      8  C   UNL     1      22.696  13.199  -2.974  0.00  0.00    +0.212 C 
ATOM      9  O   UNL     1      22.596  12.950  -4.385  0.00  0.00    -0.218 OA
BRANCH   8  10
ATOM     10  C   UNL     1      24.090  12.666  -2.466  0.00  0.00    +0.171 C 
ATOM     11  O   UNL     1      24.971  12.332  -3.534  0.00  0.00    -0.343 OA
ATOM     12  C   UNL     1      26.161  11.618  -3.379  0.00  0.00    +0.220 C 
ATOM     13  C   UNL     1      25.948  10.321  -2.578  0.00  0.00    +0.076 C 
ATOM     14  C   UNL     1      25.245  10.699  -1.264  0.00  0.00    +0.177 C 
ATOM     15  O   UNL     1      25.060   9.539  -0.466  0.00  0.00    -0.221 OA
ATOM     16  C   UNL     1      23.886  11.404  -1.565  0.00  0.00    +0.155 C 
BRANCH  16  17
ATOM     17  N   UNL     1      23.212  11.758  -0.319  0.00  0.00    -0.202 NA
ATOM     18  C   UNL     1      22.172  11.152   0.308  0.00  0.00    +0.242 C 
ATOM     19  C   UNL     1      21.863  11.549   1.728  0.00  0.00    +0.096 C 
ATOM     20  O   UNL     1      21.515  10.301  -0.289  0.00  0.00    -0.273 OA
ENDBRANCH  16  17
BRANCH  12  21
ATOM     21  C   UNL     1      27.375  12.506  -2.765  0.00  0.00    +0.391 C 
ATOM     22  O   UNL     1      28.484  11.771  -2.973  0.00  0.00    -0.243 OA
ATOM     23  O   UNL     1      26.872  13.731  -2.566  0.00  0.00    -0.243 OA
ENDBRANCH  12  21
ENDBRANCH   8  10
ENDBRANCH   6   8
ENDBRANCH   5   6
ENDBRANCH   2   5
BRANCH   1  24
ATOM     24  O   UNL     1      26.236  16.947  -4.206  0.00  0.00    -0.450 OA
BRANCH  24  25
ATOM     25  C   UNL     1      27.341  17.343  -3.426  0.00  0.00    +0.240 C 
BRANCH  25  26
ATOM     26  C   UNL     1      27.140  17.428  -1.901  0.00  0.00    +0.100 C 
BRANCH  26  28
ATOM     27  N   UNL     1      29.398  17.607  -0.891  0.00  0.00    -0.134 NA
ATOM     28  C   UNL     1      28.298  16.848  -1.195  0.00  0.00    +0.086 A 
ATOM     29  C   UNL     1      28.484  15.572  -0.718  0.00  0.00    +0.134 A 
ATOM     30  N   UNL     1      29.675  15.641  -0.054  0.00  0.00    -0.247 N 
ATOM     31  N   UNL     1      30.243  16.852  -0.199  0.00  0.00    -0.065 NA
BRANCH  30  32
ATOM     32  C   UNL     1      30.301  14.625   0.772  0.00  0.00    +0.180 C 
BRANCH  32  33
ATOM     33  C   UNL     1      29.292  13.583   1.197  0.00  0.00    -0.022 A 
ATOM     34  C   UNL     1      29.231  12.345   0.531  0.00  0.00    +0.054 A 
ATOM     35  C   UNL     1      28.354  11.340   0.965  0.00  0.00    +0.162 A 
ATOM     36  C   UNL     1      27.518  11.577   2.075  0.00  0.00    +0.162 A 
ATOM     37  C   UNL     1      27.580  12.808   2.734  0.00  0.00    +0.050 A 
ATOM     38  C   UNL     1      28.458  13.804   2.297  0.00  0.00    +0.009 A 
BRANCH  36  39
ATOM     39  O   UNL     1      26.683  10.547   2.435  0.00  0.00    -0.491 OA
ATOM     40  C   UNL     1      25.348  10.872   2.791  0.00  0.00    +0.277 C 
ENDBRANCH  36  39
BRANCH  35  41
ATOM     41  O   UNL     1      28.250  10.101   0.384  0.00  0.00    -0.491 OA
ATOM     42  C   UNL     1      29.326   9.658  -0.432  0.00  0.00    +0.277 C 
ENDBRANCH  35  41
ENDBRANCH  32  33
ENDBRANCH  30  32
ENDBRANCH  26  28
ENDBRANCH  25  26
ENDBRANCH  24  25
ENDBRANCH   1  24
TORSDOF 14
