REMARK VINA RESULT:    -6.136      2.338      5.345
REMARK INTER + INTRA:         -13.730
REMARK INTER:                 -11.403
REMARK INTRA:                  -2.327
REMARK UNBOUND:                -1.675
REMARK  Name = lig_assembled_33.pdb
REMARK  17 active torsions:
REMARK  status: ('A' for Active; 'I' for Inactive)
REMARK    1  A    between atoms: _2  and  _8
REMARK    2  A    between atoms: _4  and  _12
REMARK    3  A    between atoms: _4  and  _13
REMARK    4  A    between atoms: _5  and  _6
REMARK    5  A    between atoms: _5  and  _15
REMARK    6  A    between atoms: _8  and  _9
REMARK    7  A    between atoms: _9  and  _10
REMARK    8  A    between atoms: _10  and  _11
REMARK    9  A    between atoms: _11  and  _12
REMARK   10  A    between atoms: _15  and  _17
REMARK   11  A    between atoms: _16  and  _21
REMARK   12  A    between atoms: _17  and  _20
REMARK   13  A    between atoms: _25  and  _35
REMARK   14  A    between atoms: _27  and  _28
REMARK   15  A    between atoms: _29  and  _31
REMARK   16  A    between atoms: _31  and  _33
REMARK   17  A    between atoms: _33  and  _35
REMARK                            x       y       z     vdW  Elec       q    Type
REMARK                         _______ _______ _______ _____ _____    ______ ____
ROOT
ATOM      1  C   UNL     1      27.476  12.937   2.555  0.00  0.00    +0.400 C 
ATOM      2  N   UNL     1      28.259  13.528   1.591  0.00  0.00    -0.278 N 
ATOM      3  H   UNL     1      28.505  14.476   2.020  0.00  0.00    +0.152 HD
ATOM      4  O   UNL     1      27.399  13.482   3.653  0.00  0.00    -0.226 OA
ENDROOT
BRANCH   1   5
ATOM      5  O   UNL     1      26.861  11.859   2.193  0.00  0.00    -0.450 OA
BRANCH   5   6
ATOM      6  C   UNL     1      25.980  11.419   1.186  0.00  0.00    +0.240 C 
BRANCH   6   7
ATOM      7  C   UNL     1      24.521  11.137   1.593  0.00  0.00    +0.100 C 
BRANCH   7   9
ATOM      8  N   UNL     1      22.236  11.711   0.839  0.00  0.00    -0.134 NA
ATOM      9  C   UNL     1      23.589  11.758   0.632  0.00  0.00    +0.086 A 
ATOM     10  C   UNL     1      23.843  12.433  -0.541  0.00  0.00    +0.133 A 
ATOM     11  N   UNL     1      22.605  12.777  -0.994  0.00  0.00    -0.251 N 
ATOM     12  N   UNL     1      21.641  12.326  -0.173  0.00  0.00    -0.065 NA
BRANCH  11  13
ATOM     13  C   UNL     1      22.261  13.512  -2.194  0.00  0.00    +0.145 C 
BRANCH  13  14
ATOM     14  C   UNL     1      23.453  13.659  -3.138  0.00  0.00    +0.023 C 
BRANCH  14  15
ATOM     15  C   UNL     1      24.048  15.070  -3.120  0.00  0.00    +0.002 C 
BRANCH  15  16
ATOM     16  C   UNL     1      25.499  15.029  -3.608  0.00  0.00    +0.011 C 
BRANCH  16  17
ATOM     17  C   UNL     1      26.486  15.566  -2.575  0.00  0.00    +0.120 C 
BRANCH  17  18
ATOM     18  C   UNL     1      26.912  16.979  -2.906  0.00  0.00    +0.305 C 
ATOM     19  O   UNL     1      26.298  17.752  -3.625  0.00  0.00    -0.251 OA
BRANCH  18  20
ATOM     20  O   UNL     1      28.075  17.321  -2.306  0.00  0.00    -0.481 OA
ATOM     21  H   UNL     1      28.292  18.268  -2.379  0.00  0.00    +0.295 HD
ENDBRANCH  18  20
ENDBRANCH  17  18
ENDBRANCH  16  17
ENDBRANCH  15  16
ENDBRANCH  14  15
ENDBRANCH  13  14
ENDBRANCH  11  13
ENDBRANCH   7   9
ENDBRANCH   6   7
ENDBRANCH   5   6
ENDBRANCH   1   5
BRANCH   2  22
ATOM     22  C   UNL     1      28.902  13.438   0.283  0.00  0.00    +0.152 C 
BRANCH  22  23
ATOM     23  C   UNL     1      29.357  14.772  -0.344  0.00  0.00    +0.193 C 
ATOM     24  O   UNL     1      28.547  15.809   0.253  0.00  0.00    -0.219 OA
BRANCH  23  25
ATOM     25  C   UNL     1      30.812  15.224  -0.087  0.00  0.00    +0.212 C 
ATOM     26  O   UNL     1      30.833  16.526   0.518  0.00  0.00    -0.218 OA
BRANCH  25  27
ATOM     27  C   UNL     1      31.622  14.229   0.828  0.00  0.00    +0.171 C 
ATOM     28  O   UNL     1      31.802  14.725   2.151  0.00  0.00    -0.343 OA
ATOM     29  C   UNL     1      32.677  14.171   3.088  0.00  0.00    +0.220 C 
ATOM     30  C   UNL     1      34.089  13.979   2.506  0.00  0.00    +0.076 C 
ATOM     31  C   UNL     1      33.947  13.179   1.201  0.00  0.00    +0.177 C 
ATOM     32  O   UNL     1      35.230  12.939   0.641  0.00  0.00    -0.221 OA
ATOM     33  C   UNL     1      33.025  13.943   0.200  0.00  0.00    +0.155 C 
BRANCH  33  34
ATOM     34  N   UNL     1      32.893  13.189  -1.044  0.00  0.00    -0.202 NA
ATOM     35  C   UNL     1      33.188  13.556  -2.317  0.00  0.00    +0.242 C 
ATOM     36  C   UNL     1      33.236  12.487  -3.378  0.00  0.00    +0.096 C 
ATOM     37  O   UNL     1      33.409  14.739  -2.572  0.00  0.00    -0.273 OA
ENDBRANCH  33  34
BRANCH  29  38
ATOM     38  C   UNL     1      32.120  12.803   3.765  0.00  0.00    +0.391 C 
ATOM     39  O   UNL     1      33.177  12.284   4.419  0.00  0.00    -0.243 OA
ATOM     40  O   UNL     1      30.785  12.864   3.676  0.00  0.00    -0.243 OA
ENDBRANCH  29  38
ENDBRANCH  25  27
ENDBRANCH  23  25
ENDBRANCH  22  23
ENDBRANCH   2  22
TORSDOF 17
