REMARK VINA RESULT:    -6.459      1.744      2.169
REMARK INTER + INTRA:         -13.723
REMARK INTER:                 -12.351
REMARK INTRA:                  -1.371
REMARK UNBOUND:                -2.732
REMARK  Name = lig_assembled_85.pdb
REMARK  14 active torsions:
REMARK  status: ('A' for Active; 'I' for Inactive)
REMARK    1  A    between atoms: _2  and  _9
REMARK    2  A    between atoms: _3  and  _5
REMARK    3  A    between atoms: _3  and  _16
REMARK    4  A    between atoms: _6  and  _7
REMARK    5  A    between atoms: _6  and  _18
REMARK    6  A    between atoms: _14  and  _15
REMARK    7  A    between atoms: _18  and  _20
REMARK    8  A    between atoms: _19  and  _24
REMARK    9  A    between atoms: _20  and  _23
REMARK   10  A    between atoms: _28  and  _38
REMARK   11  A    between atoms: _30  and  _31
REMARK   12  A    between atoms: _32  and  _34
REMARK   13  A    between atoms: _34  and  _36
REMARK   14  A    between atoms: _36  and  _38
REMARK                            x       y       z     vdW  Elec       q    Type
REMARK                         _______ _______ _______ _____ _____    ______ ____
ROOT
ATOM      1  C   UNL     1      28.474  16.678  -1.046  0.00  0.00    +0.400 C 
ATOM      2  N   UNL     1      29.021  15.715  -0.231  0.00  0.00    -0.278 N 
ATOM      3  H   UNL     1      30.015  16.069  -0.063  0.00  0.00    +0.152 HD
ATOM      4  O   UNL     1      29.109  17.714  -1.225  0.00  0.00    -0.226 OA
ENDROOT
BRANCH   2   5
ATOM      5  C   UNL     1      28.853  14.463   0.502  0.00  0.00    +0.152 C 
BRANCH   5   6
ATOM      6  C   UNL     1      29.878  14.187   1.620  0.00  0.00    +0.193 C 
ATOM      7  O   UNL     1      30.139  12.766   1.604  0.00  0.00    -0.219 OA
BRANCH   6   8
ATOM      8  C   UNL     1      31.274  14.836   1.487  0.00  0.00    +0.212 C 
ATOM      9  O   UNL     1      31.289  16.127   2.117  0.00  0.00    -0.218 OA
BRANCH   8  10
ATOM     10  C   UNL     1      32.431  13.961   2.104  0.00  0.00    +0.171 C 
ATOM     11  O   UNL     1      32.981  14.534   3.286  0.00  0.00    -0.343 OA
ATOM     12  C   UNL     1      34.163  14.105   3.894  0.00  0.00    +0.220 C 
ATOM     13  C   UNL     1      35.321  14.009   2.885  0.00  0.00    +0.076 C 
ATOM     14  C   UNL     1      34.842  13.136   1.713  0.00  0.00    +0.177 C 
ATOM     15  O   UNL     1      35.891  12.982   0.768  0.00  0.00    -0.221 OA
ATOM     16  C   UNL     1      33.575  13.768   1.056  0.00  0.00    +0.155 C 
BRANCH  16  17
ATOM     17  N   UNL     1      33.121  12.946  -0.063  0.00  0.00    -0.202 NA
ATOM     18  C   UNL     1      32.856  13.297  -1.347  0.00  0.00    +0.242 C 
ATOM     19  C   UNL     1      32.688  12.203  -2.369  0.00  0.00    +0.096 C 
ATOM     20  O   UNL     1      32.762  14.487  -1.644  0.00  0.00    -0.273 OA
ENDBRANCH  16  17
BRANCH  12  21
ATOM     21  C   UNL     1      33.992  12.728   4.740  0.00  0.00    +0.391 C 
ATOM     22  O   UNL     1      35.217  12.169   4.744  0.00  0.00    -0.243 OA
ATOM     23  O   UNL     1      32.807  12.818   5.356  0.00  0.00    -0.243 OA
ENDBRANCH  12  21
ENDBRANCH   8  10
ENDBRANCH   6   8
ENDBRANCH   5   6
ENDBRANCH   2   5
BRANCH   1  24
ATOM     24  O   UNL     1      27.336  16.378  -1.580  0.00  0.00    -0.450 OA
BRANCH  24  25
ATOM     25  C   UNL     1      26.760  15.363  -2.369  0.00  0.00    +0.240 C 
BRANCH  25  26
ATOM     26  C   UNL     1      26.278  15.747  -3.781  0.00  0.00    +0.100 C 
BRANCH  26  28
ATOM     27  N   UNL     1      24.443  14.751  -5.099  0.00  0.00    -0.134 NA
ATOM     28  C   UNL     1      24.865  15.369  -3.957  0.00  0.00    +0.086 A 
ATOM     29  C   UNL     1      23.805  15.490  -3.086  0.00  0.00    +0.139 A 
ATOM     30  N   UNL     1      22.745  14.918  -3.748  0.00  0.00    -0.219 N 
ATOM     31  N   UNL     1      23.160  14.456  -4.952  0.00  0.00    -0.061 NA
BRANCH  30  32
ATOM     32  C   UNL     1      21.424  14.696  -3.305  0.00  0.00    +0.080 A 
ATOM     33  C   UNL     1      20.988  13.516  -2.681  0.00  0.00    +0.062 A 
ATOM     34  C   UNL     1      19.595  13.335  -2.520  0.00  0.00    +0.016 A 
ATOM     35  C   UNL     1      18.670  14.297  -2.939  0.00  0.00    +0.021 A 
ATOM     36  C   UNL     1      19.124  15.487  -3.487  0.00  0.00    +0.043 A 
ATOM     37 CL   UNL     1      18.001  16.665  -4.039  0.00  0.00    -0.083 Cl
ATOM     38  C   UNL     1      20.491  15.702  -3.646  0.00  0.00    +0.048 A 
BRANCH  33  39
ATOM     39  C   UNL     1      21.801  12.354  -2.216  0.00  0.00    +0.248 C 
ATOM     40  O   UNL     1      22.482  11.811  -3.090  0.00  0.00    -0.270 OA
ATOM     41  N   UNL     1      21.767  11.849  -0.911  0.00  0.00    -0.304 N 
ATOM     42  C   UNL     1      21.128  12.438   0.258  0.00  0.00    +0.132 C 
ATOM     43  C   UNL     1      22.622  10.699  -0.637  0.00  0.00    +0.132 C 
ENDBRANCH  33  39
ENDBRANCH  30  32
ENDBRANCH  26  28
ENDBRANCH  25  26
ENDBRANCH  24  25
ENDBRANCH   1  24
TORSDOF 12
