REMARK VINA RESULT:    -7.353      2.145      3.656
REMARK INTER + INTRA:         -15.486
REMARK INTER:                 -12.721
REMARK INTRA:                  -2.764
REMARK UNBOUND:                -2.115
REMARK  Name = lig_assembled_26.pdb
REMARK  15 active torsions:
REMARK  status: ('A' for Active; 'I' for Inactive)
REMARK    1  A    between atoms: _2  and  _8
REMARK    2  A    between atoms: _5  and  _6
REMARK    3  A    between atoms: _5  and  _18
REMARK    4  A    between atoms: _8  and  _9
REMARK    5  A    between atoms: _8  and  _10
REMARK    6  A    between atoms: _10  and  _11
REMARK    7  A    between atoms: _11  and  _12
REMARK    8  A    between atoms: _18  and  _20
REMARK    9  A    between atoms: _19  and  _24
REMARK   10  A    between atoms: _20  and  _23
REMARK   11  A    between atoms: _28  and  _38
REMARK   12  A    between atoms: _30  and  _31
REMARK   13  A    between atoms: _32  and  _34
REMARK   14  A    between atoms: _34  and  _36
REMARK   15  A    between atoms: _36  and  _38
REMARK                            x       y       z     vdW  Elec       q    Type
REMARK                         _______ _______ _______ _____ _____    ______ ____
ROOT
ATOM      1  C   UNL     1      26.307  17.349  -3.496  0.00  0.00    +0.400 C 
ATOM      2  N   UNL     1      27.203  17.903  -2.613  0.00  0.00    -0.278 N 
ATOM      3  H   UNL     1      26.685  18.760  -2.239  0.00  0.00    +0.152 HD
ATOM      4  O   UNL     1      25.163  17.796  -3.517  0.00  0.00    -0.226 OA
ENDROOT
BRANCH   2   5
ATOM      5  C   UNL     1      28.508  17.839  -1.960  0.00  0.00    +0.152 C 
BRANCH   5   6
ATOM      6  C   UNL     1      28.528  17.251  -0.534  0.00  0.00    +0.193 C 
ATOM      7  O   UNL     1      27.574  18.011   0.241  0.00  0.00    -0.219 OA
BRANCH   6   8
ATOM      8  C   UNL     1      28.082  15.782  -0.360  0.00  0.00    +0.212 C 
ATOM      9  O   UNL     1      27.926  15.150  -1.641  0.00  0.00    -0.218 OA
BRANCH   8  10
ATOM     10  C   UNL     1      29.082  14.925   0.506  0.00  0.00    +0.171 C 
ATOM     11  O   UNL     1      30.445  15.195   0.197  0.00  0.00    -0.343 OA
ATOM     12  C   UNL     1      31.520  14.416   0.631  0.00  0.00    +0.220 C 
ATOM     13  C   UNL     1      31.300  12.923   0.333  0.00  0.00    +0.076 C 
ATOM     14  C   UNL     1      29.936  12.529   0.924  0.00  0.00    +0.177 C 
ATOM     15  O   UNL     1      29.701  11.145   0.711  0.00  0.00    -0.221 OA
ATOM     16  C   UNL     1      28.806  13.401   0.294  0.00  0.00    +0.155 C 
BRANCH  16  17
ATOM     17  N   UNL     1      27.508  13.025   0.847  0.00  0.00    -0.202 NA
ATOM     18  C   UNL     1      26.497  12.314   0.285  0.00  0.00    +0.242 C 
ATOM     19  C   UNL     1      25.389  11.818   1.177  0.00  0.00    +0.096 C 
ATOM     20  O   UNL     1      26.510  12.092  -0.924  0.00  0.00    -0.273 OA
ENDBRANCH  16  17
BRANCH  12  21
ATOM     21  C   UNL     1      31.911  14.663   2.189  0.00  0.00    +0.391 C 
ATOM     22  O   UNL     1      32.684  13.612   2.524  0.00  0.00    -0.243 OA
ATOM     23  O   UNL     1      31.583  15.934   2.455  0.00  0.00    -0.243 OA
ENDBRANCH  12  21
ENDBRANCH   8  10
ENDBRANCH   6   8
ENDBRANCH   5   6
ENDBRANCH   2   5
BRANCH   1  24
ATOM     24  O   UNL     1      26.775  16.414  -4.256  0.00  0.00    -0.450 OA
BRANCH  24  25
ATOM     25  C   UNL     1      26.307  15.348  -5.049  0.00  0.00    +0.240 C 
BRANCH  25  26
ATOM     26  C   UNL     1      25.798  14.090  -4.320  0.00  0.00    +0.100 C 
BRANCH  26  28
ATOM     27  N   UNL     1      24.544  14.461  -2.211  0.00  0.00    -0.134 NA
ATOM     28  C   UNL     1      24.560  14.392  -3.579  0.00  0.00    +0.086 A 
ATOM     29  C   UNL     1      23.297  14.645  -4.058  0.00  0.00    +0.134 A 
ATOM     30  N   UNL     1      22.545  14.836  -2.937  0.00  0.00    -0.248 N 
ATOM     31  N   UNL     1      23.307  14.752  -1.827  0.00  0.00    -0.065 NA
BRANCH  30  32
ATOM     32  C   UNL     1      21.135  15.171  -2.815  0.00  0.00    +0.113 C 
ATOM     33  C   UNL     1      20.423  15.415  -4.153  0.00  0.00    +0.033 C 
BRANCH  32  34
ATOM     34  C   UNL     1      20.361  14.176  -1.931  0.00  0.00    +0.106 C 
BRANCH  34  35
ATOM     35  C   UNL     1      20.783  12.729  -2.114  0.00  0.00    +0.165 C 
ATOM     36  O   UNL     1      20.744  12.167  -3.207  0.00  0.00    -0.292 OA
BRANCH  35  37
ATOM     37  C   UNL     1      21.220  11.950  -0.919  0.00  0.00    +0.017 A 
ATOM     38  C   UNL     1      21.126  12.454   0.384  0.00  0.00    +0.011 A 
ATOM     39  C   UNL     1      21.512  11.665   1.470  0.00  0.00    +0.001 A 
ATOM     40  C   UNL     1      21.999  10.375   1.262  0.00  0.00    +0.000 A 
ATOM     41  C   UNL     1      22.108   9.871  -0.031  0.00  0.00    +0.001 A 
ATOM     42  C   UNL     1      21.721  10.654  -1.118  0.00  0.00    +0.011 A 
ENDBRANCH  35  37
ENDBRANCH  34  35
ENDBRANCH  32  34
ENDBRANCH  30  32
ENDBRANCH  26  28
ENDBRANCH  25  26
ENDBRANCH  24  25
ENDBRANCH   1  24
TORSDOF 14
