REMARK VINA RESULT:    -7.349      2.793     10.078
REMARK INTER + INTRA:         -15.128
REMARK INTER:                 -12.191
REMARK INTRA:                  -2.937
REMARK UNBOUND:                -1.120
REMARK  Name = lig_assembled_76.pdb
REMARK  16 active torsions:
REMARK  status: ('A' for Active; 'I' for Inactive)
REMARK    1  A    between atoms: _2  and  _8
REMARK    2  A    between atoms: _5  and  _6
REMARK    3  A    between atoms: _5  and  _18
REMARK    4  A    between atoms: _8  and  _9
REMARK    5  A    between atoms: _9  and  _10
REMARK    6  A    between atoms: _9  and  _17
REMARK    7  A    between atoms: _10  and  _11
REMARK    8  A    between atoms: _11  and  _12
REMARK    9  A    between atoms: _18  and  _20
REMARK   10  A    between atoms: _19  and  _24
REMARK   11  A    between atoms: _20  and  _23
REMARK   12  A    between atoms: _28  and  _38
REMARK   13  A    between atoms: _30  and  _31
REMARK   14  A    between atoms: _32  and  _34
REMARK   15  A    between atoms: _34  and  _36
REMARK   16  A    between atoms: _36  and  _38
REMARK                            x       y       z     vdW  Elec       q    Type
REMARK                         _______ _______ _______ _____ _____    ______ ____
ROOT
ATOM      1  C   UNL     1      27.977  17.743  -1.036  0.00  0.00    +0.400 C 
ATOM      2  N   UNL     1      27.206  17.540  -2.157  0.00  0.00    -0.278 N 
ATOM      3  H   UNL     1      26.234  17.864  -1.850  0.00  0.00    +0.152 HD
ATOM      4  O   UNL     1      27.482  18.362  -0.097  0.00  0.00    -0.226 OA
ENDROOT
BRANCH   1   5
ATOM      5  O   UNL     1      29.160  17.224  -1.070  0.00  0.00    -0.450 OA
BRANCH   5   6
ATOM      6  C   UNL     1      29.948  16.313  -0.340  0.00  0.00    +0.240 C 
BRANCH   6   7
ATOM      7  C   UNL     1      29.248  15.065   0.230  0.00  0.00    +0.100 C 
BRANCH   7   9
ATOM      8  N   UNL     1      29.916  13.050   1.510  0.00  0.00    -0.134 NA
ATOM      9  C   UNL     1      30.140  14.357   1.163  0.00  0.00    +0.086 A 
ATOM     10  C   UNL     1      31.256  14.816   1.826  0.00  0.00    +0.133 A 
ATOM     11  N   UNL     1      31.668  13.740   2.552  0.00  0.00    -0.249 N 
ATOM     12  N   UNL     1      30.858  12.684   2.371  0.00  0.00    -0.065 NA
BRANCH  11  13
ATOM     13  C   UNL     1      32.731  13.688   3.530  0.00  0.00    +0.176 C 
BRANCH  13  14
ATOM     14  C   UNL     1      34.098  14.054   2.945  0.00  0.00    +0.136 C 
BRANCH  14  15
ATOM     15  O   UNL     1      34.898  14.719   3.935  0.00  0.00    -0.390 OA
ATOM     16  H   UNL     1      34.823  14.240   4.778  0.00  0.00    +0.210 HD
ENDBRANCH  14  15
BRANCH  14  17
ATOM     17  C   UNL     1      34.884  12.821   2.473  0.00  0.00    +0.038 C 
BRANCH  17  18
ATOM     18  C   UNL     1      35.420  12.950   1.046  0.00  0.00    +0.038 C 
BRANCH  18  19
ATOM     19  C   UNL     1      34.317  13.163   0.042  0.00  0.00    -0.047 A 
ATOM     20  C   UNL     1      34.237  14.364  -0.676  0.00  0.00    +0.003 A 
ATOM     21  C   UNL     1      33.227  14.558  -1.619  0.00  0.00    +0.000 A 
ATOM     22  C   UNL     1      32.287  13.556  -1.848  0.00  0.00    +0.000 A 
ATOM     23  C   UNL     1      32.352  12.362  -1.131  0.00  0.00    +0.000 A 
ATOM     24  C   UNL     1      33.360  12.167  -0.186  0.00  0.00    +0.003 A 
ENDBRANCH  18  19
ENDBRANCH  17  18
ENDBRANCH  14  17
ENDBRANCH  13  14
ENDBRANCH  11  13
ENDBRANCH   7   9
ENDBRANCH   6   7
ENDBRANCH   5   6
ENDBRANCH   1   5
BRANCH   2  25
ATOM     25  C   UNL     1      27.124  17.106  -3.549  0.00  0.00    +0.152 C 
BRANCH  25  26
ATOM     26  C   UNL     1      25.985  16.123  -3.888  0.00  0.00    +0.193 C 
ATOM     27  O   UNL     1      26.024  15.921  -5.318  0.00  0.00    -0.219 OA
BRANCH  26  28
ATOM     28  C   UNL     1      26.068  14.700  -3.295  0.00  0.00    +0.212 C 
ATOM     29  O   UNL     1      26.765  14.720  -2.039  0.00  0.00    -0.218 OA
BRANCH  28  30
ATOM     30  C   UNL     1      24.657  14.030  -3.079  0.00  0.00    +0.171 C 
ATOM     31  O   UNL     1      23.821  14.784  -2.207  0.00  0.00    -0.343 OA
ATOM     32  C   UNL     1      22.629  14.311  -1.655  0.00  0.00    +0.220 C 
ATOM     33  C   UNL     1      22.815  12.937  -0.988  0.00  0.00    +0.076 C 
ATOM     34  C   UNL     1      23.463  12.004  -2.023  0.00  0.00    +0.177 C 
ATOM     35  O   UNL     1      23.621  10.705  -1.470  0.00  0.00    -0.221 OA
ATOM     36  C   UNL     1      24.831  12.590  -2.493  0.00  0.00    +0.155 C 
BRANCH  36  37
ATOM     37  N   UNL     1      25.453  11.703  -3.473  0.00  0.00    -0.202 NA
ATOM     38  C   UNL     1      26.568  10.937  -3.364  0.00  0.00    +0.242 C 
ATOM     39  C   UNL     1      26.824   9.892  -4.418  0.00  0.00    +0.096 C 
ATOM     40  O   UNL     1      27.335  11.110  -2.418  0.00  0.00    -0.273 OA
ENDBRANCH  36  37
BRANCH  32  41
ATOM     41  C   UNL     1      21.388  14.302  -2.704  0.00  0.00    +0.391 C 
ATOM     42  O   UNL     1      20.360  13.761  -2.022  0.00  0.00    -0.243 OA
ATOM     43  O   UNL     1      21.757  15.093  -3.719  0.00  0.00    -0.243 OA
ENDBRANCH  32  41
ENDBRANCH  28  30
ENDBRANCH  26  28
ENDBRANCH  25  26
ENDBRANCH   2  25
TORSDOF 16
