REMARK VINA RESULT:    -6.369      1.696      2.413
REMARK INTER + INTRA:         -12.088
REMARK INTER:                 -10.359
REMARK INTRA:                  -1.729
REMARK UNBOUND:                -1.624
REMARK  Name = lig_assembled_3.pdb
REMARK  11 active torsions:
REMARK  status: ('A' for Active; 'I' for Inactive)
REMARK    1  A    between atoms: _2  and  _8
REMARK    2  A    between atoms: _5  and  _6
REMARK    3  A    between atoms: _5  and  _13
REMARK    4  A    between atoms: _13  and  _15
REMARK    5  A    between atoms: _14  and  _19
REMARK    6  A    between atoms: _15  and  _18
REMARK    7  A    between atoms: _23  and  _33
REMARK    8  A    between atoms: _25  and  _26
REMARK    9  A    between atoms: _27  and  _29
REMARK   10  A    between atoms: _29  and  _31
REMARK   11  A    between atoms: _31  and  _33
REMARK                            x       y       z     vdW  Elec       q    Type
REMARK                         _______ _______ _______ _____ _____    ______ ____
ROOT
ATOM      1  C   UNL     1      30.687  12.545  -1.281  0.00  0.00    +0.152 C 
ENDROOT
BRANCH   1   3
ATOM      2  C   UNL     1      29.169  14.541  -0.205  0.00  0.00    +0.400 C 
ATOM      3  N   UNL     1      30.044  13.494  -0.376  0.00  0.00    -0.278 N 
ATOM      4  H   UNL     1      30.390  13.296   0.616  0.00  0.00    +0.152 HD
ATOM      5  O   UNL     1      28.861  14.857   0.941  0.00  0.00    -0.226 OA
BRANCH   2   6
ATOM      6  O   UNL     1      28.772  15.121  -1.289  0.00  0.00    -0.450 OA
BRANCH   6   7
ATOM      7  C   UNL     1      27.868  16.122  -1.696  0.00  0.00    +0.240 C 
BRANCH   7   8
ATOM      8  C   UNL     1      27.108  15.899  -3.017  0.00  0.00    +0.100 C 
BRANCH   8  10
ATOM      9  N   UNL     1      24.675  16.016  -3.450  0.00  0.00    -0.134 NA
ATOM     10  C   UNL     1      25.717  15.489  -2.745  0.00  0.00    +0.086 A 
ATOM     11  C   UNL     1      25.230  14.584  -1.830  0.00  0.00    +0.139 A 
ATOM     12  N   UNL     1      23.869  14.570  -2.032  0.00  0.00    -0.220 N 
ATOM     13  N   UNL     1      23.555  15.458  -3.009  0.00  0.00    -0.061 NA
BRANCH  12  14
ATOM     14  C   UNL     1      22.883  13.776  -1.390  0.00  0.00    +0.067 A 
ATOM     15  C   UNL     1      23.243  12.637  -0.656  0.00  0.00    +0.028 A 
ATOM     16  C   UNL     1      22.254  11.851  -0.056  0.00  0.00    +0.002 A 
ATOM     17  C   UNL     1      20.910  12.197  -0.182  0.00  0.00    +0.000 A 
ATOM     18  C   UNL     1      20.548  13.334  -0.903  0.00  0.00    +0.002 A 
ATOM     19  C   UNL     1      21.528  14.125  -1.506  0.00  0.00    +0.028 A 
ENDBRANCH  12  14
ENDBRANCH   8  10
ENDBRANCH   7   8
ENDBRANCH   6   7
ENDBRANCH   2   6
ENDBRANCH   1   3
BRANCH   1  20
ATOM     20  C   UNL     1      32.122  12.894  -1.725  0.00  0.00    +0.193 C 
ATOM     21  O   UNL     1      32.014  13.536  -3.015  0.00  0.00    -0.219 OA
BRANCH  20  22
ATOM     22  C   UNL     1      32.914  13.899  -0.859  0.00  0.00    +0.212 C 
ATOM     23  O   UNL     1      32.311  15.201  -0.925  0.00  0.00    -0.218 OA
BRANCH  22  24
ATOM     24  C   UNL     1      33.023  13.470   0.653  0.00  0.00    +0.171 C 
ATOM     25  O   UNL     1      32.202  14.259   1.507  0.00  0.00    -0.343 OA
ATOM     26  C   UNL     1      32.285  14.259   2.902  0.00  0.00    +0.220 C 
ATOM     27  C   UNL     1      33.731  14.466   3.386  0.00  0.00    +0.076 C 
ATOM     28  C   UNL     1      34.609  13.416   2.685  0.00  0.00    +0.177 C 
ATOM     29  O   UNL     1      35.953  13.538   3.129  0.00  0.00    -0.221 OA
ATOM     30  C   UNL     1      34.507  13.578   1.137  0.00  0.00    +0.155 C 
BRANCH  30  31
ATOM     31  N   UNL     1      35.344  12.586   0.467  0.00  0.00    -0.202 NA
ATOM     32  C   UNL     1      36.266  12.751  -0.516  0.00  0.00    +0.242 C 
ATOM     33  C   UNL     1      37.199  11.607  -0.821  0.00  0.00    +0.096 C 
ATOM     34  O   UNL     1      36.319  13.816  -1.127  0.00  0.00    -0.273 OA
ENDBRANCH  30  31
BRANCH  26  35
ATOM     35  C   UNL     1      31.606  12.955   3.591  0.00  0.00    +0.391 C 
ATOM     36  O   UNL     1      32.141  12.896   4.826  0.00  0.00    -0.243 OA
ATOM     37  O   UNL     1      30.574  12.618   2.808  0.00  0.00    -0.243 OA
ENDBRANCH  26  35
ENDBRANCH  22  24
ENDBRANCH  20  22
ENDBRANCH   1  20
TORSDOF 11
