REMARK VINA RESULT:    -5.377      2.717      4.135
REMARK INTER + INTRA:         -12.341
REMARK INTER:                 -10.220
REMARK INTRA:                  -2.121
REMARK UNBOUND:                -3.035
REMARK  Name = lig_assembled_22.pdb
REMARK  15 active torsions:
REMARK  status: ('A' for Active; 'I' for Inactive)
REMARK    1  A    between atoms: _2  and  _8
REMARK    2  A    between atoms: _4  and  _8
REMARK    3  A    between atoms: _4  and  _11
REMARK    4  A    between atoms: _5  and  _6
REMARK    5  A    between atoms: _5  and  _13
REMARK    6  A    between atoms: _8  and  _9
REMARK    7  A    between atoms: _8  and  _10
REMARK    8  A    between atoms: _13  and  _15
REMARK    9  A    between atoms: _14  and  _19
REMARK   10  A    between atoms: _15  and  _18
REMARK   11  A    between atoms: _23  and  _33
REMARK   12  A    between atoms: _25  and  _26
REMARK   13  A    between atoms: _27  and  _29
REMARK   14  A    between atoms: _29  and  _31
REMARK   15  A    between atoms: _31  and  _33
REMARK                            x       y       z     vdW  Elec       q    Type
REMARK                         _______ _______ _______ _____ _____    ______ ____
ROOT
ATOM      1  C   UNL     1      27.887  17.497  -0.979  0.00  0.00    +0.400 C 
ATOM      2  N   UNL     1      28.840  16.805  -0.269  0.00  0.00    -0.278 N 
ATOM      3  H   UNL     1      29.126  17.494   0.497  0.00  0.00    +0.152 HD
ATOM      4  O   UNL     1      27.476  18.558  -0.516  0.00  0.00    -0.226 OA
ENDROOT
BRANCH   1   5
ATOM      5  O   UNL     1      27.531  16.966  -2.102  0.00  0.00    -0.450 OA
BRANCH   5   6
ATOM      6  C   UNL     1      26.869  17.327  -3.292  0.00  0.00    +0.240 C 
BRANCH   6   7
ATOM      7  C   UNL     1      26.351  16.189  -4.191  0.00  0.00    +0.100 C 
BRANCH   7   9
ATOM      8  N   UNL     1      24.412  15.852  -2.699  0.00  0.00    -0.134 NA
ATOM      9  C   UNL     1      25.433  15.317  -3.434  0.00  0.00    +0.086 A 
ATOM     10  C   UNL     1      25.403  13.945  -3.312  0.00  0.00    +0.135 A 
ATOM     11  N   UNL     1      24.339  13.704  -2.488  0.00  0.00    -0.235 N 
ATOM     12  N   UNL     1      23.753  14.860  -2.124  0.00  0.00    -0.064 NA
BRANCH  11  13
ATOM     13  C   UNL     1      23.826  12.429  -1.983  0.00  0.00    +0.155 C 
ATOM     14  C   UNL     1      23.849  11.323  -3.061  0.00  0.00    +0.048 C 
ATOM     15  C   UNL     1      22.369  12.632  -1.524  0.00  0.00    +0.048 C 
BRANCH  13  16
ATOM     16  C   UNL     1      24.674  11.944  -0.804  0.00  0.00    +0.332 C 
ATOM     17  O   UNL     1      24.822  10.766  -0.503  0.00  0.00    -0.248 OA
BRANCH  16  18
ATOM     18  O   UNL     1      25.278  12.920  -0.084  0.00  0.00    -0.479 OA
ATOM     19  H   UNL     1      25.603  13.693  -0.587  0.00  0.00    +0.295 HD
ENDBRANCH  16  18
ENDBRANCH  13  16
ENDBRANCH  11  13
ENDBRANCH   7   9
ENDBRANCH   6   7
ENDBRANCH   5   6
ENDBRANCH   1   5
BRANCH   2  20
ATOM     20  C   UNL     1      29.609  15.577  -0.088  0.00  0.00    +0.152 C 
BRANCH  20  21
ATOM     21  C   UNL     1      28.814  14.339   0.376  0.00  0.00    +0.193 C 
ATOM     22  O   UNL     1      27.883  14.023  -0.682  0.00  0.00    -0.219 OA
BRANCH  21  23
ATOM     23  C   UNL     1      29.599  13.029   0.604  0.00  0.00    +0.212 C 
ATOM     24  O   UNL     1      29.231  12.047  -0.378  0.00  0.00    -0.218 OA
BRANCH  23  25
ATOM     25  C   UNL     1      31.163  13.223   0.563  0.00  0.00    +0.171 C 
ATOM     26  O   UNL     1      31.700  13.063  -0.746  0.00  0.00    -0.343 OA
ATOM     27  C   UNL     1      33.062  12.940  -1.029  0.00  0.00    +0.220 C 
ATOM     28  C   UNL     1      33.731  11.864  -0.157  0.00  0.00    +0.076 C 
ATOM     29  C   UNL     1      33.402  12.186   1.310  0.00  0.00    +0.177 C 
ATOM     30  O   UNL     1      34.031  11.242   2.164  0.00  0.00    -0.221 OA
ATOM     31  C   UNL     1      31.856  12.201   1.523  0.00  0.00    +0.155 C 
BRANCH  31  32
ATOM     32  N   UNL     1      31.539  12.500   2.917  0.00  0.00    -0.202 NA
ATOM     33  C   UNL     1      30.947  11.722   3.858  0.00  0.00    +0.242 C 
ATOM     34  C   UNL     1      31.006  12.168   5.296  0.00  0.00    +0.096 C 
ATOM     35  O   UNL     1      30.384  10.682   3.521  0.00  0.00    -0.273 OA
ENDBRANCH  31  32
BRANCH  27  36
ATOM     36  C   UNL     1      33.867  14.350  -0.961  0.00  0.00    +0.391 C 
ATOM     37  O   UNL     1      35.167  14.004  -0.880  0.00  0.00    -0.243 OA
ATOM     38  O   UNL     1      32.986  15.296  -1.308  0.00  0.00    -0.243 OA
ENDBRANCH  27  36
ENDBRANCH  23  25
ENDBRANCH  21  23
ENDBRANCH  20  21
ENDBRANCH   2  20
TORSDOF 13
