REMARK VINA RESULT:    -6.261      3.821      8.129
REMARK INTER + INTRA:         -12.465
REMARK INTER:                 -10.163
REMARK INTRA:                  -2.301
REMARK UNBOUND:                -2.544
REMARK  Name = lig_assembled_65.pdb
REMARK  11 active torsions:
REMARK  status: ('A' for Active; 'I' for Inactive)
REMARK    1  A    between atoms: _8  and  _14
REMARK    2  A    between atoms: _9  and  _10
REMARK    3  A    between atoms: _9  and  _15
REMARK    4  A    between atoms: _15  and  _17
REMARK    5  A    between atoms: _16  and  _21
REMARK    6  A    between atoms: _17  and  _20
REMARK    7  A    between atoms: _25  and  _35
REMARK    8  A    between atoms: _27  and  _28
REMARK    9  A    between atoms: _29  and  _31
REMARK   10  A    between atoms: _31  and  _33
REMARK   11  A    between atoms: _33  and  _35
REMARK                            x       y       z     vdW  Elec       q    Type
REMARK                         _______ _______ _______ _____ _____    ______ ____
ROOT
ATOM      1  C   UNL     1      25.568  15.563  -4.430  0.00  0.00    +0.400 C 
ATOM      2  N   UNL     1      24.328  15.052  -4.129  0.00  0.00    -0.278 N 
ATOM      3  H   UNL     1      24.161  14.335  -4.904  0.00  0.00    +0.152 HD
ATOM      4  O   UNL     1      26.225  15.011  -5.309  0.00  0.00    -0.226 OA
ENDROOT
BRANCH   1   5
ATOM      5  O   UNL     1      25.916  16.615  -3.765  0.00  0.00    -0.450 OA
BRANCH   5   6
ATOM      6  C   UNL     1      27.080  17.346  -3.453  0.00  0.00    +0.240 C 
BRANCH   6   7
ATOM      7  C   UNL     1      27.199  17.918  -2.028  0.00  0.00    +0.100 C 
BRANCH   7   9
ATOM      8  N   UNL     1      29.383  17.833  -0.865  0.00  0.00    -0.134 NA
ATOM      9  C   UNL     1      28.242  17.200  -1.271  0.00  0.00    +0.087 A 
ATOM     10  C   UNL     1      28.286  15.889  -0.861  0.00  0.00    +0.146 A 
ATOM     11  N   UNL     1      29.491  15.763  -0.206  0.00  0.00    -0.155 N 
ATOM     12  C   UNL     1      30.026  14.585   0.395  0.00  0.00    +0.416 C 
ATOM     13  N   UNL     1      31.221  14.655   0.993  0.00  0.00    +0.041 NA
ATOM     14  C   UNL     1      31.659  13.512   1.516  0.00  0.00    +0.339 C 
ATOM     15  C   UNL     1      32.997  13.524   2.187  0.00  0.00    +0.149 C 
ATOM     16  N   UNL     1      30.994  12.358   1.473  0.00  0.00    +0.007 NA
ATOM     17  C   UNL     1      29.828  12.392   0.846  0.00  0.00    +0.386 C 
ATOM     18  N   UNL     1      29.114  11.216   0.769  0.00  0.00    -0.296 N 
ATOM     19  H   UNL     1      29.398  10.576   1.497  0.00  0.00    +0.148 HD
ATOM     20  H   UNL     1      28.125  11.393   0.663  0.00  0.00    +0.148 HD
ATOM     21  N   UNL     1      29.284  13.471   0.311  0.00  0.00    -0.290 NA
ATOM     22  N   UNL     1      30.139  16.956  -0.213  0.00  0.00    -0.056 NA
ENDBRANCH   7   9
ENDBRANCH   6   7
ENDBRANCH   5   6
ENDBRANCH   1   5
BRANCH   2  23
ATOM     23  C   UNL     1      23.169  15.039  -3.239  0.00  0.00    +0.152 C 
BRANCH  23  24
ATOM     24  C   UNL     1      23.217  14.026  -2.077  0.00  0.00    +0.193 C 
ATOM     25  O   UNL     1      21.998  14.204  -1.322  0.00  0.00    -0.219 OA
BRANCH  24  26
ATOM     26  C   UNL     1      23.232  12.524  -2.437  0.00  0.00    +0.212 C 
ATOM     27  O   UNL     1      23.897  12.316  -3.694  0.00  0.00    -0.218 OA
BRANCH  26  28
ATOM     28  C   UNL     1      23.929  11.627  -1.344  0.00  0.00    +0.171 C 
ATOM     29  O   UNL     1      22.995  11.020  -0.457  0.00  0.00    -0.343 OA
ATOM     30  C   UNL     1      23.341  10.381   0.736  0.00  0.00    +0.220 C 
ATOM     31  C   UNL     1      24.253  11.260   1.610  0.00  0.00    +0.076 C 
ATOM     32  C   UNL     1      25.444  11.698   0.741  0.00  0.00    +0.177 C 
ATOM     33  O   UNL     1      26.341  12.482   1.514  0.00  0.00    -0.221 OA
ATOM     34  C   UNL     1      24.937  12.483  -0.509  0.00  0.00    +0.155 C 
BRANCH  34  35
ATOM     35  N   UNL     1      26.065  12.908  -1.333  0.00  0.00    -0.202 NA
ATOM     36  C   UNL     1      26.990  12.161  -1.988  0.00  0.00    +0.242 C 
ATOM     37  C   UNL     1      27.869  12.842  -3.006  0.00  0.00    +0.096 C 
ATOM     38  O   UNL     1      27.089  10.961  -1.741  0.00  0.00    -0.273 OA
ENDBRANCH  34  35
BRANCH  30  39
ATOM     39  C   UNL     1      23.971   8.900   0.517  0.00  0.00    +0.391 C 
ATOM     40  O   UNL     1      24.437   8.538   1.728  0.00  0.00    -0.243 OA
ATOM     41  O   UNL     1      23.528   8.482  -0.676  0.00  0.00    -0.243 OA
ENDBRANCH  30  39
ENDBRANCH  26  28
ENDBRANCH  24  26
ENDBRANCH  23  24
ENDBRANCH   2  23
TORSDOF 10
