REMARK VINA RESULT:    -7.463      2.970      4.649
REMARK INTER + INTRA:         -16.584
REMARK INTER:                 -14.049
REMARK INTRA:                  -2.535
REMARK UNBOUND:                -3.231
REMARK  Name = lig_assembled_34.pdb
REMARK  14 active torsions:
REMARK  status: ('A' for Active; 'I' for Inactive)
REMARK    1  A    between atoms: _2  and  _8
REMARK    2  A    between atoms: _5  and  _6
REMARK    3  A    between atoms: _5  and  _32
REMARK    4  A    between atoms: _10  and  _11
REMARK    5  A    between atoms: _12  and  _13
REMARK    6  A    between atoms: _17  and  _30
REMARK    7  A    between atoms: _32  and  _34
REMARK    8  A    between atoms: _33  and  _38
REMARK    9  A    between atoms: _34  and  _37
REMARK   10  A    between atoms: _42  and  _52
REMARK   11  A    between atoms: _44  and  _45
REMARK   12  A    between atoms: _46  and  _48
REMARK   13  A    between atoms: _48  and  _50
REMARK   14  A    between atoms: _50  and  _52
REMARK                            x       y       z     vdW  Elec       q    Type
REMARK                         _______ _______ _______ _____ _____    ______ ____
ROOT
ATOM      1  N   UNL     1      32.565  14.719  -1.227  0.00  0.00    -0.134 NA
ATOM      2  C   UNL     1      31.779  14.682  -0.111  0.00  0.00    +0.086 A 
ATOM      3  C   UNL     1      32.523  14.210   0.941  0.00  0.00    +0.139 A 
ATOM      4  N   UNL     1      33.784  13.990   0.433  0.00  0.00    -0.220 N 
ATOM      5  N   UNL     1      33.778  14.283  -0.895  0.00  0.00    -0.061 NA
ENDROOT
BRANCH   4   6
ATOM      6  C   UNL     1      34.950  13.577   1.131  0.00  0.00    +0.068 A 
ATOM      7  C   UNL     1      35.942  12.856   0.457  0.00  0.00    +0.038 A 
ATOM      8  C   UNL     1      37.066  12.303   1.117  0.00  0.00    +0.007 A 
ATOM      9  C   UNL     1      37.229  12.553   2.494  0.00  0.00    -0.008 A 
ATOM     10  C   UNL     1      36.245  13.325   3.160  0.00  0.00    +0.011 A 
ATOM     11  C   UNL     1      35.109  13.818   2.496  0.00  0.00    +0.028 A 
BRANCH   9  12
ATOM     12  C   UNL     1      38.334  11.991   3.338  0.00  0.00    +0.004 A 
ATOM     13  C   UNL     1      39.526  12.632   3.499  0.00  0.00    +0.026 A 
ATOM     14  C   UNL     1      39.851  13.890   2.814  0.00  0.00    +0.016 A 
ATOM     15  C   UNL     1      41.090  14.402   2.837  0.00  0.00    +0.051 A 
ATOM     16  C   UNL     1      42.173  13.726   3.591  0.00  0.00    +0.183 A 
ATOM     17  O   UNL     1      43.326  14.149   3.569  0.00  0.00    -0.288 OA
ATOM     18  C   UNL     1      41.799  12.572   4.432  0.00  0.00    +0.097 A 
ATOM     19  C   UNL     1      40.551  12.087   4.411  0.00  0.00    +0.140 A 
ATOM     20  O   UNL     1      40.215  11.094   5.319  0.00  0.00    -0.455 OA
ATOM     21  C   UNL     1      39.036  10.419   5.142  0.00  0.00    +0.140 A 
ATOM     22  C   UNL     1      38.788   9.368   6.027  0.00  0.00    +0.092 A 
ATOM     23  C   UNL     1      37.643   8.604   5.871  0.00  0.00    +0.120 A 
ATOM     24  C   UNL     1      36.788   8.827   4.797  0.00  0.00    +0.046 A 
ATOM     25  C   UNL     1      37.043   9.892   3.927  0.00  0.00    +0.016 A 
ATOM     26  C   UNL     1      38.140  10.742   4.127  0.00  0.00    +0.026 A 
BRANCH  23  27
ATOM     27  O   UNL     1      37.375   7.642   6.800  0.00  0.00    -0.507 OA
ATOM     28  H   UNL     1      37.943   6.879   6.605  0.00  0.00    +0.292 HD
ENDBRANCH  23  27
ENDBRANCH   9  12
BRANCH   8  29
ATOM     29  C   UNL     1      37.969  11.413   0.284  0.00  0.00    +0.072 C 
ATOM     30  O   UNL     1      37.690  10.171   0.289  0.00  0.00    -0.545 OA
ATOM     31  O   UNL     1      38.970  11.940  -0.286  0.00  0.00    -0.545 OA
ENDBRANCH   8  29
ENDBRANCH   4   6
BRANCH   2  32
ATOM     32  C   UNL     1      30.365  15.106  -0.124  0.00  0.00    +0.100 C 
BRANCH  32  33
ATOM     33  C   UNL     1      30.255  16.643  -0.126  0.00  0.00    +0.240 C 
BRANCH  33  34
ATOM     34  O   UNL     1      29.225  17.219  -0.894  0.00  0.00    -0.450 OA
BRANCH  34  35
ATOM     35  C   UNL     1      27.969  17.510  -0.789  0.00  0.00    +0.400 C 
ATOM     36  N   UNL     1      27.107  16.671  -1.455  0.00  0.00    -0.278 N 
ATOM     37  H   UNL     1      26.147  16.960  -1.085  0.00  0.00    +0.152 HD
ATOM     38  O   UNL     1      27.491  18.433  -0.135  0.00  0.00    -0.226 OA
BRANCH  36  39
ATOM     39  C   UNL     1      26.917  15.599  -2.428  0.00  0.00    +0.152 C 
BRANCH  39  40
ATOM     40  C   UNL     1      25.487  15.426  -2.980  0.00  0.00    +0.193 C 
ATOM     41  O   UNL     1      25.549  15.719  -4.393  0.00  0.00    -0.219 OA
BRANCH  40  42
ATOM     42  C   UNL     1      24.857  14.018  -2.905  0.00  0.00    +0.212 C 
ATOM     43  O   UNL     1      25.459  13.147  -3.877  0.00  0.00    -0.218 OA
BRANCH  42  44
ATOM     44  C   UNL     1      24.985  13.351  -1.483  0.00  0.00    +0.171 C 
ATOM     45  O   UNL     1      26.169  12.572  -1.348  0.00  0.00    -0.343 OA
ATOM     46  C   UNL     1      26.413  11.686  -0.296  0.00  0.00    +0.220 C 
ATOM     47  C   UNL     1      25.236  10.719  -0.079  0.00  0.00    +0.076 C 
ATOM     48  C   UNL     1      23.962  11.566   0.071  0.00  0.00    +0.177 C 
ATOM     49  O   UNL     1      22.847  10.721   0.314  0.00  0.00    -0.221 OA
ATOM     50  C   UNL     1      23.745  12.440  -1.203  0.00  0.00    +0.155 C 
BRANCH  50  51
ATOM     51  N   UNL     1      22.531  13.242  -1.067  0.00  0.00    -0.202 NA
ATOM     52  C   UNL     1      21.305  13.060  -1.618  0.00  0.00    +0.242 C 
ATOM     53  C   UNL     1      20.152  13.867  -1.080  0.00  0.00    +0.096 C 
ATOM     54  O   UNL     1      21.163  12.250  -2.532  0.00  0.00    -0.273 OA
ENDBRANCH  50  51
BRANCH  46  55
ATOM     55  C   UNL     1      26.841  12.425   1.087  0.00  0.00    +0.391 C 
ATOM     56  O   UNL     1      26.577  11.527   2.056  0.00  0.00    -0.243 OA
ATOM     57  O   UNL     1      27.557  13.497   0.727  0.00  0.00    -0.243 OA
ENDBRANCH  46  55
ENDBRANCH  42  44
ENDBRANCH  40  42
ENDBRANCH  39  40
ENDBRANCH  36  39
ENDBRANCH  34  35
ENDBRANCH  33  34
ENDBRANCH  32  33
ENDBRANCH   2  32
TORSDOF 14
