REMARK VINA RESULT:    -6.059      1.928      2.903
REMARK INTER + INTRA:         -13.800
REMARK INTER:                 -11.900
REMARK INTRA:                  -1.900
REMARK UNBOUND:                -1.720
REMARK  Name = lig_assembled_54.pdb
REMARK  19 active torsions:
REMARK  status: ('A' for Active; 'I' for Inactive)
REMARK    1  A    between atoms: _2  and  _8
REMARK    2  A    between atoms: _4  and  _13
REMARK    3  A    between atoms: _5  and  _6
REMARK    4  A    between atoms: _5  and  _16
REMARK    5  A    between atoms: _8  and  _9
REMARK    6  A    between atoms: _9  and  _10
REMARK    7  A    between atoms: _10  and  _14
REMARK    8  A    between atoms: _10  and  _15
REMARK    9  A    between atoms: _11  and  _12
REMARK   10  A    between atoms: _11  and  _15
REMARK   11  A    between atoms: _13  and  _14
REMARK   12  A    between atoms: _16  and  _18
REMARK   13  A    between atoms: _17  and  _22
REMARK   14  A    between atoms: _18  and  _21
REMARK   15  A    between atoms: _26  and  _36
REMARK   16  A    between atoms: _28  and  _29
REMARK   17  A    between atoms: _30  and  _32
REMARK   18  A    between atoms: _32  and  _34
REMARK   19  A    between atoms: _34  and  _36
REMARK                            x       y       z     vdW  Elec       q    Type
REMARK                         _______ _______ _______ _____ _____    ______ ____
ROOT
ATOM      1  C   UNL     1      28.134  17.164  -0.712  0.00  0.00    +0.400 C 
ATOM      2  N   UNL     1      28.437  16.012  -0.024  0.00  0.00    -0.278 N 
ATOM      3  H   UNL     1      28.757  16.372   0.931  0.00  0.00    +0.152 HD
ATOM      4  O   UNL     1      28.112  18.222  -0.089  0.00  0.00    -0.226 OA
ENDROOT
BRANCH   1   5
ATOM      5  O   UNL     1      27.927  17.020  -1.980  0.00  0.00    -0.450 OA
BRANCH   5   6
ATOM      6  C   UNL     1      26.988  17.400  -2.959  0.00  0.00    +0.240 C 
BRANCH   6   7
ATOM      7  C   UNL     1      26.855  16.501  -4.202  0.00  0.00    +0.100 C 
BRANCH   7   9
ATOM      8  N   UNL     1      25.121  15.087  -5.264  0.00  0.00    -0.134 NA
ATOM      9  C   UNL     1      25.562  15.791  -4.175  0.00  0.00    +0.086 A 
ATOM     10  C   UNL     1      24.636  15.677  -3.160  0.00  0.00    +0.133 A 
ATOM     11  N   UNL     1      23.677  14.862  -3.681  0.00  0.00    -0.251 N 
ATOM     12  N   UNL     1      23.968  14.513  -4.948  0.00  0.00    -0.065 NA
BRANCH  11  13
ATOM     13  C   UNL     1      22.500  14.326  -3.027  0.00  0.00    +0.150 C 
BRANCH  13  14
ATOM     14  C   UNL     1      22.757  14.029  -1.557  0.00  0.00    +0.084 C 
BRANCH  14  15
ATOM     15  C   UNL     1      23.505  12.712  -1.322  0.00  0.00    +0.252 C 
BRANCH  15  16
ATOM     16  O   UNL     1      23.083  11.729  -2.271  0.00  0.00    -0.352 OA
BRANCH  16  17
ATOM     17  C   UNL     1      24.082  10.764  -2.596  0.00  0.00    +0.159 C 
ATOM     18  C   UNL     1      24.950  11.315  -3.709  0.00  0.00    +0.034 C 
ENDBRANCH  16  17
ENDBRANCH  15  16
BRANCH  15  19
ATOM     19  O   UNL     1      23.196  12.270   0.006  0.00  0.00    -0.352 OA
BRANCH  19  20
ATOM     20  C   UNL     1      21.808  11.979   0.176  0.00  0.00    +0.159 C 
ATOM     21  C   UNL     1      21.532  11.721   1.644  0.00  0.00    +0.034 C 
ENDBRANCH  19  20
ENDBRANCH  15  19
ENDBRANCH  14  15
ENDBRANCH  13  14
ENDBRANCH  11  13
ENDBRANCH   7   9
ENDBRANCH   6   7
ENDBRANCH   5   6
ENDBRANCH   1   5
BRANCH   2  22
ATOM     22  C   UNL     1      28.504  14.553  -0.008  0.00  0.00    +0.152 C 
BRANCH  22  23
ATOM     23  C   UNL     1      29.159  13.917   1.235  0.00  0.00    +0.193 C 
ATOM     24  O   UNL     1      28.161  13.920   2.279  0.00  0.00    -0.219 OA
BRANCH  23  25
ATOM     25  C   UNL     1      29.604  12.441   1.132  0.00  0.00    +0.212 C 
ATOM     26  O   UNL     1      29.724  12.048  -0.245  0.00  0.00    -0.218 OA
BRANCH  25  27
ATOM     27  C   UNL     1      30.970  12.148   1.860  0.00  0.00    +0.171 C 
ATOM     28  O   UNL     1      30.828  12.055   3.274  0.00  0.00    -0.343 OA
ATOM     29  C   UNL     1      31.896  12.045   4.175  0.00  0.00    +0.220 C 
ATOM     30  C   UNL     1      32.870  13.209   3.917  0.00  0.00    +0.076 C 
ATOM     31  C   UNL     1      33.273  13.155   2.434  0.00  0.00    +0.177 C 
ATOM     32  O   UNL     1      34.206  14.187   2.151  0.00  0.00    -0.221 OA
ATOM     33  C   UNL     1      32.008  13.270   1.529  0.00  0.00    +0.155 C 
BRANCH  33  34
ATOM     34  N   UNL     1      32.387  13.226   0.119  0.00  0.00    -0.202 NA
ATOM     35  C   UNL     1      32.433  14.225  -0.799  0.00  0.00    +0.242 C 
ATOM     36  C   UNL     1      33.141  13.966  -2.103  0.00  0.00    +0.096 C 
ATOM     37  O   UNL     1      31.903  15.306  -0.548  0.00  0.00    -0.273 OA
ENDBRANCH  33  34
BRANCH  29  38
ATOM     38  C   UNL     1      32.673  10.620   4.242  0.00  0.00    +0.391 C 
ATOM     39  O   UNL     1      33.830  10.885   4.880  0.00  0.00    -0.243 OA
ATOM     40  O   UNL     1      31.766   9.689   3.922  0.00  0.00    -0.243 OA
ENDBRANCH  29  38
ENDBRANCH  25  27
ENDBRANCH  23  25
ENDBRANCH  22  23
ENDBRANCH   2  22
TORSDOF 17
