REMARK VINA RESULT:    -5.990      2.249      4.585
REMARK INTER + INTRA:         -14.682
REMARK INTER:                 -12.226
REMARK INTRA:                  -2.456
REMARK UNBOUND:                -3.439
REMARK  Name = lig_assembled_84.pdb
REMARK  16 active torsions:
REMARK  status: ('A' for Active; 'I' for Inactive)
REMARK    1  A    between atoms: _2  and  _10
REMARK    2  A    between atoms: _3  and  _13
REMARK    3  A    between atoms: _4  and  _16
REMARK    4  A    between atoms: _7  and  _8
REMARK    5  A    between atoms: _7  and  _23
REMARK    6  A    between atoms: _10  and  _11
REMARK    7  A    between atoms: _11  and  _12
REMARK    8  A    between atoms: _11  and  _13
REMARK    9  A    between atoms: _23  and  _25
REMARK   10  A    between atoms: _24  and  _29
REMARK   11  A    between atoms: _25  and  _28
REMARK   12  A    between atoms: _33  and  _43
REMARK   13  A    between atoms: _35  and  _36
REMARK   14  A    between atoms: _37  and  _39
REMARK   15  A    between atoms: _39  and  _41
REMARK   16  A    between atoms: _41  and  _43
REMARK                            x       y       z     vdW  Elec       q    Type
REMARK                         _______ _______ _______ _____ _____    ______ ____
ROOT
ATOM      1  C   UNL     1      26.114  11.520   1.483  0.00  0.00    +0.240 C 
ENDROOT
BRANCH   1   2
ATOM      2  C   UNL     1      24.891  10.994   2.258  0.00  0.00    +0.100 C 
BRANCH   2   4
ATOM      3  N   UNL     1      22.435  11.324   2.217  0.00  0.00    -0.134 NA
ATOM      4  C   UNL     1      23.639  11.352   1.565  0.00  0.00    +0.086 A 
ATOM      5  C   UNL     1      23.431  11.711   0.251  0.00  0.00    +0.133 A 
ATOM      6  N   UNL     1      22.076  11.823   0.153  0.00  0.00    -0.251 N 
ATOM      7  N   UNL     1      21.482  11.612   1.340  0.00  0.00    -0.065 NA
BRANCH   6   8
ATOM      8  C   UNL     1      21.286  11.987  -1.051  0.00  0.00    +0.149 C 
BRANCH   8   9
ATOM      9  C   UNL     1      22.037  11.657  -2.352  0.00  0.00    +0.021 C 
ATOM     10  C   UNL     1      21.592  10.303  -2.924  0.00  0.00    +0.010 C 
BRANCH   9  11
ATOM     11  C   UNL     1      21.811  12.750  -3.425  0.00  0.00    +0.089 C 
BRANCH  11  12
ATOM     12  N   UNL     1      22.989  13.557  -3.769  0.00  0.00    -0.299 NA
ATOM     13  C   UNL     1      24.225  12.889  -3.280  0.00  0.00    +0.103 C 
ATOM     14  C   UNL     1      25.494  13.661  -3.694  0.00  0.00    +0.120 C 
ATOM     15  N   UNL     1      25.432  15.031  -3.172  0.00  0.00    -0.327 N 
ATOM     16  C   UNL     1      24.217  15.768  -3.549  0.00  0.00    +0.120 C 
ATOM     17  C   UNL     1      22.952  14.930  -3.203  0.00  0.00    +0.103 C 
BRANCH  15  18
ATOM     18  C   UNL     1      26.451  15.593  -2.438  0.00  0.00    +0.030 A 
ATOM     19  C   UNL     1      26.700  16.978  -2.475  0.00  0.00    +0.024 A 
ATOM     20  C   UNL     1      27.747  17.566  -1.757  0.00  0.00    +0.022 A 
ATOM     21  C   UNL     1      28.568  16.773  -0.972  0.00  0.00    +0.041 A 
ATOM     22 CL   UNL     1      29.861  17.487  -0.089  0.00  0.00    -0.084 Cl
ATOM     23  C   UNL     1      28.354  15.401  -0.906  0.00  0.00    +0.022 A 
ATOM     24  C   UNL     1      27.306  14.823  -1.636  0.00  0.00    +0.024 A 
ENDBRANCH  15  18
ENDBRANCH  11  12
ENDBRANCH   9  11
ENDBRANCH   8   9
ENDBRANCH   6   8
ENDBRANCH   2   4
ENDBRANCH   1   2
BRANCH   1  25
ATOM     25  O   UNL     1      27.238  11.917   2.234  0.00  0.00    -0.450 OA
BRANCH  25  26
ATOM     26  C   UNL     1      28.087  12.890   2.288  0.00  0.00    +0.400 C 
ATOM     27  N   UNL     1      29.245  12.711   1.567  0.00  0.00    -0.278 N 
ATOM     28  H   UNL     1      29.698  13.679   1.585  0.00  0.00    +0.152 HD
ATOM     29  O   UNL     1      27.938  13.950   2.890  0.00  0.00    -0.226 OA
BRANCH  27  30
ATOM     30  C   UNL     1      30.118  11.810   0.820  0.00  0.00    +0.152 C 
BRANCH  30  31
ATOM     31  C   UNL     1      31.265  12.475   0.031  0.00  0.00    +0.193 C 
ATOM     32  O   UNL     1      30.657  13.159  -1.088  0.00  0.00    -0.219 OA
BRANCH  31  33
ATOM     33  C   UNL     1      32.088  13.567   0.749  0.00  0.00    +0.212 C 
ATOM     34  O   UNL     1      31.233  14.640   1.178  0.00  0.00    -0.218 OA
BRANCH  33  35
ATOM     35  C   UNL     1      32.885  13.028   1.997  0.00  0.00    +0.171 C 
ATOM     36  O   UNL     1      32.368  13.517   3.230  0.00  0.00    -0.343 OA
ATOM     37  C   UNL     1      33.019  13.399   4.460  0.00  0.00    +0.220 C 
ATOM     38  C   UNL     1      34.476  13.888   4.383  0.00  0.00    +0.076 C 
ATOM     39  C   UNL     1      35.152  13.146   3.219  0.00  0.00    +0.177 C 
ATOM     40  O   UNL     1      36.516  13.533   3.129  0.00  0.00    -0.221 OA
ATOM     41  C   UNL     1      34.392  13.431   1.886  0.00  0.00    +0.155 C 
BRANCH  41  42
ATOM     42  N   UNL     1      35.036  12.733   0.776  0.00  0.00    -0.202 NA
ATOM     43  C   UNL     1      35.399  13.196  -0.447  0.00  0.00    +0.242 C 
ATOM     44  C   UNL     1      36.312  12.346  -1.292  0.00  0.00    +0.096 C 
ATOM     45  O   UNL     1      34.981  14.287  -0.832  0.00  0.00    -0.273 OA
ENDBRANCH  41  42
BRANCH  37  46
ATOM     46  C   UNL     1      32.922  11.910   5.104  0.00  0.00    +0.391 C 
ATOM     47  O   UNL     1      32.132  11.218   4.261  0.00  0.00    -0.243 OA
ATOM     48  O   UNL     1      33.882  11.847   6.035  0.00  0.00    -0.243 OA
ENDBRANCH  37  46
ENDBRANCH  33  35
ENDBRANCH  31  33
ENDBRANCH  30  31
ENDBRANCH  27  30
ENDBRANCH  25  26
ENDBRANCH   1  25
TORSDOF 15
