REMARK VINA RESULT:    -7.600      2.590      5.269
REMARK INTER + INTRA:         -16.149
REMARK INTER:                 -14.340
REMARK INTRA:                  -1.809
REMARK UNBOUND:                -2.551
REMARK  Name = lig_assembled_64.pdb
REMARK  14 active torsions:
REMARK  status: ('A' for Active; 'I' for Inactive)
REMARK    1  A    between atoms: _2  and  _9
REMARK    2  A    between atoms: _6  and  _7
REMARK    3  A    between atoms: _6  and  _22
REMARK    4  A    between atoms: _11  and  _12
REMARK    5  A    between atoms: _12  and  _20
REMARK    6  A    between atoms: _13  and  _14
REMARK    7  A    between atoms: _22  and  _24
REMARK    8  A    between atoms: _23  and  _28
REMARK    9  A    between atoms: _24  and  _27
REMARK   10  A    between atoms: _32  and  _42
REMARK   11  A    between atoms: _34  and  _35
REMARK   12  A    between atoms: _36  and  _38
REMARK   13  A    between atoms: _38  and  _40
REMARK   14  A    between atoms: _40  and  _42
REMARK                            x       y       z     vdW  Elec       q    Type
REMARK                         _______ _______ _______ _____ _____    ______ ____
ROOT
ATOM      1  O   UNL     1      28.268  16.983  -1.619  0.00  0.00    -0.450 OA
ENDROOT
BRANCH   1   2
ATOM      2  C   UNL     1      28.917  17.181  -0.518  0.00  0.00    +0.400 C 
ATOM      3  N   UNL     1      29.151  16.062   0.245  0.00  0.00    -0.278 N 
ATOM      4  H   UNL     1      29.849  16.404   0.978  0.00  0.00    +0.152 HD
ATOM      5  O   UNL     1      29.358  18.256  -0.121  0.00  0.00    -0.226 OA
BRANCH   3   6
ATOM      6  C   UNL     1      28.869  14.652   0.506  0.00  0.00    +0.152 C 
BRANCH   6   7
ATOM      7  C   UNL     1      30.035  13.822   1.081  0.00  0.00    +0.193 C 
ATOM      8  O   UNL     1      30.272  12.740   0.153  0.00  0.00    -0.219 OA
BRANCH   7   9
ATOM      9  C   UNL     1      31.407  14.517   1.221  0.00  0.00    +0.212 C 
ATOM     10  O   UNL     1      31.318  15.626   2.130  0.00  0.00    -0.218 OA
BRANCH   9  11
ATOM     11  C   UNL     1      32.549  13.550   1.717  0.00  0.00    +0.171 C 
ATOM     12  O   UNL     1      32.943  13.810   3.060  0.00  0.00    -0.343 OA
ATOM     13  C   UNL     1      34.083  13.276   3.665  0.00  0.00    +0.220 C 
ATOM     14  C   UNL     1      35.339  13.487   2.802  0.00  0.00    +0.076 C 
ATOM     15  C   UNL     1      35.033  12.938   1.398  0.00  0.00    +0.177 C 
ATOM     16  O   UNL     1      36.178  13.072   0.568  0.00  0.00    -0.221 OA
ATOM     17  C   UNL     1      33.801  13.677   0.789  0.00  0.00    +0.155 C 
BRANCH  17  18
ATOM     18  N   UNL     1      33.512  13.163  -0.548  0.00  0.00    -0.202 NA
ATOM     19  C   UNL     1      33.379  13.828  -1.723  0.00  0.00    +0.242 C 
ATOM     20  C   UNL     1      33.373  13.029  -3.001  0.00  0.00    +0.096 C 
ATOM     21  O   UNL     1      33.269  15.052  -1.720  0.00  0.00    -0.273 OA
ENDBRANCH  17  18
BRANCH  13  22
ATOM     22  C   UNL     1      33.914  11.721   4.104  0.00  0.00    +0.391 C 
ATOM     23  O   UNL     1      35.145  11.333   4.491  0.00  0.00    -0.243 OA
ATOM     24  O   UNL     1      32.597  11.506   4.203  0.00  0.00    -0.243 OA
ENDBRANCH  13  22
ENDBRANCH   9  11
ENDBRANCH   7   9
ENDBRANCH   6   7
ENDBRANCH   3   6
ENDBRANCH   1   2
BRANCH   1  25
ATOM     25  C   UNL     1      27.123  17.462  -2.285  0.00  0.00    +0.240 C 
BRANCH  25  26
ATOM     26  C   UNL     1      26.902  17.002  -3.739  0.00  0.00    +0.100 C 
BRANCH  26  28
ATOM     27  N   UNL     1      25.416  15.451  -4.980  0.00  0.00    -0.134 NA
ATOM     28  C   UNL     1      25.732  16.108  -3.826  0.00  0.00    +0.086 A 
ATOM     29  C   UNL     1      24.809  15.784  -2.860  0.00  0.00    +0.139 A 
ATOM     30  N   UNL     1      23.934  14.922  -3.477  0.00  0.00    -0.220 N 
ATOM     31  N   UNL     1      24.323  14.730  -4.760  0.00  0.00    -0.061 NA
BRANCH  30  32
ATOM     32  C   UNL     1      22.790  14.289  -2.933  0.00  0.00    +0.071 A 
ATOM     33  C   UNL     1      21.518  14.641  -3.373  0.00  0.00    +0.063 A 
ATOM     34  CA  UNL     1      20.444  13.987  -2.803  0.00  0.00    +0.150 A 
ATOM     35  N   UNL     1      20.538  13.028  -1.838  0.00  0.00    -0.240 NA
ATOM     36  C   UNL     1      21.786  12.699  -1.405  0.00  0.00    +0.074 A 
ATOM     37  C   UNL     1      22.926  13.304  -1.943  0.00  0.00    +0.056 A 
BRANCH  36  38
ATOM     38  C   UNL     1      21.840  11.690  -0.319  0.00  0.00    +0.000 A 
ATOM     39  C   UNL     1      22.072  10.325  -0.578  0.00  0.00    +0.010 A 
ATOM     40  C   UNL     1      22.158   9.386   0.457  0.00  0.00    +0.001 A 
ATOM     41  C   UNL     1      22.015   9.791   1.780  0.00  0.00    +0.000 A 
ATOM     42  C   UNL     1      21.778  11.130   2.067  0.00  0.00    +0.001 A 
ATOM     43  C   UNL     1      21.691  12.066   1.030  0.00  0.00    +0.010 A 
ENDBRANCH  36  38
BRANCH  34  44
ATOM     44  C   UNL     1      19.061  14.333  -3.243  0.00  0.00    +0.355 C 
ATOM     45  OXT UNL     1      18.164  13.523  -3.399  0.00  0.00    -0.243 OA
BRANCH  44  46
ATOM     46  O   UNL     1      18.942  15.665  -3.446  0.00  0.00    -0.476 OA
ATOM     47  H   UNL     1      18.074  15.967  -3.094  0.00  0.00    +0.295 HD
ENDBRANCH  44  46
ENDBRANCH  34  44
ENDBRANCH  30  32
ENDBRANCH  26  28
ENDBRANCH  25  26
ENDBRANCH   1  25
TORSDOF 14
