REMARK VINA RESULT:    -7.638      1.854      2.627
REMARK INTER + INTRA:         -14.324
REMARK INTER:                 -11.802
REMARK INTRA:                  -2.522
REMARK UNBOUND:                -1.775
REMARK  Name = lig_assembled_42.pdb
REMARK  11 active torsions:
REMARK  status: ('A' for Active; 'I' for Inactive)
REMARK    1  A    between atoms: _2  and  _8
REMARK    2  A    between atoms: _5  and  _6
REMARK    3  A    between atoms: _5  and  _16
REMARK    4  A    between atoms: _16  and  _18
REMARK    5  A    between atoms: _17  and  _22
REMARK    6  A    between atoms: _18  and  _21
REMARK    7  A    between atoms: _26  and  _36
REMARK    8  A    between atoms: _28  and  _29
REMARK    9  A    between atoms: _30  and  _32
REMARK   10  A    between atoms: _32  and  _34
REMARK   11  A    between atoms: _34  and  _36
REMARK                            x       y       z     vdW  Elec       q    Type
REMARK                         _______ _______ _______ _____ _____    ______ ____
ROOT
ATOM      1  C   UNL     1      28.185  16.786  -0.795  0.00  0.00    +0.400 C 
ATOM      2  N   UNL     1      28.358  15.536  -0.251  0.00  0.00    -0.278 N 
ATOM      3  H   UNL     1      28.796  15.740   0.702  0.00  0.00    +0.152 HD
ATOM      4  O   UNL     1      28.370  17.763  -0.074  0.00  0.00    -0.226 OA
ENDROOT
BRANCH   1   5
ATOM      5  O   UNL     1      27.868  16.812  -2.048  0.00  0.00    -0.450 OA
BRANCH   5   6
ATOM      6  C   UNL     1      26.970  17.473  -2.910  0.00  0.00    +0.240 C 
BRANCH   6   7
ATOM      7  C   UNL     1      26.179  16.609  -3.910  0.00  0.00    +0.100 C 
BRANCH   7   9
ATOM      8  N   UNL     1      26.283  14.157  -3.542  0.00  0.00    -0.134 NA
ATOM      9  C   UNL     1      25.713  15.367  -3.267  0.00  0.00    +0.086 A 
ATOM     10  C   UNL     1      24.707  15.188  -2.349  0.00  0.00    +0.139 A 
ATOM     11  N   UNL     1      24.695  13.839  -2.085  0.00  0.00    -0.220 N 
ATOM     12  N   UNL     1      25.660  13.233  -2.820  0.00  0.00    -0.061 NA
BRANCH  11  13
ATOM     13  C   UNL     1      23.843  13.123  -1.206  0.00  0.00    +0.071 A 
ATOM     14  C   UNL     1      24.392  12.309  -0.204  0.00  0.00    +0.077 A 
ATOM     15  C   UNL     1      23.522  11.633   0.624  0.00  0.00    +0.168 A 
ATOM     16  O   UNL     1      23.890  10.811   1.642  0.00  0.00    -0.453 OA
ATOM     17  C   UNL     1      22.599  10.410   2.143  0.00  0.00    +0.466 C 
ATOM     18  O   UNL     1      21.495  10.990   1.415  0.00  0.00    -0.453 OA
ATOM     19  C   UNL     1      22.159  11.738   0.493  0.00  0.00    +0.166 A 
ATOM     20  C   UNL     1      21.584  12.526  -0.480  0.00  0.00    +0.051 A 
ATOM     21  C   UNL     1      22.438  13.229  -1.341  0.00  0.00    +0.031 A 
ENDBRANCH  11  13
ENDBRANCH   7   9
ENDBRANCH   6   7
ENDBRANCH   5   6
ENDBRANCH   1   5
BRANCH   2  22
ATOM     22  C   UNL     1      28.201  14.090  -0.381  0.00  0.00    +0.152 C 
BRANCH  22  23
ATOM     23  C   UNL     1      27.879  13.321   0.917  0.00  0.00    +0.193 C 
ATOM     24  O   UNL     1      28.342  11.966   0.723  0.00  0.00    -0.219 OA
BRANCH  23  25
ATOM     25  C   UNL     1      28.578  13.785   2.214  0.00  0.00    +0.212 C 
ATOM     26  O   UNL     1      27.619  13.939   3.273  0.00  0.00    -0.218 OA
BRANCH  25  27
ATOM     27  C   UNL     1      29.710  12.801   2.699  0.00  0.00    +0.171 C 
ATOM     28  O   UNL     1      29.498  12.334   4.027  0.00  0.00    -0.343 OA
ATOM     29  C   UNL     1      30.454  11.655   4.787  0.00  0.00    +0.220 C 
ATOM     30  C   UNL     1      31.801  12.399   4.804  0.00  0.00    +0.076 C 
ATOM     31  C   UNL     1      32.203  12.664   3.344  0.00  0.00    +0.177 C 
ATOM     32  O   UNL     1      33.464  13.316   3.301  0.00  0.00    -0.221 OA
ATOM     33  C   UNL     1      31.103  13.509   2.629  0.00  0.00    +0.155 C 
BRANCH  33  34
ATOM     34  N   UNL     1      31.484  13.769   1.243  0.00  0.00    -0.202 NA
ATOM     35  C   UNL     1      31.605  14.948   0.582  0.00  0.00    +0.242 C 
ATOM     36  C   UNL     1      32.298  14.952  -0.756  0.00  0.00    +0.096 C 
ATOM     37  O   UNL     1      31.153  15.975   1.085  0.00  0.00    -0.273 OA
ENDBRANCH  33  34
BRANCH  29  38
ATOM     38  C   UNL     1      30.637  10.100   4.356  0.00  0.00    +0.391 C 
ATOM     39  O   UNL     1      31.746   9.689   5.002  0.00  0.00    -0.243 OA
ATOM     40  O   UNL     1      29.483   9.736   3.784  0.00  0.00    -0.243 OA
ENDBRANCH  29  38
ENDBRANCH  25  27
ENDBRANCH  23  25
ENDBRANCH  22  23
ENDBRANCH   2  22
TORSDOF 11
