REMARK VINA RESULT:    -6.815      1.648      3.534
REMARK INTER + INTRA:         -13.047
REMARK INTER:                 -11.838
REMARK INTRA:                  -1.209
REMARK UNBOUND:                -1.850
REMARK  Name = lig_assembled_2.pdb
REMARK  11 active torsions:
REMARK  status: ('A' for Active; 'I' for Inactive)
REMARK    1  A    between atoms: _2  and  _8
REMARK    2  A    between atoms: _5  and  _6
REMARK    3  A    between atoms: _5  and  _13
REMARK    4  A    between atoms: _13  and  _15
REMARK    5  A    between atoms: _14  and  _19
REMARK    6  A    between atoms: _15  and  _18
REMARK    7  A    between atoms: _23  and  _33
REMARK    8  A    between atoms: _25  and  _26
REMARK    9  A    between atoms: _27  and  _29
REMARK   10  A    between atoms: _29  and  _31
REMARK   11  A    between atoms: _31  and  _33
REMARK                            x       y       z     vdW  Elec       q    Type
REMARK                         _______ _______ _______ _____ _____    ______ ____
ROOT
ATOM      1  C   UNL     1      28.524  17.021  -0.666  0.00  0.00    +0.400 C 
ATOM      2  N   UNL     1      28.682  15.865   0.061  0.00  0.00    -0.278 N 
ATOM      3  H   UNL     1      29.222  16.189   0.925  0.00  0.00    +0.152 HD
ATOM      4  O   UNL     1      28.830  18.086  -0.136  0.00  0.00    -0.226 OA
ENDROOT
BRANCH   1   5
ATOM      5  O   UNL     1      28.089  16.867  -1.874  0.00  0.00    -0.450 OA
BRANCH   5   6
ATOM      6  C   UNL     1      27.045  17.329  -2.700  0.00  0.00    +0.240 C 
BRANCH   6   7
ATOM      7  C   UNL     1      26.412  16.320  -3.676  0.00  0.00    +0.100 C 
BRANCH   7   9
ATOM      8  N   UNL     1      24.019  15.894  -3.214  0.00  0.00    -0.134 NA
ATOM      9  C   UNL     1      25.329  15.572  -3.009  0.00  0.00    +0.086 A 
ATOM     10  C   UNL     1      25.400  14.506  -2.143  0.00  0.00    +0.139 A 
ATOM     11  N   UNL     1      24.091  14.187  -1.863  0.00  0.00    -0.220 N 
ATOM     12  N   UNL     1      23.273  15.053  -2.510  0.00  0.00    -0.061 NA
BRANCH  11  13
ATOM     13  C   UNL     1      23.585  13.125  -1.069  0.00  0.00    +0.067 A 
ATOM     14  C   UNL     1      22.204  12.913  -0.944  0.00  0.00    +0.029 A 
ATOM     15  C   UNL     1      21.725  11.884  -0.125  0.00  0.00    +0.022 A 
ATOM     16  C   UNL     1      22.619  11.067   0.564  0.00  0.00    +0.041 A 
ATOM     17 CL   UNL     1      22.021   9.818   1.584  0.00  0.00    -0.084 Cl
ATOM     18  C   UNL     1      23.992  11.260   0.434  0.00  0.00    +0.022 A 
ATOM     19  C   UNL     1      24.478  12.286  -0.382  0.00  0.00    +0.029 A 
ENDBRANCH  11  13
ENDBRANCH   7   9
ENDBRANCH   6   7
ENDBRANCH   5   6
ENDBRANCH   1   5
BRANCH   2  20
ATOM     20  C   UNL     1      28.437  14.431   0.187  0.00  0.00    +0.152 C 
BRANCH  20  21
ATOM     21  C   UNL     1      28.350  13.879   1.625  0.00  0.00    +0.193 C 
ATOM     22  O   UNL     1      27.239  12.957   1.650  0.00  0.00    -0.219 OA
BRANCH  21  23
ATOM     23  C   UNL     1      29.547  13.055   2.148  0.00  0.00    +0.212 C 
ATOM     24  O   UNL     1      29.344  11.656   1.890  0.00  0.00    -0.218 OA
BRANCH  23  25
ATOM     25  C   UNL     1      30.926  13.488   1.519  0.00  0.00    +0.171 C 
ATOM     26  O   UNL     1      30.943  13.367   0.101  0.00  0.00    -0.343 OA
ATOM     27  C   UNL     1      32.097  13.448  -0.684  0.00  0.00    +0.220 C 
ATOM     28  C   UNL     1      33.208  12.520  -0.161  0.00  0.00    +0.076 C 
ATOM     29  C   UNL     1      33.414  12.840   1.329  0.00  0.00    +0.177 C 
ATOM     30  O   UNL     1      34.461  12.036   1.853  0.00  0.00    -0.221 OA
ATOM     31  C   UNL     1      32.084  12.621   2.115  0.00  0.00    +0.155 C 
BRANCH  31  32
ATOM     32  N   UNL     1      32.278  12.917   3.532  0.00  0.00    -0.202 NA
ATOM     33  C   UNL     1      32.115  12.116   4.616  0.00  0.00    +0.242 C 
ATOM     34  C   UNL     1      32.666  12.581   5.938  0.00  0.00    +0.096 C 
ATOM     35  O   UNL     1      31.529  11.042   4.495  0.00  0.00    -0.273 OA
ENDBRANCH  31  32
BRANCH  27  36
ATOM     36  C   UNL     1      32.634  14.967  -0.889  0.00  0.00    +0.391 C 
ATOM     37  O   UNL     1      31.622  15.753  -0.474  0.00  0.00    -0.243 OA
ATOM     38  O   UNL     1      33.953  14.867  -1.098  0.00  0.00    -0.243 OA
ENDBRANCH  27  36
ENDBRANCH  23  25
ENDBRANCH  21  23
ENDBRANCH  20  21
ENDBRANCH   2  20
TORSDOF 11
