REMARK VINA RESULT:    -6.423      2.433      3.140
REMARK INTER + INTRA:         -13.208
REMARK INTER:                 -11.117
REMARK INTRA:                  -2.091
REMARK UNBOUND:                -1.716
REMARK  Name = lig_assembled_32.pdb
REMARK  14 active torsions:
REMARK  status: ('A' for Active; 'I' for Inactive)
REMARK    1  A    between atoms: _2  and  _8
REMARK    2  A    between atoms: _4  and  _9
REMARK    3  A    between atoms: _4  and  _10
REMARK    4  A    between atoms: _5  and  _6
REMARK    5  A    between atoms: _5  and  _12
REMARK    6  A    between atoms: _8  and  _9
REMARK    7  A    between atoms: _12  and  _14
REMARK    8  A    between atoms: _13  and  _18
REMARK    9  A    between atoms: _14  and  _17
REMARK   10  A    between atoms: _22  and  _32
REMARK   11  A    between atoms: _24  and  _25
REMARK   12  A    between atoms: _26  and  _28
REMARK   13  A    between atoms: _28  and  _30
REMARK   14  A    between atoms: _30  and  _32
REMARK                            x       y       z     vdW  Elec       q    Type
REMARK                         _______ _______ _______ _____ _____    ______ ____
ROOT
ATOM      1  C   UNL     1      28.561  14.808   0.037  0.00  0.00    +0.152 C 
ENDROOT
BRANCH   1   3
ATOM      2  C   UNL     1      27.917  17.247  -1.003  0.00  0.00    +0.400 C 
ATOM      3  N   UNL     1      28.341  16.237  -0.172  0.00  0.00    -0.278 N 
ATOM      4  H   UNL     1      28.622  16.753   0.720  0.00  0.00    +0.152 HD
ATOM      5  O   UNL     1      27.784  18.372  -0.527  0.00  0.00    -0.226 OA
BRANCH   2   6
ATOM      6  O   UNL     1      27.724  16.914  -2.237  0.00  0.00    -0.450 OA
BRANCH   6   7
ATOM      7  C   UNL     1      26.996  17.350  -3.361  0.00  0.00    +0.240 C 
BRANCH   7   8
ATOM      8  C   UNL     1      26.284  16.278  -4.207  0.00  0.00    +0.100 C 
BRANCH   8  10
ATOM      9  N   UNL     1      24.501  15.498  -2.679  0.00  0.00    -0.134 NA
ATOM     10  C   UNL     1      25.678  15.255  -3.335  0.00  0.00    +0.086 A 
ATOM     11  C   UNL     1      26.113  13.985  -3.023  0.00  0.00    +0.133 A 
ATOM     12  N   UNL     1      25.165  13.518  -2.166  0.00  0.00    -0.251 N 
ATOM     13  N   UNL     1      24.197  14.426  -1.961  0.00  0.00    -0.065 NA
BRANCH  12  14
ATOM     14  C   UNL     1      25.107  12.230  -1.510  0.00  0.00    +0.156 C 
BRANCH  14  15
ATOM     15  C   UNL     1      26.291  12.011  -0.578  0.00  0.00    +0.143 C 
BRANCH  15  16
ATOM     16  C   UNL     1      25.819  11.912   0.844  0.00  0.00    +0.306 C 
ATOM     17  O   UNL     1      24.783  11.374   1.199  0.00  0.00    -0.251 OA
BRANCH  16  18
ATOM     18  O   UNL     1      26.665  12.505   1.715  0.00  0.00    -0.481 OA
ATOM     19  H   UNL     1      27.308  13.114   1.302  0.00  0.00    +0.295 HD
ENDBRANCH  16  18
ENDBRANCH  15  16
ENDBRANCH  14  15
ENDBRANCH  12  14
ENDBRANCH   8  10
ENDBRANCH   7   8
ENDBRANCH   6   7
ENDBRANCH   2   6
ENDBRANCH   1   3
BRANCH   1  20
ATOM     20  C   UNL     1      29.606  14.432   1.107  0.00  0.00    +0.193 C 
ATOM     21  O   UNL     1      29.722  12.992   1.085  0.00  0.00    -0.219 OA
BRANCH  20  22
ATOM     22  C   UNL     1      31.051  14.938   0.904  0.00  0.00    +0.212 C 
ATOM     23  O   UNL     1      31.175  16.296   1.355  0.00  0.00    -0.218 OA
BRANCH  22  24
ATOM     24  C   UNL     1      32.130  14.060   1.646  0.00  0.00    +0.171 C 
ATOM     25  O   UNL     1      32.528  14.620   2.893  0.00  0.00    -0.343 OA
ATOM     26  C   UNL     1      33.630  14.188   3.635  0.00  0.00    +0.220 C 
ATOM     27  C   UNL     1      34.903  14.112   2.775  0.00  0.00    +0.076 C 
ATOM     28  C   UNL     1      34.577  13.253   1.541  0.00  0.00    +0.177 C 
ATOM     29  O   UNL     1      35.734  13.117   0.729  0.00  0.00    -0.221 OA
ATOM     30  C   UNL     1      33.395  13.887   0.743  0.00  0.00    +0.155 C 
BRANCH  30  31
ATOM     31  N   UNL     1      33.087  13.078  -0.434  0.00  0.00    -0.202 NA
ATOM     32  C   UNL     1      33.052  13.430  -1.744  0.00  0.00    +0.242 C 
ATOM     33  C   UNL     1      32.995  12.336  -2.778  0.00  0.00    +0.096 C 
ATOM     34  O   UNL     1      33.070  14.620  -2.055  0.00  0.00    -0.273 OA
ENDBRANCH  30  31
BRANCH  26  35
ATOM     35  C   UNL     1      33.366  12.799   4.436  0.00  0.00    +0.391 C 
ATOM     36  O   UNL     1      34.577  12.429   4.897  0.00  0.00    -0.243 OA
ATOM     37  O   UNL     1      32.040  12.709   4.593  0.00  0.00    -0.243 OA
ENDBRANCH  26  35
ENDBRANCH  22  24
ENDBRANCH  20  22
ENDBRANCH   1  20
TORSDOF 14
