REMARK VINA RESULT:    -6.703      2.376      3.795
REMARK INTER + INTRA:         -13.146
REMARK INTER:                 -11.091
REMARK INTRA:                  -2.055
REMARK UNBOUND:                -2.133
REMARK  Name = lig_assembled_7.pdb
REMARK  14 active torsions:
REMARK  status: ('A' for Active; 'I' for Inactive)
REMARK    1  A    between atoms: _2  and  _8
REMARK    2  A    between atoms: _4  and  _15
REMARK    3  A    between atoms: _5  and  _6
REMARK    4  A    between atoms: _5  and  _16
REMARK    5  A    between atoms: _9  and  _10
REMARK    6  A    between atoms: _12  and  _13
REMARK    7  A    between atoms: _16  and  _18
REMARK    8  A    between atoms: _17  and  _22
REMARK    9  A    between atoms: _18  and  _21
REMARK   10  A    between atoms: _26  and  _36
REMARK   11  A    between atoms: _28  and  _29
REMARK   12  A    between atoms: _30  and  _32
REMARK   13  A    between atoms: _32  and  _34
REMARK   14  A    between atoms: _34  and  _36
REMARK                            x       y       z     vdW  Elec       q    Type
REMARK                         _______ _______ _______ _____ _____    ______ ____
ROOT
ATOM      1  C   UNL     1      27.292  13.489  -4.417  0.00  0.00    +0.400 C 
ATOM      2  N   UNL     1      27.384  13.807  -3.083  0.00  0.00    -0.278 N 
ATOM      3  H   UNL     1      27.458  12.854  -2.606  0.00  0.00    +0.152 HD
ATOM      4  O   UNL     1      27.488  12.323  -4.750  0.00  0.00    -0.226 OA
ENDROOT
BRANCH   1   5
ATOM      5  O   UNL     1      26.971  14.463  -5.204  0.00  0.00    -0.450 OA
BRANCH   5   6
ATOM      6  C   UNL     1      25.899  15.351  -5.422  0.00  0.00    +0.240 C 
BRANCH   6   7
ATOM      7  C   UNL     1      24.475  14.764  -5.410  0.00  0.00    +0.100 C 
BRANCH   7   9
ATOM      8  N   UNL     1      23.884  15.531  -3.144  0.00  0.00    -0.134 NA
ATOM      9  C   UNL     1      24.039  14.508  -4.025  0.00  0.00    +0.086 A 
ATOM     10  C   UNL     1      23.721  13.321  -3.391  0.00  0.00    +0.139 A 
ATOM     11  N   UNL     1      23.420  13.671  -2.092  0.00  0.00    -0.219 N 
ATOM     12  N   UNL     1      23.483  15.023  -1.990  0.00  0.00    -0.061 NA
BRANCH  11  13
ATOM     13  C   UNL     1      23.075  12.838  -0.978  0.00  0.00    +0.073 A 
ATOM     14  C   UNL     1      21.717  12.779  -0.543  0.00  0.00    -0.024 A 
ATOM     15  C   UNL     1      21.368  11.959   0.553  0.00  0.00    +0.008 A 
ATOM     16  C   UNL     1      22.319  11.193   1.221  0.00  0.00    -0.050 A 
ATOM     17  C   UNL     1      21.914  10.331   2.380  0.00  0.00    +0.044 C 
ATOM     18  C   UNL     1      23.642  11.252   0.790  0.00  0.00    +0.008 A 
ATOM     19  C   UNL     1      20.570  13.506  -1.209  0.00  0.00    +0.046 C 
ATOM     20  C   UNL     1      24.050  12.075  -0.284  0.00  0.00    -0.024 A 
ATOM     21  C   UNL     1      25.542  12.089  -0.505  0.00  0.00    +0.046 C 
ENDBRANCH  11  13
ENDBRANCH   7   9
ENDBRANCH   6   7
ENDBRANCH   5   6
ENDBRANCH   1   5
BRANCH   2  22
ATOM     22  C   UNL     1      27.440  14.839  -2.051  0.00  0.00    +0.152 C 
BRANCH  22  23
ATOM     23  C   UNL     1      28.624  14.753  -1.067  0.00  0.00    +0.193 C 
ATOM     24  O   UNL     1      28.279  15.573   0.072  0.00  0.00    -0.219 OA
BRANCH  23  25
ATOM     25  C   UNL     1      28.952  13.371  -0.461  0.00  0.00    +0.212 C 
ATOM     26  O   UNL     1      29.631  12.549  -1.425  0.00  0.00    -0.218 OA
BRANCH  25  27
ATOM     27  C   UNL     1      29.835  13.453   0.842  0.00  0.00    +0.171 C 
ATOM     28  O   UNL     1      31.183  13.821   0.568  0.00  0.00    -0.343 OA
ATOM     29  C   UNL     1      32.227  13.734   1.492  0.00  0.00    +0.220 C 
ATOM     30  C   UNL     1      32.288  12.346   2.154  0.00  0.00    +0.076 C 
ATOM     31  C   UNL     1      30.892  12.045   2.725  0.00  0.00    +0.177 C 
ATOM     32  O   UNL     1      30.903  10.787   3.385  0.00  0.00    -0.221 OA
ATOM     33  C   UNL     1      29.827  12.077   1.585  0.00  0.00    +0.155 C 
BRANCH  33  34
ATOM     34  N   UNL     1      28.500  11.784   2.121  0.00  0.00    -0.202 NA
ATOM     35  C   UNL     1      27.630  12.595   2.775  0.00  0.00    +0.242 C 
ATOM     36  C   UNL     1      26.212  12.122   2.959  0.00  0.00    +0.096 C 
ATOM     37  O   UNL     1      28.014  13.685   3.196  0.00  0.00    -0.273 OA
ENDBRANCH  33  34
BRANCH  29  38
ATOM     38  C   UNL     1      32.214  14.923   2.598  0.00  0.00    +0.391 C 
ATOM     39  O   UNL     1      33.241  14.641   3.424  0.00  0.00    -0.243 OA
ATOM     40  O   UNL     1      31.406  15.873   2.111  0.00  0.00    -0.243 OA
ENDBRANCH  29  38
ENDBRANCH  25  27
ENDBRANCH  23  25
ENDBRANCH  22  23
ENDBRANCH   2  22
TORSDOF 11
