REMARK VINA RESULT:    -6.756      2.326      3.176
REMARK INTER + INTRA:         -15.164
REMARK INTER:                 -13.334
REMARK INTRA:                  -1.831
REMARK UNBOUND:                -2.880
REMARK  Name = lig_assembled_21.pdb
REMARK  15 active torsions:
REMARK  status: ('A' for Active; 'I' for Inactive)
REMARK    1  A    between atoms: _2  and  _8
REMARK    2  A    between atoms: _5  and  _6
REMARK    3  A    between atoms: _5  and  _18
REMARK    4  A    between atoms: _8  and  _9
REMARK    5  A    between atoms: _10  and  _17
REMARK    6  A    between atoms: _11  and  _12
REMARK    7  A    between atoms: _11  and  _17
REMARK    8  A    between atoms: _18  and  _20
REMARK    9  A    between atoms: _19  and  _24
REMARK   10  A    between atoms: _20  and  _23
REMARK   11  A    between atoms: _28  and  _38
REMARK   12  A    between atoms: _30  and  _31
REMARK   13  A    between atoms: _32  and  _34
REMARK   14  A    between atoms: _34  and  _36
REMARK   15  A    between atoms: _36  and  _38
REMARK                            x       y       z     vdW  Elec       q    Type
REMARK                         _______ _______ _______ _____ _____    ______ ____
ROOT
ATOM      1  C   UNL     1      28.288  16.952  -0.523  0.00  0.00    +0.400 C 
ATOM      2  N   UNL     1      28.737  16.005   0.367  0.00  0.00    -0.278 N 
ATOM      3  H   UNL     1      29.069  16.586   1.200  0.00  0.00    +0.152 HD
ATOM      4  O   UNL     1      28.195  18.114  -0.135  0.00  0.00    -0.226 OA
ENDROOT
BRANCH   2   5
ATOM      5  C   UNL     1      28.945  14.594   0.683  0.00  0.00    +0.152 C 
BRANCH   5   6
ATOM      6  C   UNL     1      30.340  14.023   0.355  0.00  0.00    +0.193 C 
ATOM      7  O   UNL     1      30.474  14.053  -1.083  0.00  0.00    -0.219 OA
BRANCH   6   8
ATOM      8  C   UNL     1      31.571  14.800   0.873  0.00  0.00    +0.212 C 
ATOM      9  O   UNL     1      31.157  15.919   1.673  0.00  0.00    -0.218 OA
BRANCH   8  10
ATOM     10  C   UNL     1      32.559  13.912   1.720  0.00  0.00    +0.171 C 
ATOM     11  O   UNL     1      32.874  14.493   2.981  0.00  0.00    -0.343 OA
ATOM     12  C   UNL     1      33.899  14.049   3.820  0.00  0.00    +0.220 C 
ATOM     13  C   UNL     1      35.233  13.912   3.067  0.00  0.00    +0.076 C 
ATOM     14  C   UNL     1      34.979  13.030   1.833  0.00  0.00    +0.177 C 
ATOM     15  O   UNL     1      36.193  12.837   1.120  0.00  0.00    -0.221 OA
ATOM     16  C   UNL     1      33.886  13.676   0.926  0.00  0.00    +0.155 C 
BRANCH  16  17
ATOM     17  N   UNL     1      33.646  12.845  -0.251  0.00  0.00    -0.202 NA
ATOM     18  C   UNL     1      33.702  13.169  -1.568  0.00  0.00    +0.242 C 
ATOM     19  C   UNL     1      33.701  12.053  -2.579  0.00  0.00    +0.096 C 
ATOM     20  O   UNL     1      33.754  14.351  -1.901  0.00  0.00    -0.273 OA
ENDBRANCH  16  17
BRANCH  12  21
ATOM     21  C   UNL     1      33.529  12.691   4.632  0.00  0.00    +0.391 C 
ATOM     22  O   UNL     1      34.703  12.246   5.118  0.00  0.00    -0.243 OA
ATOM     23  O   UNL     1      32.197  12.692   4.766  0.00  0.00    -0.243 OA
ENDBRANCH  12  21
ENDBRANCH   8  10
ENDBRANCH   6   8
ENDBRANCH   5   6
ENDBRANCH   2   5
BRANCH   1  24
ATOM     24  O   UNL     1      28.031  16.523  -1.715  0.00  0.00    -0.450 OA
BRANCH  24  25
ATOM     25  C   UNL     1      27.016  15.832  -2.406  0.00  0.00    +0.240 C 
BRANCH  25  26
ATOM     26  C   UNL     1      26.109  16.653  -3.343  0.00  0.00    +0.100 C 
BRANCH  26  28
ATOM     27  N   UNL     1      25.244  15.134  -5.091  0.00  0.00    -0.134 NA
ATOM     28  C   UNL     1      25.051  15.794  -3.909  0.00  0.00    +0.086 A 
ATOM     29  C   UNL     1      23.806  15.478  -3.415  0.00  0.00    +0.134 A 
ATOM     30  N   UNL     1      23.325  14.548  -4.298  0.00  0.00    -0.247 N 
ATOM     31  N   UNL     1      24.182  14.378  -5.320  0.00  0.00    -0.065 NA
BRANCH  30  32
ATOM     32  C   UNL     1      22.105  13.764  -4.137  0.00  0.00    +0.184 C 
BRANCH  32  33
ATOM     33  C   UNL     1      21.758  13.375  -2.720  0.00  0.00    +0.016 A 
ATOM     34  C   UNL     1      20.713  13.996  -2.013  0.00  0.00    +0.137 A 
ATOM     35  C   UNL     1      20.405  13.619  -0.706  0.00  0.00    +0.047 A 
ATOM     36  C   UNL     1      21.132  12.599  -0.092  0.00  0.00    +0.004 A 
ATOM     37  C   UNL     1      22.180  11.980  -0.770  0.00  0.00    +0.001 A 
ATOM     38  C   UNL     1      22.489  12.363  -2.076  0.00  0.00    +0.009 A 
BRANCH  34  39
ATOM     39  O   UNL     1      20.055  15.070  -2.659  0.00  0.00    -0.426 OA
BRANCH  39  40
ATOM     40  C   UNL     1      18.806  14.930  -3.267  0.00  0.00    +0.309 C 
ATOM     41  O   UNL     1      18.036  13.984  -3.166  0.00  0.00    -0.251 OA
ATOM     42  C   UNL     1      18.493  16.182  -4.032  0.00  0.00    +0.136 C 
ENDBRANCH  39  40
ENDBRANCH  34  39
ENDBRANCH  32  33
ENDBRANCH  30  32
ENDBRANCH  26  28
ENDBRANCH  25  26
ENDBRANCH  24  25
ENDBRANCH   1  24
TORSDOF 14
