REMARK VINA RESULT:    -6.338      1.601      3.296
REMARK INTER + INTRA:         -12.735
REMARK INTER:                 -11.522
REMARK INTRA:                  -1.213
REMARK UNBOUND:                -1.952
REMARK  Name = lig_assembled_44.pdb
REMARK  12 active torsions:
REMARK  status: ('A' for Active; 'I' for Inactive)
REMARK    1  A    between atoms: _2  and  _8
REMARK    2  A    between atoms: _5  and  _6
REMARK    3  A    between atoms: _5  and  _14
REMARK    4  A    between atoms: _8  and  _9
REMARK    5  A    between atoms: _14  and  _16
REMARK    6  A    between atoms: _15  and  _20
REMARK    7  A    between atoms: _16  and  _19
REMARK    8  A    between atoms: _24  and  _34
REMARK    9  A    between atoms: _26  and  _27
REMARK   10  A    between atoms: _28  and  _30
REMARK   11  A    between atoms: _30  and  _32
REMARK   12  A    between atoms: _32  and  _34
REMARK                            x       y       z     vdW  Elec       q    Type
REMARK                         _______ _______ _______ _____ _____    ______ ____
ROOT
ATOM      1  C   UNL     1      27.897  17.408  -0.871  0.00  0.00    +0.400 C 
ATOM      2  N   UNL     1      28.846  16.672  -0.201  0.00  0.00    -0.278 N 
ATOM      3  H   UNL     1      29.117  17.305   0.617  0.00  0.00    +0.152 HD
ATOM      4  O   UNL     1      27.474  18.430  -0.338  0.00  0.00    -0.226 OA
ENDROOT
BRANCH   2   5
ATOM      5  C   UNL     1      29.621  15.438  -0.099  0.00  0.00    +0.152 C 
BRANCH   5   6
ATOM      6  C   UNL     1      28.830  14.124  -0.265  0.00  0.00    +0.193 C 
ATOM      7  O   UNL     1      28.429  14.053  -1.651  0.00  0.00    -0.219 OA
BRANCH   6   8
ATOM      8  C   UNL     1      29.584  12.800  -0.013  0.00  0.00    +0.212 C 
ATOM      9  O   UNL     1      29.280  11.846  -1.043  0.00  0.00    -0.218 OA
BRANCH   8  10
ATOM     10  C   UNL     1      31.149  12.977   0.063  0.00  0.00    +0.171 C 
ATOM     11  O   UNL     1      31.749  13.103  -1.222  0.00  0.00    -0.343 OA
ATOM     12  C   UNL     1      33.123  13.027  -1.461  0.00  0.00    +0.220 C 
ATOM     13  C   UNL     1      33.746  11.776  -0.817  0.00  0.00    +0.076 C 
ATOM     14  C   UNL     1      33.346  11.771   0.667  0.00  0.00    +0.177 C 
ATOM     15  O   UNL     1      33.930  10.653   1.320  0.00  0.00    -0.221 OA
ATOM     16  C   UNL     1      31.792  11.759   0.805  0.00  0.00    +0.155 C 
BRANCH  16  17
ATOM     17  N   UNL     1      31.407  11.747   2.214  0.00  0.00    -0.202 NA
ATOM     18  C   UNL     1      31.464  12.740   3.137  0.00  0.00    +0.242 C 
ATOM     19  C   UNL     1      30.731  12.550   4.439  0.00  0.00    +0.096 C 
ATOM     20  O   UNL     1      32.104  13.761   2.893  0.00  0.00    -0.273 OA
ENDBRANCH  16  17
BRANCH  12  21
ATOM     21  C   UNL     1      33.928  14.376  -1.044  0.00  0.00    +0.391 C 
ATOM     22  O   UNL     1      35.203  13.980  -0.869  0.00  0.00    -0.243 OA
ATOM     23  O   UNL     1      33.107  15.396  -1.321  0.00  0.00    -0.243 OA
ENDBRANCH  12  21
ENDBRANCH   8  10
ENDBRANCH   6   8
ENDBRANCH   5   6
ENDBRANCH   2   5
BRANCH   1  24
ATOM     24  O   UNL     1      27.559  16.958  -2.035  0.00  0.00    -0.450 OA
BRANCH  24  25
ATOM     25  C   UNL     1      26.872  17.386  -3.187  0.00  0.00    +0.240 C 
BRANCH  25  26
ATOM     26  C   UNL     1      26.464  16.310  -4.212  0.00  0.00    +0.100 C 
BRANCH  26  28
ATOM     27  N   UNL     1      24.276  16.236  -3.051  0.00  0.00    -0.134 NA
ATOM     28  C   UNL     1      25.260  15.592  -3.754  0.00  0.00    +0.086 A 
ATOM     29  C   UNL     1      24.900  14.277  -3.931  0.00  0.00    +0.134 A 
ATOM     30  N   UNL     1      23.653  14.202  -3.383  0.00  0.00    -0.247 N 
ATOM     31  N   UNL     1      23.298  15.370  -2.819  0.00  0.00    -0.065 NA
BRANCH  30  32
ATOM     32  C   UNL     1      22.750  13.067  -3.358  0.00  0.00    +0.180 C 
BRANCH  32  33
ATOM     33  C   UNL     1      22.585  12.524  -1.957  0.00  0.00    -0.026 A 
ATOM     34  C   UNL     1      21.358  12.638  -1.286  0.00  0.00    +0.006 A 
ATOM     35  C   UNL     1      21.213  12.149   0.014  0.00  0.00    +0.015 A 
ATOM     36  C   UNL     1      22.295  11.543   0.650  0.00  0.00    +0.018 A 
ATOM     37 BR   UNL     1      22.092  10.865   2.403  0.00  0.00    -0.050 Br
ATOM     38  C   UNL     1      23.523  11.433   0.003  0.00  0.00    +0.015 A 
ATOM     39  C   UNL     1      23.669  11.927  -1.296  0.00  0.00    +0.006 A 
ENDBRANCH  32  33
ENDBRANCH  30  32
ENDBRANCH  26  28
ENDBRANCH  25  26
ENDBRANCH  24  25
ENDBRANCH   1  24
TORSDOF 12
