REMARK VINA RESULT:    -7.928      2.838      5.049
REMARK INTER + INTRA:         -15.993
REMARK INTER:                 -13.462
REMARK INTRA:                  -2.531
REMARK UNBOUND:                -1.807
REMARK  Name = lig_assembled_75.pdb
REMARK  14 active torsions:
REMARK  status: ('A' for Active; 'I' for Inactive)
REMARK    1  A    between atoms: _2  and  _8
REMARK    2  A    between atoms: _5  and  _6
REMARK    3  A    between atoms: _5  and  _18
REMARK    4  A    between atoms: _10  and  _11
REMARK    5  A    between atoms: _12  and  _13
REMARK    6  A    between atoms: _13  and  _16
REMARK    7  A    between atoms: _18  and  _20
REMARK    8  A    between atoms: _19  and  _24
REMARK    9  A    between atoms: _20  and  _23
REMARK   10  A    between atoms: _28  and  _38
REMARK   11  A    between atoms: _30  and  _31
REMARK   12  A    between atoms: _32  and  _34
REMARK   13  A    between atoms: _34  and  _36
REMARK   14  A    between atoms: _36  and  _38
REMARK                            x       y       z     vdW  Elec       q    Type
REMARK                         _______ _______ _______ _____ _____    ______ ____
ROOT
ATOM      1  C   UNL     1      28.203  17.592  -0.507  0.00  0.00    +0.400 C 
ATOM      2  N   UNL     1      29.408  17.171   0.003  0.00  0.00    -0.278 N 
ATOM      3  H   UNL     1      29.494  17.717   0.918  0.00  0.00    +0.152 HD
ATOM      4  O   UNL     1      27.478  18.278   0.209  0.00  0.00    -0.226 OA
ENDROOT
BRANCH   2   5
ATOM      5  C   UNL     1      30.588  16.321  -0.132  0.00  0.00    +0.152 C 
BRANCH   5   6
ATOM      6  C   UNL     1      30.324  14.842  -0.485  0.00  0.00    +0.193 C 
ATOM      7  O   UNL     1      31.617  14.212  -0.626  0.00  0.00    -0.219 OA
BRANCH   6   8
ATOM      8  C   UNL     1      29.586  13.979   0.561  0.00  0.00    +0.212 C 
ATOM      9  O   UNL     1      28.934  14.814   1.532  0.00  0.00    -0.218 OA
BRANCH   8  10
ATOM     10  C   UNL     1      28.516  13.010  -0.071  0.00  0.00    +0.171 C 
ATOM     11  O   UNL     1      27.951  13.527  -1.272  0.00  0.00    -0.343 OA
ATOM     12  C   UNL     1      26.821  13.001  -1.902  0.00  0.00    +0.220 C 
ATOM     13  C   UNL     1      25.650  12.825  -0.919  0.00  0.00    +0.076 C 
ATOM     14  C   UNL     1      26.168  12.004   0.274  0.00  0.00    +0.177 C 
ATOM     15  O   UNL     1      25.111  11.777   1.197  0.00  0.00    -0.221 OA
ATOM     16  C   UNL     1      27.365  12.738   0.953  0.00  0.00    +0.155 C 
BRANCH  16  17
ATOM     17  N   UNL     1      27.855  11.965   2.091  0.00  0.00    -0.202 NA
ATOM     18  C   UNL     1      27.690  12.180   3.421  0.00  0.00    +0.242 C 
ATOM     19  C   UNL     1      28.048  11.069   4.375  0.00  0.00    +0.096 C 
ATOM     20  O   UNL     1      27.256  13.261   3.813  0.00  0.00    -0.273 OA
ENDBRANCH  16  17
BRANCH  12  21
ATOM     21  C   UNL     1      27.118  11.634  -2.728  0.00  0.00    +0.391 C 
ATOM     22  O   UNL     1      28.448  11.448  -2.625  0.00  0.00    -0.243 OA
ATOM     23  O   UNL     1      25.926  11.060  -2.934  0.00  0.00    -0.243 OA
ENDBRANCH  12  21
ENDBRANCH   8  10
ENDBRANCH   6   8
ENDBRANCH   5   6
ENDBRANCH   2   5
BRANCH   1  24
ATOM     24  O   UNL     1      27.959  17.242  -1.728  0.00  0.00    -0.450 OA
BRANCH  24  25
ATOM     25  C   UNL     1      27.028  17.510  -2.750  0.00  0.00    +0.240 C 
BRANCH  25  26
ATOM     26  C   UNL     1      26.945  16.507  -3.917  0.00  0.00    +0.100 C 
BRANCH  26  28
ATOM     27  N   UNL     1      25.223  15.097  -4.997  0.00  0.00    -0.134 NA
ATOM     28  C   UNL     1      25.629  15.841  -3.927  0.00  0.00    +0.086 A 
ATOM     29  C   UNL     1      24.640  15.832  -2.971  0.00  0.00    +0.139 A 
ATOM     30  N   UNL     1      23.634  15.060  -3.506  0.00  0.00    -0.220 N 
ATOM     31  N   UNL     1      24.011  14.627  -4.735  0.00  0.00    -0.061 NA
BRANCH  30  32
ATOM     32  C   UNL     1      22.367  14.741  -2.955  0.00  0.00    +0.068 A 
ATOM     33  C   UNL     1      22.302  14.025  -1.746  0.00  0.00    +0.035 A 
ATOM     34  C   UNL     1      21.068  13.636  -1.208  0.00  0.00    -0.023 A 
ATOM     35  C   UNL     1      19.894  14.029  -1.862  0.00  0.00    +0.008 A 
ATOM     36  C   UNL     1      19.952  14.759  -3.052  0.00  0.00    +0.003 A 
ATOM     37  C   UNL     1      21.183  15.109  -3.604  0.00  0.00    +0.028 A 
BRANCH  34  38
ATOM     38  C   UNL     1      20.958  12.847   0.029  0.00  0.00    +0.015 C 
ATOM     39  C   UNL     1      21.898  11.984   0.448  0.00  0.00    +0.092 C 
BRANCH  39  40
ATOM     40  C   UNL     1      21.672  11.198   1.677  0.00  0.00    +0.330 C 
ATOM     41  O   UNL     1      21.716   9.983   1.741  0.00  0.00    -0.246 OA
BRANCH  40  42
ATOM     42  O   UNL     1      21.423  11.988   2.741  0.00  0.00    -0.478 OA
ATOM     43  H   UNL     1      21.666  12.926   2.638  0.00  0.00    +0.295 HD
ENDBRANCH  40  42
ENDBRANCH  39  40
ENDBRANCH  34  38
ENDBRANCH  30  32
ENDBRANCH  26  28
ENDBRANCH  25  26
ENDBRANCH  24  25
ENDBRANCH   1  24
TORSDOF 14
