REMARK VINA RESULT:    -6.581      2.493      3.718
REMARK INTER + INTRA:         -12.197
REMARK INTER:                 -10.217
REMARK INTRA:                  -1.981
REMARK UNBOUND:                -1.385
REMARK  Name = lig_assembled_56.pdb
REMARK  11 active torsions:
REMARK  status: ('A' for Active; 'I' for Inactive)
REMARK    1  A    between atoms: _2  and  _9
REMARK    2  A    between atoms: _6  and  _7
REMARK    3  A    between atoms: _6  and  _13
REMARK    4  A    between atoms: _13  and  _15
REMARK    5  A    between atoms: _14  and  _19
REMARK    6  A    between atoms: _15  and  _18
REMARK    7  A    between atoms: _23  and  _33
REMARK    8  A    between atoms: _25  and  _26
REMARK    9  A    between atoms: _27  and  _29
REMARK   10  A    between atoms: _29  and  _31
REMARK   11  A    between atoms: _31  and  _33
REMARK                            x       y       z     vdW  Elec       q    Type
REMARK                         _______ _______ _______ _____ _____    ______ ____
ROOT
ATOM      1  C   UNL     1      28.420  16.412  -0.741  0.00  0.00    +0.152 C 
ENDROOT
BRANCH   1   3
ATOM      2  C   UNL     1      26.880  16.797  -2.960  0.00  0.00    +0.400 C 
ATOM      3  N   UNL     1      27.676  16.992  -1.856  0.00  0.00    -0.278 N 
ATOM      4  H   UNL     1      27.770  18.055  -1.804  0.00  0.00    +0.152 HD
ATOM      5  O   UNL     1      26.351  17.780  -3.473  0.00  0.00    -0.226 OA
BRANCH   2   6
ATOM      6  O   UNL     1      26.790  15.577  -3.377  0.00  0.00    -0.450 OA
BRANCH   6   7
ATOM      7  C   UNL     1      25.803  14.653  -3.771  0.00  0.00    +0.240 C 
BRANCH   7   8
ATOM      8  C   UNL     1      24.509  14.596  -2.937  0.00  0.00    +0.100 C 
BRANCH   8  10
ATOM      9  N   UNL     1      25.602  12.596  -1.976  0.00  0.00    -0.134 NA
ATOM     10  C   UNL     1      24.580  13.499  -1.953  0.00  0.00    +0.086 A 
ATOM     11  C   UNL     1      23.730  13.191  -0.915  0.00  0.00    +0.139 A 
ATOM     12  N   UNL     1      24.289  12.087  -0.315  0.00  0.00    -0.220 N 
ATOM     13  N   UNL     1      25.417  11.739  -0.981  0.00  0.00    -0.061 NA
BRANCH  12  14
ATOM     14  C   UNL     1      23.841  11.372   0.823  0.00  0.00    +0.070 A 
ATOM     15  C   UNL     1      24.723  11.026   1.850  0.00  0.00    +0.047 A 
ATOM     16  C   UNL     1      24.219  10.312   2.926  0.00  0.00    +0.113 A 
ATOM     17  N   UNL     1      22.930   9.934   3.041  0.00  0.00    -0.263 NA
ATOM     18  C   UNL     1      22.098  10.283   2.037  0.00  0.00    +0.113 A 
ATOM     19  C   UNL     1      22.498  10.994   0.918  0.00  0.00    +0.047 A 
ENDBRANCH  12  14
ENDBRANCH   8  10
ENDBRANCH   7   8
ENDBRANCH   6   7
ENDBRANCH   2   6
ENDBRANCH   1   3
BRANCH   1  20
ATOM     20  C   UNL     1      29.827  16.993  -0.487  0.00  0.00    +0.193 C 
ATOM     21  O   UNL     1      29.660  18.102   0.423  0.00  0.00    -0.219 OA
BRANCH  20  22
ATOM     22  C   UNL     1      30.863  16.080   0.203  0.00  0.00    +0.212 C 
ATOM     23  O   UNL     1      31.128  16.541   1.538  0.00  0.00    -0.218 OA
BRANCH  22  24
ATOM     24  C   UNL     1      30.418  14.569   0.272  0.00  0.00    +0.171 C 
ATOM     25  O   UNL     1      29.888  14.211   1.544  0.00  0.00    -0.343 OA
ATOM     26  C   UNL     1      29.647  12.898   1.956  0.00  0.00    +0.220 C 
ATOM     27  C   UNL     1      30.872  11.996   1.733  0.00  0.00    +0.076 C 
ATOM     28  C   UNL     1      31.295  12.145   0.262  0.00  0.00    +0.177 C 
ATOM     29  O   UNL     1      32.403  11.298  -0.009  0.00  0.00    -0.221 OA
ATOM     30  C   UNL     1      31.630  13.636  -0.053  0.00  0.00    +0.155 C 
BRANCH  30  31
ATOM     31  N   UNL     1      32.039  13.781  -1.447  0.00  0.00    -0.202 NA
ATOM     32  C   UNL     1      33.230  14.173  -1.966  0.00  0.00    +0.242 C 
ATOM     33  C   UNL     1      33.478  13.952  -3.436  0.00  0.00    +0.096 C 
ATOM     34  O   UNL     1      34.071  14.691  -1.234  0.00  0.00    -0.273 OA
ENDBRANCH  30  31
BRANCH  26  35
ATOM     35  C   UNL     1      28.304  12.253   1.308  0.00  0.00    +0.391 C 
ATOM     36  O   UNL     1      28.434  10.925   1.491  0.00  0.00    -0.243 OA
ATOM     37  O   UNL     1      27.459  13.274   1.116  0.00  0.00    -0.243 OA
ENDBRANCH  26  35
ENDBRANCH  22  24
ENDBRANCH  20  22
ENDBRANCH   1  20
TORSDOF 11
