REMARK VINA RESULT:    -5.919      4.189      7.450
REMARK INTER + INTRA:         -14.549
REMARK INTER:                 -12.390
REMARK INTRA:                  -2.158
REMARK UNBOUND:                -3.439
REMARK  Name = lig_assembled_84.pdb
REMARK  16 active torsions:
REMARK  status: ('A' for Active; 'I' for Inactive)
REMARK    1  A    between atoms: _2  and  _10
REMARK    2  A    between atoms: _3  and  _13
REMARK    3  A    between atoms: _4  and  _16
REMARK    4  A    between atoms: _7  and  _8
REMARK    5  A    between atoms: _7  and  _23
REMARK    6  A    between atoms: _10  and  _11
REMARK    7  A    between atoms: _11  and  _12
REMARK    8  A    between atoms: _11  and  _13
REMARK    9  A    between atoms: _23  and  _25
REMARK   10  A    between atoms: _24  and  _29
REMARK   11  A    between atoms: _25  and  _28
REMARK   12  A    between atoms: _33  and  _43
REMARK   13  A    between atoms: _35  and  _36
REMARK   14  A    between atoms: _37  and  _39
REMARK   15  A    between atoms: _39  and  _41
REMARK   16  A    between atoms: _41  and  _43
REMARK                            x       y       z     vdW  Elec       q    Type
REMARK                         _______ _______ _______ _____ _____    ______ ____
ROOT
ATOM      1  C   UNL     1      30.042  14.128   0.110  0.00  0.00    +0.240 C 
ENDROOT
BRANCH   1   2
ATOM      2  C   UNL     1      28.619  14.526   0.545  0.00  0.00    +0.100 C 
BRANCH   2   4
ATOM      3  N   UNL     1      28.091  13.982   2.905  0.00  0.00    -0.134 NA
ATOM      4  C   UNL     1      28.115  13.611   1.586  0.00  0.00    +0.086 A 
ATOM      5  C   UNL     1      27.651  12.319   1.475  0.00  0.00    +0.133 A 
ATOM      6  N   UNL     1      27.425  11.939   2.764  0.00  0.00    -0.251 N 
ATOM      7  N   UNL     1      27.668  12.947   3.619  0.00  0.00    -0.065 NA
BRANCH   6   8
ATOM      8  C   UNL     1      27.115  10.610   3.254  0.00  0.00    +0.149 C 
BRANCH   8   9
ATOM      9  C   UNL     1      25.996   9.893   2.480  0.00  0.00    +0.021 C 
ATOM     10  C   UNL     1      26.056   8.374   2.695  0.00  0.00    +0.010 C 
BRANCH   9  11
ATOM     11  C   UNL     1      24.600  10.403   2.911  0.00  0.00    +0.089 C 
BRANCH  11  12
ATOM     12  N   UNL     1      23.611  10.536   1.833  0.00  0.00    -0.299 NA
ATOM     13  C   UNL     1      24.282  10.958   0.574  0.00  0.00    +0.103 C 
ATOM     14  C   UNL     1      23.293  11.028  -0.606  0.00  0.00    +0.120 C 
ATOM     15  N   UNL     1      22.208  11.964  -0.286  0.00  0.00    -0.327 N 
ATOM     16  C   UNL     1      21.509  11.673   0.974  0.00  0.00    +0.120 C 
ATOM     17  C   UNL     1      22.537  11.518   2.133  0.00  0.00    +0.103 C 
BRANCH  15  18
ATOM     18  C   UNL     1      21.843  12.992  -1.124  0.00  0.00    +0.030 A 
ATOM     19  C   UNL     1      22.801  13.871  -1.664  0.00  0.00    +0.024 A 
ATOM     20  C   UNL     1      22.447  14.938  -2.497  0.00  0.00    +0.022 A 
ATOM     21  C   UNL     1      21.116  15.143  -2.817  0.00  0.00    +0.041 A 
ATOM     22 CL   UNL     1      20.671  16.456  -3.837  0.00  0.00    -0.084 Cl
ATOM     23  C   UNL     1      20.138  14.297  -2.307  0.00  0.00    +0.022 A 
ATOM     24  C   UNL     1      20.505  13.235  -1.467  0.00  0.00    +0.024 A 
ENDBRANCH  15  18
ENDBRANCH  11  12
ENDBRANCH   9  11
ENDBRANCH   8   9
ENDBRANCH   6   8
ENDBRANCH   2   4
ENDBRANCH   1   2
BRANCH   1  25
ATOM     25  O   UNL     1      30.958  13.782   1.122  0.00  0.00    -0.450 OA
BRANCH  25  26
ATOM     26  C   UNL     1      31.366  14.221   2.268  0.00  0.00    +0.400 C 
ATOM     27  N   UNL     1      31.440  13.285   3.272  0.00  0.00    -0.278 N 
ATOM     28  H   UNL     1      31.971  13.796   4.047  0.00  0.00    +0.152 HD
ATOM     29  O   UNL     1      31.713  15.372   2.521  0.00  0.00    -0.226 OA
BRANCH  27  30
ATOM     30  C   UNL     1      31.115  11.944   3.750  0.00  0.00    +0.152 C 
BRANCH  30  31
ATOM     31  C   UNL     1      30.773  11.821   5.249  0.00  0.00    +0.193 C 
ATOM     32  O   UNL     1      30.022  10.596   5.404  0.00  0.00    -0.219 OA
BRANCH  31  33
ATOM     33  C   UNL     1      31.948  11.680   6.241  0.00  0.00    +0.212 C 
ATOM     34  O   UNL     1      32.811  12.827   6.164  0.00  0.00    -0.218 OA
BRANCH  33  35
ATOM     35  C   UNL     1      31.485  11.498   7.737  0.00  0.00    +0.171 C 
ATOM     36  O   UNL     1      30.539  12.483   8.140  0.00  0.00    -0.343 OA
ATOM     37  C   UNL     1      30.149  12.706   9.463  0.00  0.00    +0.220 C 
ATOM     38  C   UNL     1      31.362  12.869  10.395  0.00  0.00    +0.076 C 
ATOM     39  C   UNL     1      32.274  11.649  10.186  0.00  0.00    +0.177 C 
ATOM     40  O   UNL     1      33.394  11.730  11.056  0.00  0.00    -0.221 OA
ATOM     41  C   UNL     1      32.720  11.561   8.693  0.00  0.00    +0.155 C 
BRANCH  41  42
ATOM     42  N   UNL     1      33.592  10.407   8.492  0.00  0.00    -0.202 NA
ATOM     43  C   UNL     1      33.343   9.086   8.686  0.00  0.00    +0.242 C 
ATOM     44  C   UNL     1      34.316   8.084   8.121  0.00  0.00    +0.096 C 
ATOM     45  O   UNL     1      32.341   8.742   9.308  0.00  0.00    -0.273 OA
ENDBRANCH  41  42
BRANCH  37  46
ATOM     46  C   UNL     1      29.108  11.594  10.027  0.00  0.00    +0.391 C 
ATOM     47  O   UNL     1      28.856  11.966  11.297  0.00  0.00    -0.243 OA
ATOM     48  O   UNL     1      28.669  10.921   8.956  0.00  0.00    -0.243 OA
ENDBRANCH  37  46
ENDBRANCH  33  35
ENDBRANCH  31  33
ENDBRANCH  30  31
ENDBRANCH  27  30
ENDBRANCH  25  26
ENDBRANCH   1  25
TORSDOF 15
