REMARK VINA RESULT:    -7.106      2.383      3.249
REMARK INTER + INTRA:         -13.293
REMARK INTER:                 -11.863
REMARK INTRA:                  -1.430
REMARK UNBOUND:                -1.202
REMARK  Name = lig_assembled_38.pdb
REMARK  12 active torsions:
REMARK  status: ('A' for Active; 'I' for Inactive)
REMARK    1  A    between atoms: _2  and  _8
REMARK    2  A    between atoms: _5  and  _6
REMARK    3  A    between atoms: _5  and  _14
REMARK    4  A    between atoms: _8  and  _9
REMARK    5  A    between atoms: _14  and  _16
REMARK    6  A    between atoms: _15  and  _20
REMARK    7  A    between atoms: _16  and  _19
REMARK    8  A    between atoms: _24  and  _34
REMARK    9  A    between atoms: _26  and  _27
REMARK   10  A    between atoms: _28  and  _30
REMARK   11  A    between atoms: _30  and  _32
REMARK   12  A    between atoms: _32  and  _34
REMARK                            x       y       z     vdW  Elec       q    Type
REMARK                         _______ _______ _______ _____ _____    ______ ____
ROOT
ATOM      1  C   UNL     1      27.390  16.612  -1.982  0.00  0.00    +0.400 C 
ATOM      2  N   UNL     1      28.230  16.390  -0.916  0.00  0.00    -0.278 N 
ATOM      3  H   UNL     1      28.583  17.368  -0.671  0.00  0.00    +0.152 HD
ATOM      4  O   UNL     1      27.108  17.774  -2.265  0.00  0.00    -0.226 OA
ENDROOT
BRANCH   2   5
ATOM      5  C   UNL     1      28.830  15.441   0.018  0.00  0.00    +0.152 C 
BRANCH   5   6
ATOM      6  C   UNL     1      30.355  15.243  -0.101  0.00  0.00    +0.193 C 
ATOM      7  O   UNL     1      30.942  16.562  -0.156  0.00  0.00    -0.219 OA
BRANCH   6   8
ATOM      8  C   UNL     1      31.080  14.547   1.072  0.00  0.00    +0.212 C 
ATOM      9  O   UNL     1      31.381  15.495   2.109  0.00  0.00    -0.218 OA
BRANCH   8  10
ATOM     10  C   UNL     1      30.254  13.359   1.699  0.00  0.00    +0.171 C 
ATOM     11  O   UNL     1      30.086  13.492   3.107  0.00  0.00    -0.343 OA
ATOM     12  C   UNL     1      29.614  12.478   3.943  0.00  0.00    +0.220 C 
ATOM     13  C   UNL     1      30.375  11.159   3.725  0.00  0.00    +0.076 C 
ATOM     14  C   UNL     1      30.321  10.836   2.223  0.00  0.00    +0.177 C 
ATOM     15  O   UNL     1      30.977   9.602   1.971  0.00  0.00    -0.221 OA
ATOM     16  C   UNL     1      30.962  11.997   1.400  0.00  0.00    +0.155 C 
BRANCH  16  17
ATOM     17  N   UNL     1      30.918  11.691  -0.027  0.00  0.00    -0.202 NA
ATOM     18  C   UNL     1      31.935  11.490  -0.903  0.00  0.00    +0.242 C 
ATOM     19  C   UNL     1      31.613  10.899  -2.251  0.00  0.00    +0.096 C 
ATOM     20  O   UNL     1      33.083  11.788  -0.580  0.00  0.00    -0.273 OA
ENDBRANCH  16  17
BRANCH  12  21
ATOM     21  C   UNL     1      28.007  12.262   3.855  0.00  0.00    +0.391 C 
ATOM     22  O   UNL     1      27.796  11.021   4.337  0.00  0.00    -0.243 OA
ATOM     23  O   UNL     1      27.482  13.473   3.630  0.00  0.00    -0.243 OA
ENDBRANCH  12  21
ENDBRANCH   8  10
ENDBRANCH   6   8
ENDBRANCH   5   6
ENDBRANCH   2   5
BRANCH   1  24
ATOM     24  O   UNL     1      26.995  15.556  -2.614  0.00  0.00    -0.450 OA
BRANCH  24  25
ATOM     25  C   UNL     1      25.827  14.787  -2.785  0.00  0.00    +0.240 C 
BRANCH  25  26
ATOM     26  C   UNL     1      24.783  15.297  -3.796  0.00  0.00    +0.100 C 
BRANCH  26  28
ATOM     27  N   UNL     1      22.337  15.099  -4.133  0.00  0.00    -0.134 NA
ATOM     28  C   UNL     1      23.416  15.051  -3.292  0.00  0.00    +0.086 A 
ATOM     29  C   UNL     1      22.988  14.722  -2.026  0.00  0.00    +0.134 A 
ATOM     30  N   UNL     1      21.644  14.526  -2.173  0.00  0.00    -0.247 N 
ATOM     31  N   UNL     1      21.257  14.767  -3.439  0.00  0.00    -0.065 NA
BRANCH  30  32
ATOM     32  C   UNL     1      20.734  13.895  -1.235  0.00  0.00    +0.180 C 
BRANCH  32  33
ATOM     33  C   UNL     1      21.084  12.460  -0.929  0.00  0.00    -0.025 A 
ATOM     34  C   UNL     1      21.124  11.494  -1.945  0.00  0.00    +0.005 A 
ATOM     35  C   UNL     1      21.537  10.188  -1.670  0.00  0.00    +0.001 A 
ATOM     36  C   UNL     1      21.914   9.830  -0.377  0.00  0.00    +0.015 A 
ATOM     37  C   UNL     1      21.867  10.779   0.640  0.00  0.00    +0.018 A 
ATOM     38 BR   UNL     1      22.386  10.302   2.395  0.00  0.00    -0.050 Br
ATOM     39  C   UNL     1      21.457  12.087   0.374  0.00  0.00    +0.020 A 
ENDBRANCH  32  33
ENDBRANCH  30  32
ENDBRANCH  26  28
ENDBRANCH  25  26
ENDBRANCH  24  25
ENDBRANCH   1  24
TORSDOF 12
