REMARK VINA RESULT:    -6.416      2.161      3.415
REMARK INTER + INTRA:         -13.490
REMARK INTER:                 -12.174
REMARK INTRA:                  -1.316
REMARK UNBOUND:                -1.823
REMARK  Name = lig_assembled_12.pdb
REMARK  14 active torsions:
REMARK  status: ('A' for Active; 'I' for Inactive)
REMARK    1  A    between atoms: _2  and  _8
REMARK    2  A    between atoms: _5  and  _6
REMARK    3  A    between atoms: _5  and  _16
REMARK    4  A    between atoms: _8  and  _15
REMARK    5  A    between atoms: _9  and  _10
REMARK    6  A    between atoms: _9  and  _15
REMARK    7  A    between atoms: _16  and  _18
REMARK    8  A    between atoms: _17  and  _22
REMARK    9  A    between atoms: _18  and  _21
REMARK   10  A    between atoms: _26  and  _36
REMARK   11  A    between atoms: _28  and  _29
REMARK   12  A    between atoms: _30  and  _32
REMARK   13  A    between atoms: _32  and  _34
REMARK   14  A    between atoms: _34  and  _36
REMARK                            x       y       z     vdW  Elec       q    Type
REMARK                         _______ _______ _______ _____ _____    ______ ____
ROOT
ATOM      1  C   UNL     1      29.570  17.273  -0.158  0.00  0.00    +0.400 C 
ATOM      2  N   UNL     1      29.820  16.075   0.469  0.00  0.00    -0.278 N 
ATOM      3  H   UNL     1      30.569  16.324   1.189  0.00  0.00    +0.152 HD
ATOM      4  O   UNL     1      30.063  18.291   0.321  0.00  0.00    -0.226 OA
ENDROOT
BRANCH   2   5
ATOM      5  C   UNL     1      29.517  14.652   0.599  0.00  0.00    +0.152 C 
BRANCH   5   6
ATOM      6  C   UNL     1      30.729  13.698   0.617  0.00  0.00    +0.193 C 
ATOM      7  O   UNL     1      31.502  13.987  -0.569  0.00  0.00    -0.219 OA
BRANCH   6   8
ATOM      8  C   UNL     1      31.736  13.844   1.779  0.00  0.00    +0.212 C 
ATOM      9  O   UNL     1      31.560  15.108   2.440  0.00  0.00    -0.218 OA
BRANCH   8  10
ATOM     10  C   UNL     1      31.623  12.695   2.851  0.00  0.00    +0.171 C 
ATOM     11  O   UNL     1      30.347  12.658   3.482  0.00  0.00    -0.343 OA
ATOM     12  C   UNL     1      30.055  11.910   4.626  0.00  0.00    +0.220 C 
ATOM     13  C   UNL     1      31.080  12.157   5.746  0.00  0.00    +0.076 C 
ATOM     14  C   UNL     1      32.479  11.915   5.155  0.00  0.00    +0.177 C 
ATOM     15  O   UNL     1      33.465  12.091   6.162  0.00  0.00    -0.221 OA
ATOM     16  C   UNL     1      32.725  12.872   3.947  0.00  0.00    +0.155 C 
BRANCH  16  17
ATOM     17  N   UNL     1      34.055  12.650   3.387  0.00  0.00    -0.202 NA
ATOM     18  C   UNL     1      35.108  13.502   3.287  0.00  0.00    +0.242 C 
ATOM     19  C   UNL     1      36.458  12.932   2.936  0.00  0.00    +0.096 C 
ATOM     20  O   UNL     1      34.938  14.703   3.483  0.00  0.00    -0.273 OA
ENDBRANCH  16  17
BRANCH  12  21
ATOM     21  C   UNL     1      29.863  10.324   4.330  0.00  0.00    +0.391 C 
ATOM     22  O   UNL     1      29.761  10.230   2.990  0.00  0.00    -0.243 OA
ATOM     23  O   UNL     1      30.177   9.695   5.470  0.00  0.00    -0.243 OA
ENDBRANCH  12  21
ENDBRANCH   8  10
ENDBRANCH   6   8
ENDBRANCH   5   6
ENDBRANCH   2   5
BRANCH   1  24
ATOM     24  O   UNL     1      28.852  17.205  -1.230  0.00  0.00    -0.450 OA
BRANCH  24  25
ATOM     25  C   UNL     1      27.495  17.206  -1.609  0.00  0.00    +0.240 C 
BRANCH  25  26
ATOM     26  C   UNL     1      27.177  17.206  -3.116  0.00  0.00    +0.100 C 
BRANCH  26  28
ATOM     27  N   UNL     1      26.505  14.845  -2.766  0.00  0.00    -0.134 NA
ATOM     28  C   UNL     1      26.390  16.013  -3.477  0.00  0.00    +0.086 A 
ATOM     29  C   UNL     1      25.476  15.835  -4.488  0.00  0.00    +0.136 A 
ATOM     30  N   UNL     1      25.092  14.532  -4.363  0.00  0.00    -0.226 N 
ATOM     31  N   UNL     1      25.695  13.946  -3.311  0.00  0.00    -0.063 NA
BRANCH  30  32
ATOM     32  C   UNL     1      24.130  13.789  -5.159  0.00  0.00    +0.305 C 
BRANCH  32  33
ATOM     33  O   UNL     1      23.128  13.251  -4.300  0.00  0.00    -0.353 OA
BRANCH  33  34
ATOM     34  C   UNL     1      22.433  14.272  -3.598  0.00  0.00    +0.197 C 
BRANCH  34  35
ATOM     35  C   UNL     1      21.920  13.672  -2.318  0.00  0.00    -0.022 A 
ATOM     36  C   UNL     1      20.735  14.143  -1.735  0.00  0.00    +0.006 A 
ATOM     37  C   UNL     1      20.280  13.613  -0.526  0.00  0.00    +0.000 A 
ATOM     38  C   UNL     1      21.009  12.615   0.116  0.00  0.00    +0.000 A 
ATOM     39  C   UNL     1      22.195  12.146  -0.447  0.00  0.00    +0.000 A 
ATOM     40  C   UNL     1      22.651  12.675  -1.657  0.00  0.00    +0.006 A 
ENDBRANCH  34  35
ENDBRANCH  33  34
ENDBRANCH  32  33
ENDBRANCH  30  32
ENDBRANCH  26  28
ENDBRANCH  25  26
ENDBRANCH  24  25
ENDBRANCH   1  24
TORSDOF 14
