REMARK VINA RESULT:    -7.491      1.812      3.081
REMARK INTER + INTRA:         -15.211
REMARK INTER:                 -13.431
REMARK INTRA:                  -1.780
REMARK UNBOUND:                -1.807
REMARK  Name = lig_assembled_75.pdb
REMARK  14 active torsions:
REMARK  status: ('A' for Active; 'I' for Inactive)
REMARK    1  A    between atoms: _2  and  _8
REMARK    2  A    between atoms: _5  and  _6
REMARK    3  A    between atoms: _5  and  _18
REMARK    4  A    between atoms: _10  and  _11
REMARK    5  A    between atoms: _12  and  _13
REMARK    6  A    between atoms: _13  and  _16
REMARK    7  A    between atoms: _18  and  _20
REMARK    8  A    between atoms: _19  and  _24
REMARK    9  A    between atoms: _20  and  _23
REMARK   10  A    between atoms: _28  and  _38
REMARK   11  A    between atoms: _30  and  _31
REMARK   12  A    between atoms: _32  and  _34
REMARK   13  A    between atoms: _34  and  _36
REMARK   14  A    between atoms: _36  and  _38
REMARK                            x       y       z     vdW  Elec       q    Type
REMARK                         _______ _______ _______ _____ _____    ______ ____
ROOT
ATOM      1  C   UNL     1      28.200  17.000  -0.665  0.00  0.00    +0.400 C 
ATOM      2  N   UNL     1      28.643  15.919   0.061  0.00  0.00    -0.278 N 
ATOM      3  H   UNL     1      29.068  16.365   0.934  0.00  0.00    +0.152 HD
ATOM      4  O   UNL     1      28.210  18.103  -0.125  0.00  0.00    -0.226 OA
ENDROOT
BRANCH   2   5
ATOM      5  C   UNL     1      28.779  14.470   0.177  0.00  0.00    +0.152 C 
BRANCH   5   6
ATOM      6  C   UNL     1      30.209  13.908   0.045  0.00  0.00    +0.193 C 
ATOM      7  O   UNL     1      30.864  14.678  -0.987  0.00  0.00    -0.219 OA
BRANCH   6   8
ATOM      8  C   UNL     1      31.142  14.033   1.270  0.00  0.00    +0.212 C 
ATOM      9  O   UNL     1      30.849  15.234   2.003  0.00  0.00    -0.218 OA
BRANCH   8  10
ATOM     10  C   UNL     1      31.048  12.806   2.255  0.00  0.00    +0.171 C 
ATOM     11  O   UNL     1      29.712  12.535   2.667  0.00  0.00    -0.343 OA
ATOM     12  C   UNL     1      29.368  11.673   3.711  0.00  0.00    +0.220 C 
ATOM     13  C   UNL     1      30.157  11.988   4.994  0.00  0.00    +0.076 C 
ATOM     14  C   UNL     1      31.650  11.999   4.628  0.00  0.00    +0.177 C 
ATOM     15  O   UNL     1      32.429  12.247   5.790  0.00  0.00    -0.221 OA
ATOM     16  C   UNL     1      31.925  13.066   3.523  0.00  0.00    +0.155 C 
BRANCH  16  17
ATOM     17  N   UNL     1      33.345  13.084   3.177  0.00  0.00    -0.202 NA
ATOM     18  C   UNL     1      34.288  14.026   3.432  0.00  0.00    +0.242 C 
ATOM     19  C   UNL     1      35.735  13.663   3.226  0.00  0.00    +0.096 C 
ATOM     20  O   UNL     1      33.944  15.140   3.822  0.00  0.00    -0.273 OA
ENDBRANCH  16  17
BRANCH  12  21
ATOM     21  C   UNL     1      29.477  10.101   3.314  0.00  0.00    +0.391 C 
ATOM     22  O   UNL     1      29.392   9.441   4.486  0.00  0.00    -0.243 OA
ATOM     23  O   UNL     1      29.306  10.042   1.988  0.00  0.00    -0.243 OA
ENDBRANCH  12  21
ENDBRANCH   8  10
ENDBRANCH   6   8
ENDBRANCH   5   6
ENDBRANCH   2   5
BRANCH   1  24
ATOM     24  O   UNL     1      27.836  16.748  -1.879  0.00  0.00    -0.450 OA
BRANCH  24  25
ATOM     25  C   UNL     1      27.026  17.303  -2.889  0.00  0.00    +0.240 C 
BRANCH  25  26
ATOM     26  C   UNL     1      26.574  16.371  -4.030  0.00  0.00    +0.100 C 
BRANCH  26  28
ATOM     27  N   UNL     1      25.729  14.053  -3.850  0.00  0.00    -0.134 NA
ATOM     28  C   UNL     1      25.612  15.374  -3.527  0.00  0.00    +0.086 A 
ATOM     29  C   UNL     1      24.511  15.543  -2.718  0.00  0.00    +0.139 A 
ATOM     30  N   UNL     1      23.980  14.283  -2.572  0.00  0.00    -0.220 N 
ATOM     31  N   UNL     1      24.735  13.397  -3.269  0.00  0.00    -0.061 NA
BRANCH  30  32
ATOM     32  C   UNL     1      22.820  13.882  -1.860  0.00  0.00    +0.068 A 
ATOM     33  C   UNL     1      22.941  12.945  -0.819  0.00  0.00    +0.035 A 
ATOM     34  C   UNL     1      21.808  12.477  -0.138  0.00  0.00    -0.023 A 
ATOM     35  C   UNL     1      20.556  13.008  -0.471  0.00  0.00    +0.008 A 
ATOM     36  C   UNL     1      20.433  13.956  -1.490  0.00  0.00    +0.003 A 
ATOM     37  C   UNL     1      21.558  14.388  -2.190  0.00  0.00    +0.028 A 
BRANCH  34  38
ATOM     38  C   UNL     1      21.888  11.463   0.925  0.00  0.00    +0.015 C 
ATOM     39  C   UNL     1      23.036  10.902   1.335  0.00  0.00    +0.092 C 
BRANCH  39  40
ATOM     40  C   UNL     1      23.007   9.854   2.375  0.00  0.00    +0.330 C 
ATOM     41  O   UNL     1      23.967   9.511   3.041  0.00  0.00    -0.246 OA
BRANCH  40  42
ATOM     42  O   UNL     1      21.778   9.319   2.516  0.00  0.00    -0.478 OA
ATOM     43  H   UNL     1      21.480   9.180   3.433  0.00  0.00    +0.295 HD
ENDBRANCH  40  42
ENDBRANCH  39  40
ENDBRANCH  34  38
ENDBRANCH  30  32
ENDBRANCH  26  28
ENDBRANCH  25  26
ENDBRANCH  24  25
ENDBRANCH   1  24
TORSDOF 14
