REMARK VINA RESULT:    -5.862      2.551      3.596
REMARK INTER + INTRA:         -12.603
REMARK INTER:                 -10.959
REMARK INTRA:                  -1.645
REMARK UNBOUND:                -2.287
REMARK  Name = lig_assembled_67.pdb
REMARK  13 active torsions:
REMARK  status: ('A' for Active; 'I' for Inactive)
REMARK    1  A    between atoms: _2  and  _8
REMARK    2  A    between atoms: _5  and  _6
REMARK    3  A    between atoms: _5  and  _14
REMARK    4  A    between atoms: _8  and  _9
REMARK    5  A    between atoms: _9  and  _10
REMARK    6  A    between atoms: _14  and  _16
REMARK    7  A    between atoms: _15  and  _20
REMARK    8  A    between atoms: _16  and  _19
REMARK    9  A    between atoms: _24  and  _34
REMARK   10  A    between atoms: _26  and  _27
REMARK   11  A    between atoms: _28  and  _30
REMARK   12  A    between atoms: _30  and  _32
REMARK   13  A    between atoms: _32  and  _34
REMARK                            x       y       z     vdW  Elec       q    Type
REMARK                         _______ _______ _______ _____ _____    ______ ____
ROOT
ATOM      1  C   UNL     1      28.288  17.637  -0.561  0.00  0.00    +0.400 C 
ATOM      2  N   UNL     1      29.491  17.564   0.101  0.00  0.00    -0.278 N 
ATOM      3  H   UNL     1      29.447  18.383   0.786  0.00  0.00    +0.152 HD
ATOM      4  O   UNL     1      27.440  18.417  -0.136  0.00  0.00    -0.226 OA
ENDROOT
BRANCH   2   5
ATOM      5  C   UNL     1      30.766  16.877   0.293  0.00  0.00    +0.152 C 
BRANCH   5   6
ATOM      6  C   UNL     1      30.732  15.339   0.184  0.00  0.00    +0.193 C 
ATOM      7  O   UNL     1      31.557  14.984  -0.947  0.00  0.00    -0.219 OA
BRANCH   6   8
ATOM      8  C   UNL     1      31.320  14.526   1.359  0.00  0.00    +0.212 C 
ATOM      9  O   UNL     1      31.579  15.384   2.482  0.00  0.00    -0.218 OA
BRANCH   8  10
ATOM     10  C   UNL     1      30.386  13.347   1.831  0.00  0.00    +0.171 C 
ATOM     11  O   UNL     1      30.090  13.406   3.223  0.00  0.00    -0.343 OA
ATOM     12  C   UNL     1      29.496  12.370   3.947  0.00  0.00    +0.220 C 
ATOM     13  C   UNL     1      30.216  11.029   3.718  0.00  0.00    +0.076 C 
ATOM     14  C   UNL     1      30.291  10.797   2.200  0.00  0.00    +0.177 C 
ATOM     15  O   UNL     1      30.914   9.549   1.934  0.00  0.00    -0.221 OA
ATOM     16  C   UNL     1      31.059  11.971   1.515  0.00  0.00    +0.155 C 
BRANCH  16  17
ATOM     17  N   UNL     1      31.139  11.751   0.073  0.00  0.00    -0.202 NA
ATOM     18  C   UNL     1      30.155  11.760  -0.862  0.00  0.00    +0.242 C 
ATOM     19  C   UNL     1      30.551  11.797  -2.315  0.00  0.00    +0.096 C 
ATOM     20  O   UNL     1      28.979  11.740  -0.507  0.00  0.00    -0.273 OA
ENDBRANCH  16  17
BRANCH  12  21
ATOM     21  C   UNL     1      27.896  12.239   3.696  0.00  0.00    +0.391 C 
ATOM     22  O   UNL     1      27.607  10.950   3.959  0.00  0.00    -0.243 OA
ATOM     23  O   UNL     1      27.430  13.492   3.622  0.00  0.00    -0.243 OA
ENDBRANCH  12  21
ENDBRANCH   8  10
ENDBRANCH   6   8
ENDBRANCH   5   6
ENDBRANCH   2   5
BRANCH   1  24
ATOM     24  O   UNL     1      28.177  16.883  -1.605  0.00  0.00    -0.450 OA
BRANCH  24  25
ATOM     25  C   UNL     1      27.185  16.172  -2.308  0.00  0.00    +0.240 C 
BRANCH  25  26
ATOM     26  C   UNL     1      27.320  14.639  -2.371  0.00  0.00    +0.100 C 
BRANCH  26  28
ATOM     27  N   UNL     1      26.098  13.099  -0.868  0.00  0.00    -0.134 NA
ATOM     28  C   UNL     1      26.077  13.993  -1.907  0.00  0.00    +0.086 A 
ATOM     29  C   UNL     1      24.784  14.129  -2.358  0.00  0.00    +0.133 A 
ATOM     30  N   UNL     1      24.068  13.290  -1.559  0.00  0.00    -0.251 N 
ATOM     31  N   UNL     1      24.858  12.671  -0.666  0.00  0.00    -0.065 NA
BRANCH  30  32
ATOM     32  C   UNL     1      22.644  13.038  -1.573  0.00  0.00    +0.150 C 
BRANCH  32  33
ATOM     33  C   UNL     1      21.799  14.305  -1.672  0.00  0.00    +0.084 C 
BRANCH  33  34
ATOM     34  C   UNL     1      21.077  14.421  -3.006  0.00  0.00    +0.252 C 
ATOM     35  O   UNL     1      21.807  15.278  -3.891  0.00  0.00    -0.349 OA
ATOM     36  C   UNL     1      21.478  14.769  -5.181  0.00  0.00    +0.191 C 
ATOM     37  C   UNL     1      21.391  13.281  -4.957  0.00  0.00    +0.191 C 
ATOM     38  O   UNL     1      20.935  13.131  -3.611  0.00  0.00    -0.349 OA
ENDBRANCH  33  34
ENDBRANCH  32  33
ENDBRANCH  30  32
ENDBRANCH  26  28
ENDBRANCH  25  26
ENDBRANCH  24  25
ENDBRANCH   1  24
TORSDOF 13
