REMARK VINA RESULT:    -6.328      3.748      5.378
REMARK INTER + INTRA:         -14.050
REMARK INTER:                 -11.176
REMARK INTRA:                  -2.875
REMARK UNBOUND:                -2.913
REMARK  Name = lig_assembled_92.pdb
REMARK  13 active torsions:
REMARK  status: ('A' for Active; 'I' for Inactive)
REMARK    1  A    between atoms: _2  and  _10
REMARK    2  A    between atoms: _3  and  _49
REMARK    3  A    between atoms: _7  and  _8
REMARK    4  A    between atoms: _7  and  _20
REMARK    5  A    between atoms: _13  and  _49
REMARK    6  A    between atoms: _20  and  _22
REMARK    7  A    between atoms: _21  and  _26
REMARK    8  A    between atoms: _22  and  _25
REMARK    9  A    between atoms: _30  and  _40
REMARK   10  A    between atoms: _32  and  _33
REMARK   11  A    between atoms: _34  and  _36
REMARK   12  A    between atoms: _36  and  _38
REMARK   13  A    between atoms: _38  and  _40
REMARK                            x       y       z     vdW  Elec       q    Type
REMARK                         _______ _______ _______ _____ _____    ______ ____
ROOT
ATOM      1  O   UNL     1      27.399  14.606  -2.256  0.00  0.00    -0.450 OA
ENDROOT
BRANCH   1   2
ATOM      2  C   UNL     1      27.646  15.708  -1.626  0.00  0.00    +0.400 C 
ATOM      3  N   UNL     1      28.365  15.580  -0.461  0.00  0.00    -0.278 N 
ATOM      4  H   UNL     1      28.622  16.588  -0.217  0.00  0.00    +0.152 HD
ATOM      5  O   UNL     1      27.325  16.837  -1.988  0.00  0.00    -0.226 OA
BRANCH   3   6
ATOM      6  C   UNL     1      28.909  14.706   0.576  0.00  0.00    +0.152 C 
BRANCH   6   7
ATOM      7  C   UNL     1      30.279  14.065   0.273  0.00  0.00    +0.193 C 
ATOM      8  O   UNL     1      30.387  13.974  -1.164  0.00  0.00    -0.219 OA
BRANCH   7   9
ATOM      9  C   UNL     1      31.543  14.841   0.706  0.00  0.00    +0.212 C 
ATOM     10  O   UNL     1      31.179  16.070   1.357  0.00  0.00    -0.218 OA
BRANCH   9  11
ATOM     11  C   UNL     1      32.481  14.019   1.670  0.00  0.00    +0.171 C 
ATOM     12  O   UNL     1      32.769  14.715   2.878  0.00  0.00    -0.343 OA
ATOM     13  C   UNL     1      33.755  14.333   3.791  0.00  0.00    +0.220 C 
ATOM     14  C   UNL     1      35.109  14.093   3.101  0.00  0.00    +0.076 C 
ATOM     15  C   UNL     1      34.873  13.100   1.951  0.00  0.00    +0.177 C 
ATOM     16  O   UNL     1      36.103  12.812   1.303  0.00  0.00    -0.221 OA
ATOM     17  C   UNL     1      33.826  13.678   0.949  0.00  0.00    +0.155 C 
BRANCH  17  18
ATOM     18  N   UNL     1      33.603  12.740  -0.149  0.00  0.00    -0.202 NA
ATOM     19  C   UNL     1      32.992  11.528  -0.145  0.00  0.00    +0.242 C 
ATOM     20  C   UNL     1      32.636  10.902  -1.468  0.00  0.00    +0.096 C 
ATOM     21  O   UNL     1      32.744  10.977   0.926  0.00  0.00    -0.273 OA
ENDBRANCH  17  18
BRANCH  13  22
ATOM     22  C   UNL     1      33.325  13.070   4.718  0.00  0.00    +0.391 C 
ATOM     23  O   UNL     1      32.033  12.841   4.415  0.00  0.00    -0.243 OA
ATOM     24  O   UNL     1      34.466  12.555   5.193  0.00  0.00    -0.243 OA
ENDBRANCH  13  22
ENDBRANCH   9  11
ENDBRANCH   7   9
ENDBRANCH   6   7
ENDBRANCH   3   6
ENDBRANCH   1   2
BRANCH   1  25
ATOM     25  C   UNL     1      26.298  13.803  -2.613  0.00  0.00    +0.240 C 
BRANCH  25  26
ATOM     26  C   UNL     1      25.485  13.163  -1.471  0.00  0.00    +0.100 C 
BRANCH  26  28
ATOM     27  N   UNL     1      27.330  11.564  -1.037  0.00  0.00    -0.134 NA
ATOM     28  C   UNL     1      26.375  12.417  -0.563  0.00  0.00    +0.086 A 
ATOM     29  C   UNL     1      26.430  12.432   0.811  0.00  0.00    +0.139 A 
ATOM     30  N   UNL     1      27.465  11.585   1.136  0.00  0.00    -0.220 N 
ATOM     31  N   UNL     1      27.985  11.058  -0.000  0.00  0.00    -0.061 NA
BRANCH  30  32
ATOM     32  C   UNL     1      27.991  11.289   2.419  0.00  0.00    +0.067 A 
ATOM     33  C   UNL     1      27.664  12.091   3.522  0.00  0.00    +0.030 A 
ATOM     34  C   UNL     1      28.230  11.832   4.770  0.00  0.00    +0.031 A 
ATOM     35  C   UNL     1      29.115  10.763   4.924  0.00  0.00    +0.109 A 
ATOM     36  C   UNL     1      29.442   9.949   3.837  0.00  0.00    +0.031 A 
ATOM     37  C   UNL     1      28.871  10.206   2.585  0.00  0.00    +0.030 A 
BRANCH  35  38
ATOM     38  S   UNL     1      29.929  10.558   6.485  0.00  0.00    +0.074 S 
ATOM     39  O   UNL     1      28.912  10.245   7.470  0.00  0.00    -0.150 OA
ATOM     40  O   UNL     1      31.058   9.675   6.305  0.00  0.00    -0.150 OA
BRANCH  38  41
ATOM     41  N   UNL     1      30.446  12.118   6.869  0.00  0.00    -0.194 N 
ATOM     42  H   UNL     1      29.609  12.697   6.893  0.00  0.00    +0.176 HD
ATOM     43  C   UNL     1      31.187  12.153   8.068  0.00  0.00    +0.177 A 
ATOM     44  S   UNL     1      30.494  12.582   9.570  0.00  0.00    -0.059 S 
ATOM     45  C   UNL     1      32.048  12.478  10.291  0.00  0.00    +0.068 A 
ATOM     46  C   UNL     1      32.987  12.201   9.318  0.00  0.00    +0.120 A 
ATOM     47  N   UNL     1      32.486  11.984   8.048  0.00  0.00    -0.232 NA
ENDBRANCH  38  41
ENDBRANCH  35  38
ENDBRANCH  30  32
ENDBRANCH  26  28
ENDBRANCH  25  26
ENDBRANCH   1  25
TORSDOF 13
