REMARK VINA RESULT:    -7.429      1.413      2.188
REMARK INTER + INTRA:         -13.267
REMARK INTER:                 -11.655
REMARK INTRA:                  -1.611
REMARK UNBOUND:                -0.626
REMARK  Name = lig_assembled_5.pdb
REMARK  13 active torsions:
REMARK  status: ('A' for Active; 'I' for Inactive)
REMARK    1  A    between atoms: _2  and  _8
REMARK    2  A    between atoms: _5  and  _6
REMARK    3  A    between atoms: _5  and  _15
REMARK    4  A    between atoms: _11  and  _14
REMARK    5  A    between atoms: _12  and  _14
REMARK    6  A    between atoms: _15  and  _17
REMARK    7  A    between atoms: _16  and  _21
REMARK    8  A    between atoms: _17  and  _20
REMARK    9  A    between atoms: _25  and  _35
REMARK   10  A    between atoms: _27  and  _28
REMARK   11  A    between atoms: _29  and  _31
REMARK   12  A    between atoms: _31  and  _33
REMARK   13  A    between atoms: _33  and  _35
REMARK                            x       y       z     vdW  Elec       q    Type
REMARK                         _______ _______ _______ _____ _____    ______ ____
ROOT
ATOM      1  C   UNL     1      28.460  16.978  -0.648  0.00  0.00    +0.400 C 
ATOM      2  N   UNL     1      28.574  15.857   0.139  0.00  0.00    -0.278 N 
ATOM      3  H   UNL     1      29.115  16.207   0.992  0.00  0.00    +0.152 HD
ATOM      4  O   UNL     1      28.794  18.059  -0.169  0.00  0.00    -0.226 OA
ENDROOT
BRANCH   2   5
ATOM      5  C   UNL     1      28.283  14.439   0.334  0.00  0.00    +0.152 C 
BRANCH   5   6
ATOM      6  C   UNL     1      28.926  13.777   1.570  0.00  0.00    +0.193 C 
ATOM      7  O   UNL     1      27.882  13.638   2.558  0.00  0.00    -0.219 OA
BRANCH   6   8
ATOM      8  C   UNL     1      29.491  12.349   1.403  0.00  0.00    +0.212 C 
ATOM      9  O   UNL     1      29.712  12.056   0.014  0.00  0.00    -0.218 OA
BRANCH   8  10
ATOM     10  C   UNL     1      30.838  12.115   2.188  0.00  0.00    +0.171 C 
ATOM     11  O   UNL     1      30.626  11.837   3.568  0.00  0.00    -0.343 OA
ATOM     12  C   UNL     1      31.635  11.831   4.535  0.00  0.00    +0.220 C 
ATOM     13  C   UNL     1      32.485  13.112   4.480  0.00  0.00    +0.076 C 
ATOM     14  C   UNL     1      32.976  13.280   3.033  0.00  0.00    +0.177 C 
ATOM     15  O   UNL     1      33.803  14.432   2.936  0.00  0.00    -0.221 OA
ATOM     16  C   UNL     1      31.760  13.371   2.060  0.00  0.00    +0.155 C 
BRANCH  16  17
ATOM     17  N   UNL     1      32.222  13.538   0.684  0.00  0.00    -0.202 NA
ATOM     18  C   UNL     1      32.195  14.636  -0.113  0.00  0.00    +0.242 C 
ATOM     19  C   UNL     1      33.004  14.617  -1.384  0.00  0.00    +0.096 C 
ATOM     20  O   UNL     1      31.520  15.609   0.216  0.00  0.00    -0.273 OA
ENDBRANCH  16  17
BRANCH  12  21
ATOM     21  C   UNL     1      32.561  10.497   4.494  0.00  0.00    +0.391 C 
ATOM     22  O   UNL     1      33.801  10.926   4.803  0.00  0.00    -0.243 OA
ATOM     23  O   UNL     1      31.716   9.460   4.471  0.00  0.00    -0.243 OA
ENDBRANCH  12  21
ENDBRANCH   8  10
ENDBRANCH   6   8
ENDBRANCH   5   6
ENDBRANCH   2   5
BRANCH   1  24
ATOM     24  O   UNL     1      28.033  16.777  -1.852  0.00  0.00    -0.450 OA
BRANCH  24  25
ATOM     25  C   UNL     1      27.026  17.242  -2.719  0.00  0.00    +0.240 C 
BRANCH  25  26
ATOM     26  C   UNL     1      26.393  16.223  -3.686  0.00  0.00    +0.100 C 
BRANCH  26  28
ATOM     27  N   UNL     1      23.975  15.889  -3.282  0.00  0.00    -0.134 NA
ATOM     28  C   UNL     1      25.268  15.529  -3.033  0.00  0.00    +0.086 A 
ATOM     29  C   UNL     1      25.278  14.482  -2.141  0.00  0.00    +0.139 A 
ATOM     30  N   UNL     1      23.951  14.214  -1.890  0.00  0.00    -0.220 N 
ATOM     31  N   UNL     1      23.181  15.093  -2.578  0.00  0.00    -0.061 NA
BRANCH  30  32
ATOM     32  C   UNL     1      23.389  13.190  -1.084  0.00  0.00    +0.067 A 
ATOM     33  C   UNL     1      22.002  13.077  -0.932  0.00  0.00    +0.031 A 
ATOM     34  C   UNL     1      21.471  12.100  -0.085  0.00  0.00    +0.048 A 
ATOM     35  C   UNL     1      22.306  11.215   0.599  0.00  0.00    +0.120 A 
ATOM     36  C   UNL     1      23.687  11.313   0.436  0.00  0.00    +0.048 A 
ATOM     37  C   UNL     1      24.229  12.297  -0.403  0.00  0.00    +0.031 A 
BRANCH  35  38
ATOM     38  O   UNL     1      21.661  10.351   1.440  0.00  0.00    -0.495 OA
ATOM     39  C   UNL     1      22.242  10.168   2.724  0.00  0.00    +0.277 C 
ENDBRANCH  35  38
ENDBRANCH  30  32
ENDBRANCH  26  28
ENDBRANCH  25  26
ENDBRANCH  24  25
ENDBRANCH   1  24
TORSDOF 12
