REMARK VINA RESULT:    -6.606      1.523      3.640
REMARK INTER + INTRA:         -13.837
REMARK INTER:                 -12.469
REMARK INTRA:                  -1.368
REMARK UNBOUND:                -2.596
REMARK  Name = lig_assembled_4.pdb
REMARK  14 active torsions:
REMARK  status: ('A' for Active; 'I' for Inactive)
REMARK    1  A    between atoms: _2  and  _8
REMARK    2  A    between atoms: _5  and  _6
REMARK    3  A    between atoms: _5  and  _16
REMARK    4  A    between atoms: _9  and  _10
REMARK    5  A    between atoms: _10  and  _11
REMARK    6  A    between atoms: _10  and  _12
REMARK    7  A    between atoms: _16  and  _18
REMARK    8  A    between atoms: _17  and  _22
REMARK    9  A    between atoms: _18  and  _21
REMARK   10  A    between atoms: _26  and  _36
REMARK   11  A    between atoms: _28  and  _29
REMARK   12  A    between atoms: _30  and  _32
REMARK   13  A    between atoms: _32  and  _34
REMARK   14  A    between atoms: _34  and  _36
REMARK                            x       y       z     vdW  Elec       q    Type
REMARK                         _______ _______ _______ _____ _____    ______ ____
ROOT
ATOM      1  C   UNL     1      28.413  17.319  -0.504  0.00  0.00    +0.400 C 
ATOM      2  N   UNL     1      29.535  16.830   0.123  0.00  0.00    -0.278 N 
ATOM      3  H   UNL     1      29.695  17.524   0.919  0.00  0.00    +0.152 HD
ATOM      4  O   UNL     1      27.796  18.230   0.041  0.00  0.00    -0.226 OA
ENDROOT
BRANCH   2   5
ATOM      5  C   UNL     1      30.572  15.804   0.195  0.00  0.00    +0.152 C 
BRANCH   5   6
ATOM      6  C   UNL     1      30.090  14.342   0.103  0.00  0.00    +0.193 C 
ATOM      7  O   UNL     1      29.863  14.067  -1.297  0.00  0.00    -0.219 OA
BRANCH   6   8
ATOM      8  C   UNL     1      31.067  13.236   0.560  0.00  0.00    +0.212 C 
ATOM      9  O   UNL     1      30.485  11.938   0.360  0.00  0.00    -0.218 OA
BRANCH   8  10
ATOM     10  C   UNL     1      32.456  13.285  -0.183  0.00  0.00    +0.171 C 
ATOM     11  O   UNL     1      32.487  12.460  -1.342  0.00  0.00    -0.343 OA
ATOM     12  C   UNL     1      33.649  12.127  -2.042  0.00  0.00    +0.220 C 
ATOM     13  C   UNL     1      34.746  11.592  -1.105  0.00  0.00    +0.076 C 
ATOM     14  C   UNL     1      34.940  12.624   0.018  0.00  0.00    +0.177 C 
ATOM     15  O   UNL     1      35.974  12.196   0.893  0.00  0.00    -0.221 OA
ATOM     16  C   UNL     1      33.600  12.840   0.787  0.00  0.00    +0.155 C 
BRANCH  16  17
ATOM     17  N   UNL     1      33.781  13.815   1.859  0.00  0.00    -0.202 NA
ATOM     18  C   UNL     1      33.615  13.673   3.199  0.00  0.00    +0.242 C 
ATOM     19  C   UNL     1      34.153  14.750   4.104  0.00  0.00    +0.096 C 
ATOM     20  O   UNL     1      33.037  12.680   3.637  0.00  0.00    -0.273 OA
ENDBRANCH  16  17
BRANCH  12  21
ATOM     21  C   UNL     1      34.203  13.329  -2.985  0.00  0.00    +0.391 C 
ATOM     22  O   UNL     1      35.435  12.935  -3.362  0.00  0.00    -0.243 OA
ATOM     23  O   UNL     1      33.142  14.093  -3.272  0.00  0.00    -0.243 OA
ENDBRANCH  12  21
ENDBRANCH   8  10
ENDBRANCH   6   8
ENDBRANCH   5   6
ENDBRANCH   2   5
BRANCH   1  24
ATOM     24  O   UNL     1      28.129  16.780  -1.645  0.00  0.00    -0.450 OA
BRANCH  24  25
ATOM     25  C   UNL     1      27.149  15.946  -2.218  0.00  0.00    +0.240 C 
BRANCH  25  26
ATOM     26  C   UNL     1      26.321  16.519  -3.384  0.00  0.00    +0.100 C 
BRANCH  26  28
ATOM     27  N   UNL     1      24.838  15.002  -4.643  0.00  0.00    -0.134 NA
ATOM     28  C   UNL     1      25.060  15.771  -3.544  0.00  0.00    +0.086 A 
ATOM     29  C   UNL     1      23.950  15.730  -2.732  0.00  0.00    +0.139 A 
ATOM     30  N   UNL     1      23.011  15.016  -3.450  0.00  0.00    -0.220 N 
ATOM     31  N   UNL     1      23.600  14.528  -4.563  0.00  0.00    -0.061 NA
BRANCH  30  32
ATOM     32  C   UNL     1      21.634  14.823  -3.128  0.00  0.00    +0.070 A 
ATOM     33  C   UNL     1      21.186  13.930  -2.116  0.00  0.00    -0.019 A 
ATOM     34  C   UNL     1      19.791  13.812  -1.921  0.00  0.00    +0.006 A 
ATOM     35  C   UNL     1      18.872  14.525  -2.693  0.00  0.00    +0.000 A 
ATOM     36  C   UNL     1      19.320  15.397  -3.672  0.00  0.00    +0.002 A 
ATOM     37  C   UNL     1      20.689  15.545  -3.890  0.00  0.00    +0.028 A 
BRANCH  33  38
ATOM     38  C   UNL     1      22.114  13.089  -1.237  0.00  0.00    +0.015 C 
ATOM     39  C   UNL     1      22.909  12.005  -1.982  0.00  0.00    +0.012 C 
ATOM     40  C   UNL     1      21.318  12.454  -0.094  0.00  0.00    +0.012 C 
ENDBRANCH  33  38
ENDBRANCH  30  32
ENDBRANCH  26  28
ENDBRANCH  25  26
ENDBRANCH  24  25
ENDBRANCH   1  24
TORSDOF 12
