REMARK VINA RESULT:    -7.236      2.480      5.160
REMARK INTER + INTRA:         -16.178
REMARK INTER:                 -13.068
REMARK INTRA:                  -3.110
REMARK UNBOUND:                -3.231
REMARK  Name = lig_assembled_34.pdb
REMARK  14 active torsions:
REMARK  status: ('A' for Active; 'I' for Inactive)
REMARK    1  A    between atoms: _2  and  _8
REMARK    2  A    between atoms: _5  and  _6
REMARK    3  A    between atoms: _5  and  _32
REMARK    4  A    between atoms: _10  and  _11
REMARK    5  A    between atoms: _12  and  _13
REMARK    6  A    between atoms: _17  and  _30
REMARK    7  A    between atoms: _32  and  _34
REMARK    8  A    between atoms: _33  and  _38
REMARK    9  A    between atoms: _34  and  _37
REMARK   10  A    between atoms: _42  and  _52
REMARK   11  A    between atoms: _44  and  _45
REMARK   12  A    between atoms: _46  and  _48
REMARK   13  A    between atoms: _48  and  _50
REMARK   14  A    between atoms: _50  and  _52
REMARK                            x       y       z     vdW  Elec       q    Type
REMARK                         _______ _______ _______ _____ _____    ______ ____
ROOT
ATOM      1  N   UNL     1      26.568  13.104  -4.245  0.00  0.00    -0.134 NA
ATOM      2  C   UNL     1      25.978  14.185  -3.655  0.00  0.00    +0.086 A 
ATOM      3  C   UNL     1      26.632  14.464  -2.481  0.00  0.00    +0.139 A 
ATOM      4  N   UNL     1      27.649  13.539  -2.395  0.00  0.00    -0.220 N 
ATOM      5  N   UNL     1      27.574  12.706  -3.468  0.00  0.00    -0.061 NA
ENDROOT
BRANCH   4   6
ATOM      6  C   UNL     1      28.667  13.445  -1.409  0.00  0.00    +0.068 A 
ATOM      7  C   UNL     1      29.150  14.610  -0.801  0.00  0.00    +0.038 A 
ATOM      8  C   UNL     1      30.248  14.605   0.092  0.00  0.00    +0.007 A 
ATOM      9  C   UNL     1      30.828  13.369   0.440  0.00  0.00    -0.008 A 
ATOM     10  C   UNL     1      30.303  12.190  -0.143  0.00  0.00    +0.011 A 
ATOM     11  C   UNL     1      29.247  12.223  -1.070  0.00  0.00    +0.028 A 
BRANCH   9  12
ATOM     12  C   UNL     1      32.027  13.208   1.328  0.00  0.00    +0.004 A 
ATOM     13  C   UNL     1      31.923  12.823   2.630  0.00  0.00    +0.026 A 
ATOM     14  C   UNL     1      30.632  12.593   3.290  0.00  0.00    +0.016 A 
ATOM     15  C   UNL     1      30.544  12.400   4.615  0.00  0.00    +0.051 A 
ATOM     16  C   UNL     1      31.765  12.378   5.457  0.00  0.00    +0.183 A 
ATOM     17  O   UNL     1      31.695  12.266   6.678  0.00  0.00    -0.288 OA
ATOM     18  C   UNL     1      33.069  12.418   4.766  0.00  0.00    +0.097 A 
ATOM     19  C   UNL     1      33.135  12.591   3.440  0.00  0.00    +0.140 A 
ATOM     20  O   UNL     1      34.372  12.482   2.823  0.00  0.00    -0.455 OA
ATOM     21  C   UNL     1      34.495  12.902   1.525  0.00  0.00    +0.140 A 
ATOM     22  C   UNL     1      35.779  12.858   0.980  0.00  0.00    +0.092 A 
ATOM     23  C   UNL     1      35.987  13.323  -0.308  0.00  0.00    +0.120 A 
ATOM     24  C   UNL     1      34.945  13.903  -1.025  0.00  0.00    +0.046 A 
ATOM     25  C   UNL     1      33.662  13.929  -0.470  0.00  0.00    +0.016 A 
ATOM     26  C   UNL     1      33.408  13.369   0.790  0.00  0.00    +0.026 A 
BRANCH  23  27
ATOM     27  O   UNL     1      37.230  13.186  -0.852  0.00  0.00    -0.507 OA
ATOM     28  H   UNL     1      37.368  13.932  -1.459  0.00  0.00    +0.292 HD
ENDBRANCH  23  27
ENDBRANCH   9  12
BRANCH   8  29
ATOM     29  C   UNL     1      30.757  15.960   0.545  0.00  0.00    +0.072 C 
ATOM     30  O   UNL     1      31.163  16.031   1.750  0.00  0.00    -0.545 OA
ATOM     31  O   UNL     1      30.674  16.933  -0.261  0.00  0.00    -0.545 OA
ENDBRANCH   8  29
ENDBRANCH   4   6
BRANCH   2  32
ATOM     32  C   UNL     1      24.825  14.884  -4.256  0.00  0.00    +0.100 C 
BRANCH  32  33
ATOM     33  C   UNL     1      24.167  15.831  -3.235  0.00  0.00    +0.240 C 
BRANCH  33  34
ATOM     34  O   UNL     1      22.762  15.808  -3.137  0.00  0.00    -0.450 OA
BRANCH  34  35
ATOM     35  C   UNL     1      21.759  15.137  -3.600  0.00  0.00    +0.400 C 
ATOM     36  N   UNL     1      21.031  14.436  -2.667  0.00  0.00    -0.278 N 
ATOM     37  H   UNL     1      20.163  14.129  -3.211  0.00  0.00    +0.152 HD
ATOM     38  O   UNL     1      21.391  15.097  -4.771  0.00  0.00    -0.226 OA
BRANCH  36  39
ATOM     39  C   UNL     1      20.920  13.923  -1.304  0.00  0.00    +0.152 C 
BRANCH  39  40
ATOM     40  C   UNL     1      21.451  12.493  -1.071  0.00  0.00    +0.193 C 
ATOM     41  O   UNL     1      20.933  11.678  -2.145  0.00  0.00    -0.219 OA
BRANCH  40  42
ATOM     42  C   UNL     1      22.980  12.280  -1.129  0.00  0.00    +0.212 C 
ATOM     43  O   UNL     1      23.667  13.537  -1.013  0.00  0.00    -0.218 OA
BRANCH  42  44
ATOM     44  C   UNL     1      23.517  11.308  -0.010  0.00  0.00    +0.171 C 
ATOM     45  O   UNL     1      22.970  11.593   1.273  0.00  0.00    -0.343 OA
ATOM     46  C   UNL     1      23.447  11.056   2.470  0.00  0.00    +0.220 C 
ATOM     47  C   UNL     1      24.970  11.228   2.606  0.00  0.00    +0.076 C 
ATOM     48  C   UNL     1      25.616  10.652   1.335  0.00  0.00    +0.177 C 
ATOM     49  O   UNL     1      27.030  10.751   1.427  0.00  0.00    -0.221 OA
ATOM     50  C   UNL     1      25.077  11.396   0.074  0.00  0.00    +0.155 C 
BRANCH  50  51
ATOM     51  N   UNL     1      25.693  10.856  -1.135  0.00  0.00    -0.202 NA
ATOM     52  C   UNL     1      25.682   9.590  -1.624  0.00  0.00    +0.242 C 
ATOM     53  C   UNL     1      26.147   9.365  -3.040  0.00  0.00    +0.096 C 
ATOM     54  O   UNL     1      25.298   8.666  -0.910  0.00  0.00    -0.273 OA
ENDBRANCH  50  51
BRANCH  46  55
ATOM     55  C   UNL     1      22.998   9.513   2.713  0.00  0.00    +0.391 C 
ATOM     56  O   UNL     1      23.819   9.060   3.679  0.00  0.00    -0.243 OA
ATOM     57  O   UNL     1      21.817   9.372   2.097  0.00  0.00    -0.243 OA
ENDBRANCH  46  55
ENDBRANCH  42  44
ENDBRANCH  40  42
ENDBRANCH  39  40
ENDBRANCH  36  39
ENDBRANCH  34  35
ENDBRANCH  33  34
ENDBRANCH  32  33
ENDBRANCH   2  32
TORSDOF 14
