REMARK VINA RESULT:    -6.814      1.703      2.917
REMARK INTER + INTRA:         -14.214
REMARK INTER:                 -12.777
REMARK INTRA:                  -1.437
REMARK UNBOUND:                -1.823
REMARK  Name = lig_assembled_12.pdb
REMARK  14 active torsions:
REMARK  status: ('A' for Active; 'I' for Inactive)
REMARK    1  A    between atoms: _2  and  _8
REMARK    2  A    between atoms: _5  and  _6
REMARK    3  A    between atoms: _5  and  _16
REMARK    4  A    between atoms: _8  and  _15
REMARK    5  A    between atoms: _9  and  _10
REMARK    6  A    between atoms: _9  and  _15
REMARK    7  A    between atoms: _16  and  _18
REMARK    8  A    between atoms: _17  and  _22
REMARK    9  A    between atoms: _18  and  _21
REMARK   10  A    between atoms: _26  and  _36
REMARK   11  A    between atoms: _28  and  _29
REMARK   12  A    between atoms: _30  and  _32
REMARK   13  A    between atoms: _32  and  _34
REMARK   14  A    between atoms: _34  and  _36
REMARK                            x       y       z     vdW  Elec       q    Type
REMARK                         _______ _______ _______ _____ _____    ______ ____
ROOT
ATOM      1  C   UNL     1      27.513  15.075  -1.626  0.00  0.00    +0.400 C 
ATOM      2  N   UNL     1      28.519  15.086  -0.688  0.00  0.00    -0.278 N 
ATOM      3  H   UNL     1      28.389  14.158  -0.176  0.00  0.00    +0.152 HD
ATOM      4  O   UNL     1      26.878  14.035  -1.782  0.00  0.00    -0.226 OA
ENDROOT
BRANCH   2   5
ATOM      5  C   UNL     1      29.666  15.775  -0.103  0.00  0.00    +0.152 C 
BRANCH   5   6
ATOM      6  C   UNL     1      30.988  14.981  -0.065  0.00  0.00    +0.193 C 
ATOM      7  O   UNL     1      31.959  15.757  -0.801  0.00  0.00    -0.219 OA
BRANCH   6   8
ATOM      8  C   UNL     1      31.644  14.750   1.314  0.00  0.00    +0.212 C 
ATOM      9  O   UNL     1      31.297  15.810   2.219  0.00  0.00    -0.218 OA
BRANCH   8  10
ATOM     10  C   UNL     1      31.246  13.374   1.972  0.00  0.00    +0.171 C 
ATOM     11  O   UNL     1      29.846  13.265   2.209  0.00  0.00    -0.343 OA
ATOM     12  C   UNL     1      29.254  12.272   2.993  0.00  0.00    +0.220 C 
ATOM     13  C   UNL     1      29.932  12.151   4.368  0.00  0.00    +0.076 C 
ATOM     14  C   UNL     1      31.440  11.972   4.127  0.00  0.00    +0.177 C 
ATOM     15  O   UNL     1      32.112  11.815   5.369  0.00  0.00    -0.221 OA
ATOM     16  C   UNL     1      32.004  13.187   3.327  0.00  0.00    +0.155 C 
BRANCH  16  17
ATOM     17  N   UNL     1      33.438  13.024   3.102  0.00  0.00    -0.202 NA
ATOM     18  C   UNL     1      34.480  13.755   3.575  0.00  0.00    +0.242 C 
ATOM     19  C   UNL     1      35.871  13.196   3.429  0.00  0.00    +0.096 C 
ATOM     20  O   UNL     1      34.266  14.843   4.107  0.00  0.00    -0.273 OA
ENDBRANCH  16  17
BRANCH  12  21
ATOM     21  C   UNL     1      29.156  10.832   2.247  0.00  0.00    +0.391 C 
ATOM     22  O   UNL     1      29.023   9.933   3.241  0.00  0.00    -0.243 OA
ATOM     23  O   UNL     1      28.943  11.100   0.952  0.00  0.00    -0.243 OA
ENDBRANCH  12  21
ENDBRANCH   8  10
ENDBRANCH   6   8
ENDBRANCH   5   6
ENDBRANCH   2   5
BRANCH   1  24
ATOM     24  O   UNL     1      27.309  16.193  -2.242  0.00  0.00    -0.450 OA
BRANCH  24  25
ATOM     25  C   UNL     1      26.453  16.733  -3.221  0.00  0.00    +0.240 C 
BRANCH  25  26
ATOM     26  C   UNL     1      26.009  15.803  -4.367  0.00  0.00    +0.100 C 
BRANCH  26  28
ATOM     27  N   UNL     1      23.978  14.579  -5.090  0.00  0.00    -0.134 NA
ATOM     28  C   UNL     1      24.621  15.355  -4.159  0.00  0.00    +0.086 A 
ATOM     29  C   UNL     1      23.767  15.593  -3.108  0.00  0.00    +0.136 A 
ATOM     30  N   UNL     1      22.613  14.963  -3.468  0.00  0.00    -0.226 N 
ATOM     31  N   UNL     1      22.751  14.334  -4.651  0.00  0.00    -0.063 NA
BRANCH  30  32
ATOM     32  C   UNL     1      21.364  14.869  -2.733  0.00  0.00    +0.305 C 
BRANCH  32  33
ATOM     33  O   UNL     1      21.627  14.363  -1.426  0.00  0.00    -0.353 OA
BRANCH  33  34
ATOM     34  C   UNL     1      20.519  13.639  -0.909  0.00  0.00    +0.197 C 
BRANCH  34  35
ATOM     35  C   UNL     1      21.053  12.381  -0.281  0.00  0.00    -0.022 A 
ATOM     36  C   UNL     1      21.241  12.301   1.106  0.00  0.00    +0.006 A 
ATOM     37  C   UNL     1      21.774  11.148   1.684  0.00  0.00    +0.000 A 
ATOM     38  C   UNL     1      22.132  10.067   0.882  0.00  0.00    +0.000 A 
ATOM     39  C   UNL     1      21.961  10.138  -0.500  0.00  0.00    +0.000 A 
ATOM     40  C   UNL     1      21.428  11.291  -1.080  0.00  0.00    +0.006 A 
ENDBRANCH  34  35
ENDBRANCH  33  34
ENDBRANCH  32  33
ENDBRANCH  30  32
ENDBRANCH  26  28
ENDBRANCH  25  26
ENDBRANCH  24  25
ENDBRANCH   1  24
TORSDOF 14
