REMARK VINA RESULT:    -6.225      1.924      3.269
REMARK INTER + INTRA:         -16.407
REMARK INTER:                 -13.859
REMARK INTRA:                  -2.548
REMARK UNBOUND:                -2.358
REMARK  Name = lig_assembled_30.pdb
REMARK  22 active torsions:
REMARK  status: ('A' for Active; 'I' for Inactive)
REMARK    1  A    between atoms: _2  and  _8
REMARK    2  A    between atoms: _4  and  _17
REMARK    3  A    between atoms: _4  and  _18
REMARK    4  A    between atoms: _5  and  _6
REMARK    5  A    between atoms: _5  and  _20
REMARK    6  A    between atoms: _8  and  _9
REMARK    7  A    between atoms: _9  and  _10
REMARK    8  A    between atoms: _10  and  _11
REMARK    9  A    between atoms: _11  and  _12
REMARK   10  A    between atoms: _12  and  _13
REMARK   11  A    between atoms: _13  and  _14
REMARK   12  A    between atoms: _14  and  _15
REMARK   13  A    between atoms: _15  and  _16
REMARK   14  A    between atoms: _16  and  _17
REMARK   15  A    between atoms: _20  and  _22
REMARK   16  A    between atoms: _21  and  _26
REMARK   17  A    between atoms: _22  and  _25
REMARK   18  A    between atoms: _30  and  _40
REMARK   19  A    between atoms: _32  and  _33
REMARK   20  A    between atoms: _34  and  _36
REMARK   21  A    between atoms: _36  and  _38
REMARK   22  A    between atoms: _38  and  _40
REMARK                            x       y       z     vdW  Elec       q    Type
REMARK                         _______ _______ _______ _____ _____    ______ ____
ROOT
ATOM      1  C   UNL     1      27.833  17.381  -0.932  0.00  0.00    +0.400 C 
ATOM      2  N   UNL     1      28.516  16.504  -0.123  0.00  0.00    -0.278 N 
ATOM      3  H   UNL     1      28.741  17.090   0.742  0.00  0.00    +0.152 HD
ATOM      4  O   UNL     1      27.497  18.464  -0.459  0.00  0.00    -0.226 OA
ENDROOT
BRANCH   1   5
ATOM      5  O   UNL     1      27.634  16.983  -2.146  0.00  0.00    -0.450 OA
BRANCH   5   6
ATOM      6  C   UNL     1      26.819  17.294  -3.252  0.00  0.00    +0.240 C 
BRANCH   6   7
ATOM      7  C   UNL     1      26.451  16.145  -4.209  0.00  0.00    +0.100 C 
BRANCH   7   9
ATOM      8  N   UNL     1      24.719  15.642  -2.513  0.00  0.00    -0.134 NA
ATOM      9  C   UNL     1      25.179  15.524  -3.799  0.00  0.00    +0.086 A 
ATOM     10  C   UNL     1      24.283  14.775  -4.531  0.00  0.00    +0.133 A 
ATOM     11  N   UNL     1      23.305  14.471  -3.634  0.00  0.00    -0.251 N 
ATOM     12  N   UNL     1      23.569  14.989  -2.423  0.00  0.00    -0.065 NA
BRANCH  11  13
ATOM     13  C   UNL     1      22.125  13.661  -3.846  0.00  0.00    +0.145 C 
BRANCH  13  14
ATOM     14  C   UNL     1      20.911  14.262  -3.147  0.00  0.00    +0.023 C 
BRANCH  14  15
ATOM     15  C   UNL     1      20.260  13.272  -2.182  0.00  0.00    +0.002 C 
BRANCH  15  16
ATOM     16  C   UNL     1      20.588  13.652  -0.738  0.00  0.00    +0.000 C 
BRANCH  16  17
ATOM     17  C   UNL     1      20.967  12.432   0.097  0.00  0.00    +0.000 C 
BRANCH  17  18
ATOM     18  C   UNL     1      21.626  11.362  -0.776  0.00  0.00    +0.000 C 
BRANCH  18  19
ATOM     19  C   UNL     1      23.147  11.480  -0.728  0.00  0.00    +0.000 C 
BRANCH  19  20
ATOM     20  C   UNL     1      23.647  11.738   0.694  0.00  0.00    +0.001 C 
BRANCH  20  21
ATOM     21  C   UNL     1      24.406  10.521   1.222  0.00  0.00    +0.011 C 
BRANCH  21  22
ATOM     22  C   UNL     1      23.865  10.055   2.571  0.00  0.00    +0.120 C 
BRANCH  22  23
ATOM     23  C   UNL     1      22.364   9.877   2.533  0.00  0.00    +0.305 C 
ATOM     24  O   UNL     1      21.769   8.998   1.931  0.00  0.00    -0.251 OA
BRANCH  23  25
ATOM     25  O   UNL     1      21.716  10.819   3.256  0.00  0.00    -0.481 OA
ATOM     26  H   UNL     1      20.821  11.023   2.923  0.00  0.00    +0.295 HD
ENDBRANCH  23  25
ENDBRANCH  22  23
ENDBRANCH  21  22
ENDBRANCH  20  21
ENDBRANCH  19  20
ENDBRANCH  18  19
ENDBRANCH  17  18
ENDBRANCH  16  17
ENDBRANCH  15  16
ENDBRANCH  14  15
ENDBRANCH  13  14
ENDBRANCH  11  13
ENDBRANCH   7   9
ENDBRANCH   6   7
ENDBRANCH   5   6
ENDBRANCH   1   5
BRANCH   2  27
ATOM     27  C   UNL     1      29.047  15.159   0.086  0.00  0.00    +0.152 C 
BRANCH  27  28
ATOM     28  C   UNL     1      30.582  15.042   0.178  0.00  0.00    +0.193 C 
ATOM     29  O   UNL     1      30.979  15.721   1.389  0.00  0.00    -0.219 OA
BRANCH  28  30
ATOM     30  C   UNL     1      31.184  13.626   0.315  0.00  0.00    +0.212 C 
ATOM     31  O   UNL     1      32.178  13.403  -0.699  0.00  0.00    -0.218 OA
BRANCH  30  32
ATOM     32  C   UNL     1      31.834  13.357   1.725  0.00  0.00    +0.171 C 
ATOM     33  O   UNL     1      33.197  12.956   1.633  0.00  0.00    -0.343 OA
ATOM     34  C   UNL     1      33.936  12.426   2.694  0.00  0.00    +0.220 C 
ATOM     35  C   UNL     1      33.194  11.268   3.383  0.00  0.00    +0.076 C 
ATOM     36  C   UNL     1      31.793  11.776   3.761  0.00  0.00    +0.177 C 
ATOM     37  O   UNL     1      31.077  10.753   4.439  0.00  0.00    -0.221 OA
ATOM     38  C   UNL     1      31.031  12.250   2.485  0.00  0.00    +0.155 C 
BRANCH  38  39
ATOM     39  N   UNL     1      29.696  12.727   2.838  0.00  0.00    -0.202 NA
ATOM     40  C   UNL     1      28.480  12.282   2.432  0.00  0.00    +0.242 C 
ATOM     41  C   UNL     1      27.259  12.757   3.176  0.00  0.00    +0.096 C 
ATOM     42  O   UNL     1      28.403  11.510   1.478  0.00  0.00    -0.273 OA
ENDBRANCH  38  39
BRANCH  34  43
ATOM     43  C   UNL     1      34.423  13.546   3.766  0.00  0.00    +0.391 C 
ATOM     44  O   UNL     1      33.889  14.702   3.328  0.00  0.00    -0.243 OA
ATOM     45  O   UNL     1      34.902  12.868   4.816  0.00  0.00    -0.243 OA
ENDBRANCH  34  43
ENDBRANCH  30  32
ENDBRANCH  28  30
ENDBRANCH  27  28
ENDBRANCH   2  27
TORSDOF 22
