REMARK VINA RESULT:    -5.729      2.056      3.376
REMARK INTER + INTRA:         -12.338
REMARK INTER:                 -10.735
REMARK INTRA:                  -1.602
REMARK UNBOUND:                -2.422
REMARK  Name = lig_assembled_53.pdb
REMARK  13 active torsions:
REMARK  status: ('A' for Active; 'I' for Inactive)
REMARK    1  A    between atoms: _2  and  _8
REMARK    2  A    between atoms: _4  and  _8
REMARK    3  A    between atoms: _4  and  _9
REMARK    4  A    between atoms: _5  and  _6
REMARK    5  A    between atoms: _5  and  _11
REMARK    6  A    between atoms: _11  and  _13
REMARK    7  A    between atoms: _12  and  _17
REMARK    8  A    between atoms: _13  and  _16
REMARK    9  A    between atoms: _21  and  _31
REMARK   10  A    between atoms: _23  and  _24
REMARK   11  A    between atoms: _25  and  _27
REMARK   12  A    between atoms: _27  and  _29
REMARK   13  A    between atoms: _29  and  _31
REMARK                            x       y       z     vdW  Elec       q    Type
REMARK                         _______ _______ _______ _____ _____    ______ ____
ROOT
ATOM      1  C   UNL     1      28.997  15.053  -0.025  0.00  0.00    +0.152 C 
ENDROOT
BRANCH   1   3
ATOM      2  C   UNL     1      27.908  17.369  -0.970  0.00  0.00    +0.400 C 
ATOM      3  N   UNL     1      28.516  16.423  -0.179  0.00  0.00    -0.278 N 
ATOM      4  H   UNL     1      28.702  16.947   0.734  0.00  0.00    +0.152 HD
ATOM      5  O   UNL     1      27.572  18.430  -0.450  0.00  0.00    -0.226 OA
BRANCH   2   6
ATOM      6  O   UNL     1      27.774  17.053  -2.217  0.00  0.00    -0.450 OA
BRANCH   6   7
ATOM      7  C   UNL     1      26.936  17.350  -3.309  0.00  0.00    +0.240 C 
BRANCH   7   8
ATOM      8  C   UNL     1      26.573  16.195  -4.262  0.00  0.00    +0.100 C 
BRANCH   8  10
ATOM      9  N   UNL     1      24.539  14.839  -4.658  0.00  0.00    -0.134 NA
ATOM     10  C   UNL     1      25.366  15.493  -3.786  0.00  0.00    +0.086 A 
ATOM     11  C   UNL     1      24.869  15.362  -2.510  0.00  0.00    +0.134 A 
ATOM     12  N   UNL     1      23.704  14.676  -2.675  0.00  0.00    -0.241 N 
ATOM     13  N   UNL     1      23.534  14.322  -3.964  0.00  0.00    -0.065 NA
BRANCH  12  14
ATOM     14  C   UNL     1      22.769  14.167  -1.693  0.00  0.00    +0.265 C 
BRANCH  14  15
ATOM     15  C   UNL     1      21.319  14.453  -1.975  0.00  0.00    +0.326 C 
ATOM     16  O   UNL     1      20.370  13.719  -1.746  0.00  0.00    -0.249 OA
BRANCH  15  17
ATOM     17  O   UNL     1      21.133  15.669  -2.558  0.00  0.00    -0.479 OA
ATOM     18  H   UNL     1      21.338  15.721  -3.511  0.00  0.00    +0.295 HD
ENDBRANCH  15  17
ENDBRANCH  14  15
ENDBRANCH  12  14
ENDBRANCH   8  10
ENDBRANCH   7   8
ENDBRANCH   6   7
ENDBRANCH   2   6
ENDBRANCH   1   3
BRANCH   1  19
ATOM     19  C   UNL     1      30.525  14.879   0.102  0.00  0.00    +0.193 C 
ATOM     20  O   UNL     1      30.949  15.723   1.195  0.00  0.00    -0.219 OA
BRANCH  19  21
ATOM     21  C   UNL     1      31.057  13.476   0.469  0.00  0.00    +0.212 C 
ATOM     22  O   UNL     1      32.169  13.126  -0.371  0.00  0.00    -0.218 OA
BRANCH  21  23
ATOM     23  C   UNL     1      31.505  13.353   1.975  0.00  0.00    +0.171 C 
ATOM     24  O   UNL     1      32.894  13.070   2.113  0.00  0.00    -0.343 OA
ATOM     25  C   UNL     1      33.503  12.674   3.305  0.00  0.00    +0.220 C 
ATOM     26  C   UNL     1      32.760  11.497   3.962  0.00  0.00    +0.076 C 
ATOM     27  C   UNL     1      31.281  11.900   4.093  0.00  0.00    +0.177 C 
ATOM     28  O   UNL     1      30.554  10.860   4.732  0.00  0.00    -0.221 OA
ATOM     29  C   UNL     1      30.687  12.226   2.688  0.00  0.00    +0.155 C 
BRANCH  29  30
ATOM     30  N   UNL     1      29.280  12.602   2.807  0.00  0.00    -0.202 NA
ATOM     31  C   UNL     1      28.181  12.039   2.245  0.00  0.00    +0.242 C 
ATOM     32  C   UNL     1      26.825  12.440   2.767  0.00  0.00    +0.096 C 
ATOM     33  O   UNL     1      28.314  11.224   1.335  0.00  0.00    -0.273 OA
ENDBRANCH  29  30
BRANCH  25  34
ATOM     34  C   UNL     1      33.732  13.895   4.352  0.00  0.00    +0.391 C 
ATOM     35  O   UNL     1      34.055  13.298   5.516  0.00  0.00    -0.243 OA
ATOM     36  O   UNL     1      33.812  15.007   3.612  0.00  0.00    -0.243 OA
ENDBRANCH  25  34
ENDBRANCH  21  23
ENDBRANCH  19  21
ENDBRANCH   1  19
TORSDOF 13
