REMARK VINA RESULT:    -7.373      2.364      3.380
REMARK INTER + INTRA:         -15.167
REMARK INTER:                 -12.634
REMARK INTRA:                  -2.533
REMARK UNBOUND:                -1.975
REMARK  Name = lig_assembled_77.pdb
REMARK  14 active torsions:
REMARK  status: ('A' for Active; 'I' for Inactive)
REMARK    1  A    between atoms: _2  and  _9
REMARK    2  A    between atoms: _3  and  _16
REMARK    3  A    between atoms: _6  and  _7
REMARK    4  A    between atoms: _6  and  _22
REMARK    5  A    between atoms: _12  and  _50
REMARK    6  A    between atoms: _13  and  _50
REMARK    7  A    between atoms: _22  and  _24
REMARK    8  A    between atoms: _23  and  _28
REMARK    9  A    between atoms: _24  and  _27
REMARK   10  A    between atoms: _32  and  _42
REMARK   11  A    between atoms: _34  and  _35
REMARK   12  A    between atoms: _36  and  _38
REMARK   13  A    between atoms: _38  and  _40
REMARK   14  A    between atoms: _40  and  _42
REMARK                            x       y       z     vdW  Elec       q    Type
REMARK                         _______ _______ _______ _____ _____    ______ ____
ROOT
ATOM      1  C   UNL     1      27.108  17.064  -3.488  0.00  0.00    +0.240 C 
ENDROOT
BRANCH   1   2
ATOM      2  C   UNL     1      27.030  17.497  -2.012  0.00  0.00    +0.100 C 
BRANCH   2   4
ATOM      3  N   UNL     1      29.176  17.938  -0.867  0.00  0.00    -0.134 NA
ATOM      4  C   UNL     1      28.228  17.047  -1.278  0.00  0.00    +0.086 A 
ATOM      5  C   UNL     1      28.603  15.781  -0.894  0.00  0.00    +0.139 A 
ATOM      6  N   UNL     1      29.799  15.949  -0.232  0.00  0.00    -0.220 N 
ATOM      7  N   UNL     1      30.131  17.263  -0.240  0.00  0.00    -0.061 NA
BRANCH   6   8
ATOM      8  C   UNL     1      30.589  14.980   0.441  0.00  0.00    +0.067 A 
ATOM      9  C   UNL     1      31.057  13.839  -0.230  0.00  0.00    +0.030 A 
ATOM     10  C   UNL     1      31.731  12.838   0.475  0.00  0.00    +0.029 A 
ATOM     11  C   UNL     1      31.937  12.979   1.849  0.00  0.00    +0.094 A 
ATOM     12  C   UNL     1      31.558  14.150   2.509  0.00  0.00    +0.029 A 
ATOM     13  C   UNL     1      30.872  15.145   1.807  0.00  0.00    +0.030 A 
BRANCH  11  14
ATOM     14  S   UNL     1      32.733  11.670   2.759  0.00  0.00    +0.025 S 
ATOM     15  O   UNL     1      31.986  10.460   2.462  0.00  0.00    -0.164 OA
ATOM     16  O   UNL     1      34.154  11.750   2.481  0.00  0.00    -0.164 OA
BRANCH  14  17
ATOM     17  C   UNL     1      32.545  11.983   4.502  0.00  0.00    +0.094 A 
ATOM     18  C   UNL     1      33.574  12.566   5.243  0.00  0.00    +0.029 A 
ATOM     19  C   UNL     1      33.416  12.741   6.623  0.00  0.00    +0.024 A 
ATOM     20  C   UNL     1      32.223  12.383   7.265  0.00  0.00    +0.025 A 
ATOM     21  C   UNL     1      31.216  11.773   6.512  0.00  0.00    +0.024 A 
ATOM     22  C   UNL     1      31.361  11.591   5.133  0.00  0.00    +0.029 A 
BRANCH  20  23
ATOM     23  N   UNL     1      32.142  12.403   8.660  0.00  0.00    -0.358 N 
ATOM     24  H   UNL     1      32.636  11.650   9.126  0.00  0.00    +0.142 HD
ATOM     25  H   UNL     1      32.330  13.309   9.077  0.00  0.00    +0.142 HD
ENDBRANCH  20  23
ENDBRANCH  14  17
ENDBRANCH  11  14
ENDBRANCH   6   8
ENDBRANCH   2   4
ENDBRANCH   1   2
BRANCH   1  26
ATOM     26  O   UNL     1      25.937  16.546  -4.076  0.00  0.00    -0.450 OA
BRANCH  26  27
ATOM     27  C   UNL     1      25.450  15.410  -4.453  0.00  0.00    +0.400 C 
ATOM     28  N   UNL     1      25.259  14.484  -3.455  0.00  0.00    -0.278 N 
ATOM     29  H   UNL     1      24.682  13.721  -3.932  0.00  0.00    +0.152 HD
ATOM     30  O   UNL     1      25.122  15.105  -5.597  0.00  0.00    -0.226 OA
BRANCH  28  31
ATOM     31  C   UNL     1      25.496  14.078  -2.072  0.00  0.00    +0.152 C 
BRANCH  31  32
ATOM     32  C   UNL     1      24.302  13.435  -1.337  0.00  0.00    +0.193 C 
ATOM     33  O   UNL     1      23.136  14.218  -1.676  0.00  0.00    -0.219 OA
BRANCH  32  34
ATOM     34  C   UNL     1      23.920  11.989  -1.723  0.00  0.00    +0.212 C 
ATOM     35  O   UNL     1      24.899  11.432  -2.615  0.00  0.00    -0.218 OA
BRANCH  34  36
ATOM     36  C   UNL     1      23.768  11.031  -0.480  0.00  0.00    +0.171 C 
ATOM     37  O   UNL     1      22.464  11.075   0.090  0.00  0.00    -0.343 OA
ATOM     38  C   UNL     1      22.125  10.523   1.327  0.00  0.00    +0.220 C 
ATOM     39  C   UNL     1      23.092  10.971   2.436  0.00  0.00    +0.076 C 
ATOM     40  C   UNL     1      24.520  10.661   1.958  0.00  0.00    +0.177 C 
ATOM     41  O   UNL     1      25.455  11.020   2.966  0.00  0.00    -0.221 OA
ATOM     42  C   UNL     1      24.814  11.408   0.620  0.00  0.00    +0.155 C 
BRANCH  42  43
ATOM     43  N   UNL     1      26.172  11.122   0.166  0.00  0.00    -0.202 NA
ATOM     44  C   UNL     1      27.312  11.840   0.331  0.00  0.00    +0.242 C 
ATOM     45  C   UNL     1      28.628  11.175   0.020  0.00  0.00    +0.096 C 
ATOM     46  O   UNL     1      27.246  13.002   0.728  0.00  0.00    -0.273 OA
ENDBRANCH  42  43
BRANCH  38  47
ATOM     47  C   UNL     1      21.965   8.906   1.292  0.00  0.00    +0.391 C 
ATOM     48  O   UNL     1      21.771   8.548   2.576  0.00  0.00    -0.243 OA
ATOM     49  O   UNL     1      21.785   8.580   0.006  0.00  0.00    -0.243 OA
ENDBRANCH  38  47
ENDBRANCH  34  36
ENDBRANCH  32  34
ENDBRANCH  31  32
ENDBRANCH  28  31
ENDBRANCH  26  27
ENDBRANCH   1  26
TORSDOF 14
