REMARK VINA RESULT:    -5.930      1.626      3.874
REMARK INTER + INTRA:         -13.096
REMARK INTER:                 -11.265
REMARK INTRA:                  -1.831
REMARK UNBOUND:                -1.966
REMARK  Name = lig_assembled_17.pdb
REMARK  17 active torsions:
REMARK  status: ('A' for Active; 'I' for Inactive)
REMARK    1  A    between atoms: _2  and  _9
REMARK    2  A    between atoms: _3  and  _10
REMARK    3  A    between atoms: _3  and  _11
REMARK    4  A    between atoms: _3  and  _13
REMARK    5  A    between atoms: _5  and  _13
REMARK    6  A    between atoms: _6  and  _7
REMARK    7  A    between atoms: _6  and  _14
REMARK    8  A    between atoms: _9  and  _10
REMARK    9  A    between atoms: _11  and  _12
REMARK   10  A    between atoms: _14  and  _16
REMARK   11  A    between atoms: _15  and  _20
REMARK   12  A    between atoms: _16  and  _19
REMARK   13  A    between atoms: _24  and  _34
REMARK   14  A    between atoms: _26  and  _27
REMARK   15  A    between atoms: _28  and  _30
REMARK   16  A    between atoms: _30  and  _32
REMARK   17  A    between atoms: _32  and  _34
REMARK                            x       y       z     vdW  Elec       q    Type
REMARK                         _______ _______ _______ _____ _____    ______ ____
ROOT
ATOM      1  C   UNL     1      27.850  17.467  -0.709  0.00  0.00    +0.400 C 
ATOM      2  N   UNL     1      28.478  16.482   0.017  0.00  0.00    -0.278 N 
ATOM      3  H   UNL     1      28.633  16.938   0.970  0.00  0.00    +0.152 HD
ATOM      4  O   UNL     1      27.473  18.473  -0.114  0.00  0.00    -0.226 OA
ENDROOT
BRANCH   2   5
ATOM      5  C   UNL     1      29.001  15.119   0.072  0.00  0.00    +0.152 C 
BRANCH   5   6
ATOM      6  C   UNL     1      30.378  14.893  -0.586  0.00  0.00    +0.193 C 
ATOM      7  O   UNL     1      31.102  16.137  -0.471  0.00  0.00    -0.219 OA
BRANCH   6   8
ATOM      8  C   UNL     1      31.312  13.842   0.054  0.00  0.00    +0.212 C 
ATOM      9  O   UNL     1      30.624  12.591   0.215  0.00  0.00    -0.218 OA
BRANCH   8  10
ATOM     10  C   UNL     1      32.628  13.590  -0.775  0.00  0.00    +0.171 C 
ATOM     11  O   UNL     1      32.391  12.854  -1.971  0.00  0.00    -0.343 OA
ATOM     12  C   UNL     1      33.394  12.287  -2.760  0.00  0.00    +0.220 C 
ATOM     13  C   UNL     1      34.368  11.441  -1.923  0.00  0.00    +0.076 C 
ATOM     14  C   UNL     1      34.873  12.323  -0.769  0.00  0.00    +0.177 C 
ATOM     15  O   UNL     1      35.811  11.599   0.016  0.00  0.00    -0.221 OA
ATOM     16  C   UNL     1      33.672  12.817   0.096  0.00  0.00    +0.155 C 
BRANCH  16  17
ATOM     17  N   UNL     1      34.148  13.649   1.197  0.00  0.00    -0.202 NA
ATOM     18  C   UNL     1      34.031  13.466   2.537  0.00  0.00    +0.242 C 
ATOM     19  C   UNL     1      34.868  14.322   3.452  0.00  0.00    +0.096 C 
ATOM     20  O   UNL     1      33.256  12.615   2.968  0.00  0.00    -0.273 OA
ENDBRANCH  16  17
BRANCH  12  21
ATOM     21  C   UNL     1      34.182  13.369  -3.681  0.00  0.00    +0.391 C 
ATOM     22  O   UNL     1      35.338  12.764  -4.016  0.00  0.00    -0.243 OA
ATOM     23  O   UNL     1      33.282  14.306  -4.003  0.00  0.00    -0.243 OA
ENDBRANCH  12  21
ENDBRANCH   8  10
ENDBRANCH   6   8
ENDBRANCH   5   6
ENDBRANCH   2   5
BRANCH   1  24
ATOM     24  O   UNL     1      27.744  17.245  -1.978  0.00  0.00    -0.450 OA
BRANCH  24  25
ATOM     25  C   UNL     1      26.773  17.309  -2.996  0.00  0.00    +0.240 C 
BRANCH  25  26
ATOM     26  C   UNL     1      26.665  16.106  -3.952  0.00  0.00    +0.100 C 
BRANCH  26  28
ATOM     27  N   UNL     1      27.553  13.998  -3.016  0.00  0.00    -0.134 NA
ATOM     28  C   UNL     1      26.501  14.859  -3.185  0.00  0.00    +0.086 A 
ATOM     29  C   UNL     1      25.396  14.353  -2.536  0.00  0.00    +0.133 A 
ATOM     30  N   UNL     1      25.847  13.196  -1.980  0.00  0.00    -0.250 N 
ATOM     31  N   UNL     1      27.140  12.978  -2.277  0.00  0.00    -0.065 NA
BRANCH  30  32
ATOM     32  C   UNL     1      25.137  12.271  -1.121  0.00  0.00    +0.160 C 
BRANCH  32  33
ATOM     33  C   UNL     1      23.672  12.139  -1.563  0.00  0.00    +0.107 C 
BRANCH  33  34
ATOM     34  N   UNL     1      22.669  12.809  -0.700  0.00  0.00    -0.301 NA
BRANCH  34  35
ATOM     35  C   UNL     1      22.172  11.836   0.296  0.00  0.00    +0.081 C 
ATOM     36  C   UNL     1      21.921  10.433  -0.249  0.00  0.00    +0.020 C 
ENDBRANCH  34  35
BRANCH  34  37
ATOM     37  C   UNL     1      21.592  13.468  -1.460  0.00  0.00    +0.081 C 
ATOM     38  C   UNL     1      20.268  13.671  -0.728  0.00  0.00    +0.020 C 
ENDBRANCH  34  37
ENDBRANCH  33  34
ENDBRANCH  32  33
ENDBRANCH  30  32
ENDBRANCH  26  28
ENDBRANCH  25  26
ENDBRANCH  24  25
ENDBRANCH   1  24
TORSDOF 15
