REMARK VINA RESULT:    -6.855      1.828      4.919
REMARK INTER + INTRA:         -13.209
REMARK INTER:                 -10.441
REMARK INTRA:                  -2.768
REMARK UNBOUND:                -1.544
REMARK  Name = lig_assembled_69.pdb
REMARK  13 active torsions:
REMARK  status: ('A' for Active; 'I' for Inactive)
REMARK    1  A    between atoms: _2  and  _8
REMARK    2  A    between atoms: _5  and  _6
REMARK    3  A    between atoms: _5  and  _16
REMARK    4  A    between atoms: _10  and  _15
REMARK    5  A    between atoms: _13  and  _14
REMARK    6  A    between atoms: _16  and  _18
REMARK    7  A    between atoms: _17  and  _22
REMARK    8  A    between atoms: _18  and  _21
REMARK    9  A    between atoms: _26  and  _36
REMARK   10  A    between atoms: _28  and  _29
REMARK   11  A    between atoms: _30  and  _32
REMARK   12  A    between atoms: _32  and  _34
REMARK   13  A    between atoms: _34  and  _36
REMARK                            x       y       z     vdW  Elec       q    Type
REMARK                         _______ _______ _______ _____ _____    ______ ____
ROOT
ATOM      1  C   UNL     1      29.982  12.402   2.429  0.00  0.00    +0.400 C 
ATOM      2  N   UNL     1      29.625  11.592   1.377  0.00  0.00    -0.278 N 
ATOM      3  H   UNL     1      29.947  10.623   1.691  0.00  0.00    +0.152 HD
ATOM      4  O   UNL     1      30.372  11.868   3.465  0.00  0.00    -0.226 OA
ENDROOT
BRANCH   1   5
ATOM      5  O   UNL     1      29.900  13.673   2.210  0.00  0.00    -0.450 OA
BRANCH   5   6
ATOM      6  C   UNL     1      30.745  14.794   2.094  0.00  0.00    +0.240 C 
BRANCH   6   7
ATOM      7  C   UNL     1      31.218  15.185   0.681  0.00  0.00    +0.100 C 
BRANCH   7   9
ATOM      8  N   UNL     1      30.039  17.069  -0.399  0.00  0.00    -0.134 NA
ATOM      9  C   UNL     1      30.096  15.734  -0.102  0.00  0.00    +0.086 A 
ATOM     10  C   UNL     1      28.991  15.106  -0.631  0.00  0.00    +0.134 A 
ATOM     11  N   UNL     1      28.294  16.116  -1.227  0.00  0.00    -0.248 N 
ATOM     12  N   UNL     1      28.927  17.293  -1.083  0.00  0.00    -0.065 NA
BRANCH  11  13
ATOM     13  C   UNL     1      26.999  16.040  -1.901  0.00  0.00    +0.114 C 
ATOM     14  C   UNL     1      26.579  14.587  -2.151  0.00  0.00    +0.062 C 
ATOM     15  C   UNL     1      27.133  13.931  -3.418  0.00  0.00    +0.139 C 
ATOM     16  C   UNL     1      26.583  14.428  -4.725  0.00  0.00    +0.002 C 
ATOM     17  C   UNL     1      25.980  15.598  -4.991  0.00  0.00    +0.002 C 
ATOM     18  C   UNL     1      25.828  16.780  -4.083  0.00  0.00    +0.139 C 
ATOM     19  C   UNL     1      26.985  16.984  -3.112  0.00  0.00    +0.062 C 
BRANCH  18  20
ATOM     20  O   UNL     1      24.601  16.676  -3.378  0.00  0.00    -0.388 OA
ATOM     21  H   UNL     1      24.798  16.795  -2.432  0.00  0.00    +0.210 HD
ENDBRANCH  18  20
BRANCH  15  22
ATOM     22  O   UNL     1      26.781  12.543  -3.358  0.00  0.00    -0.388 OA
ATOM     23  H   UNL     1      25.813  12.486  -3.430  0.00  0.00    +0.210 HD
ENDBRANCH  15  22
ENDBRANCH  11  13
ENDBRANCH   7   9
ENDBRANCH   6   7
ENDBRANCH   5   6
ENDBRANCH   1   5
BRANCH   2  24
ATOM     24  C   UNL     1      29.006  11.463   0.061  0.00  0.00    +0.152 C 
BRANCH  24  25
ATOM     25  C   UNL     1      27.639  10.750   0.020  0.00  0.00    +0.193 C 
ATOM     26  O   UNL     1      27.834   9.445   0.609  0.00  0.00    -0.219 OA
BRANCH  25  27
ATOM     27  C   UNL     1      26.483  11.371   0.834  0.00  0.00    +0.212 C 
ATOM     28  O   UNL     1      26.694  12.782   1.009  0.00  0.00    -0.218 OA
BRANCH  27  29
ATOM     29  C   UNL     1      25.067  11.151   0.177  0.00  0.00    +0.171 C 
ATOM     30  O   UNL     1      24.472  12.368  -0.263  0.00  0.00    -0.343 OA
ATOM     31  C   UNL     1      23.137  12.496  -0.653  0.00  0.00    +0.220 C 
ATOM     32  C   UNL     1      22.177  11.903   0.393  0.00  0.00    +0.076 C 
ATOM     33  C   UNL     1      22.634  10.462   0.675  0.00  0.00    +0.177 C 
ATOM     34  O   UNL     1      21.754   9.853   1.609  0.00  0.00    -0.221 OA
ATOM     35  C   UNL     1      24.105  10.456   1.195  0.00  0.00    +0.155 C 
BRANCH  35  36
ATOM     36  N   UNL     1      24.540   9.089   1.471  0.00  0.00    -0.202 NA
ATOM     37  C   UNL     1      24.901   8.514   2.647  0.00  0.00    +0.242 C 
ATOM     38  C   UNL     1      25.022   7.014   2.701  0.00  0.00    +0.096 C 
ATOM     39  O   UNL     1      25.117   9.222   3.628  0.00  0.00    -0.273 OA
ENDBRANCH  35  36
BRANCH  31  40
ATOM     40  C   UNL     1      22.838  11.909  -2.138  0.00  0.00    +0.391 C 
ATOM     41  O   UNL     1      21.496  11.829  -2.216  0.00  0.00    -0.243 OA
ATOM     42  O   UNL     1      23.989  12.012  -2.815  0.00  0.00    -0.243 OA
ENDBRANCH  31  40
ENDBRANCH  27  29
ENDBRANCH  25  27
ENDBRANCH  24  25
ENDBRANCH   2  24
TORSDOF 13
