REMARK VINA RESULT:    -6.928      1.186      1.648
REMARK INTER + INTRA:         -14.385
REMARK INTER:                 -12.645
REMARK INTRA:                  -1.740
REMARK UNBOUND:                -2.596
REMARK  Name = lig_assembled_4.pdb
REMARK  14 active torsions:
REMARK  status: ('A' for Active; 'I' for Inactive)
REMARK    1  A    between atoms: _2  and  _8
REMARK    2  A    between atoms: _5  and  _6
REMARK    3  A    between atoms: _5  and  _16
REMARK    4  A    between atoms: _9  and  _10
REMARK    5  A    between atoms: _10  and  _11
REMARK    6  A    between atoms: _10  and  _12
REMARK    7  A    between atoms: _16  and  _18
REMARK    8  A    between atoms: _17  and  _22
REMARK    9  A    between atoms: _18  and  _21
REMARK   10  A    between atoms: _26  and  _36
REMARK   11  A    between atoms: _28  and  _29
REMARK   12  A    between atoms: _30  and  _32
REMARK   13  A    between atoms: _32  and  _34
REMARK   14  A    between atoms: _34  and  _36
REMARK                            x       y       z     vdW  Elec       q    Type
REMARK                         _______ _______ _______ _____ _____    ______ ____
ROOT
ATOM      1  C   UNL     1      28.504  16.791  -0.470  0.00  0.00    +0.400 C 
ATOM      2  N   UNL     1      28.699  15.849   0.513  0.00  0.00    -0.278 N 
ATOM      3  H   UNL     1      29.068  16.424   1.336  0.00  0.00    +0.152 HD
ATOM      4  O   UNL     1      28.601  17.977  -0.164  0.00  0.00    -0.226 OA
ENDROOT
BRANCH   2   5
ATOM      5  C   UNL     1      28.615  14.453   0.933  0.00  0.00    +0.152 C 
BRANCH   5   6
ATOM      6  C   UNL     1      29.822  13.907   1.722  0.00  0.00    +0.193 C 
ATOM      7  O   UNL     1      30.019  12.543   1.289  0.00  0.00    -0.219 OA
BRANCH   6   8
ATOM      8  C   UNL     1      31.191  14.584   1.494  0.00  0.00    +0.212 C 
ATOM      9  O   UNL     1      31.226  15.873   2.129  0.00  0.00    -0.218 OA
BRANCH   8  10
ATOM     10  C   UNL     1      32.407  13.730   2.022  0.00  0.00    +0.171 C 
ATOM     11  O   UNL     1      32.918  14.212   3.260  0.00  0.00    -0.343 OA
ATOM     12  C   UNL     1      34.127  13.803   3.827  0.00  0.00    +0.220 C 
ATOM     13  C   UNL     1      35.288  13.892   2.820  0.00  0.00    +0.076 C 
ATOM     14  C   UNL     1      34.868  13.118   1.560  0.00  0.00    +0.177 C 
ATOM     15  O   UNL     1      35.923  13.135   0.610  0.00  0.00    -0.221 OA
ATOM     16  C   UNL     1      33.560  13.727   0.965  0.00  0.00    +0.155 C 
BRANCH  16  17
ATOM     17  N   UNL     1      33.161  12.998  -0.236  0.00  0.00    -0.202 NA
ATOM     18  C   UNL     1      32.900  13.461  -1.485  0.00  0.00    +0.242 C 
ATOM     19  C   UNL     1      32.798  12.464  -2.610  0.00  0.00    +0.096 C 
ATOM     20  O   UNL     1      32.756  14.668  -1.668  0.00  0.00    -0.273 OA
ENDBRANCH  16  17
BRANCH  12  21
ATOM     21  C   UNL     1      34.052  12.337   4.523  0.00  0.00    +0.391 C 
ATOM     22  O   UNL     1      35.337  11.974   4.708  0.00  0.00    -0.243 OA
ATOM     23  O   UNL     1      32.783  12.179   4.917  0.00  0.00    -0.243 OA
ENDBRANCH  12  21
ENDBRANCH   8  10
ENDBRANCH   6   8
ENDBRANCH   5   6
ENDBRANCH   2   5
BRANCH   1  24
ATOM     24  O   UNL     1      28.265  16.325  -1.651  0.00  0.00    -0.450 OA
BRANCH  24  25
ATOM     25  C   UNL     1      27.270  15.593  -2.330  0.00  0.00    +0.240 C 
BRANCH  25  26
ATOM     26  C   UNL     1      26.197  16.392  -3.094  0.00  0.00    +0.100 C 
BRANCH  26  28
ATOM     27  N   UNL     1      24.868  14.614  -4.172  0.00  0.00    -0.134 NA
ATOM     28  C   UNL     1      24.962  15.599  -3.239  0.00  0.00    +0.086 A 
ATOM     29  C   UNL     1      23.765  15.701  -2.567  0.00  0.00    +0.139 A 
ATOM     30  N   UNL     1      22.915  14.833  -3.225  0.00  0.00    -0.220 N 
ATOM     31  N   UNL     1      23.628  14.139  -4.137  0.00  0.00    -0.061 NA
BRANCH  30  32
ATOM     32  C   UNL     1      21.509  14.679  -3.029  0.00  0.00    +0.070 A 
ATOM     33  C   UNL     1      20.944  13.721  -2.144  0.00  0.00    -0.019 A 
ATOM     34  C   UNL     1      19.535  13.654  -2.069  0.00  0.00    +0.006 A 
ATOM     35  C   UNL     1      18.711  14.479  -2.837  0.00  0.00    +0.000 A 
ATOM     36  C   UNL     1      19.273  15.414  -3.691  0.00  0.00    +0.002 A 
ATOM     37  C   UNL     1      20.660  15.514  -3.789  0.00  0.00    +0.028 A 
BRANCH  33  38
ATOM     38  C   UNL     1      21.762  12.757  -1.281  0.00  0.00    +0.015 C 
ATOM     39  C   UNL     1      22.168  11.447  -1.974  0.00  0.00    +0.012 C 
ATOM     40  C   UNL     1      21.007  12.446   0.015  0.00  0.00    +0.012 C 
ENDBRANCH  33  38
ENDBRANCH  30  32
ENDBRANCH  26  28
ENDBRANCH  25  26
ENDBRANCH  24  25
ENDBRANCH   1  24
TORSDOF 12
