REMARK VINA RESULT:    -7.858      2.059      4.115
REMARK INTER + INTRA:         -13.976
REMARK INTER:                 -11.961
REMARK INTRA:                  -2.015
REMARK UNBOUND:                -1.064
REMARK  Name = lig_assembled_27.pdb
REMARK  11 active torsions:
REMARK  status: ('A' for Active; 'I' for Inactive)
REMARK    1  A    between atoms: _2  and  _8
REMARK    2  A    between atoms: _5  and  _6
REMARK    3  A    between atoms: _5  and  _13
REMARK    4  A    between atoms: _13  and  _15
REMARK    5  A    between atoms: _14  and  _19
REMARK    6  A    between atoms: _15  and  _18
REMARK    7  A    between atoms: _23  and  _33
REMARK    8  A    between atoms: _25  and  _26
REMARK    9  A    between atoms: _27  and  _29
REMARK   10  A    between atoms: _29  and  _31
REMARK   11  A    between atoms: _31  and  _33
REMARK                            x       y       z     vdW  Elec       q    Type
REMARK                         _______ _______ _______ _____ _____    ______ ____
ROOT
ATOM      1  C   UNL     1      28.286  17.591  -0.475  0.00  0.00    +0.400 C 
ATOM      2  N   UNL     1      29.530  17.258   0.005  0.00  0.00    -0.278 N 
ATOM      3  H   UNL     1      29.547  17.701   0.978  0.00  0.00    +0.152 HD
ATOM      4  O   UNL     1      27.482  18.101   0.302  0.00  0.00    -0.226 OA
ENDROOT
BRANCH   1   5
ATOM      5  O   UNL     1      28.090  17.359  -1.732  0.00  0.00    -0.450 OA
BRANCH   5   6
ATOM      6  C   UNL     1      27.163  17.673  -2.745  0.00  0.00    +0.240 C 
BRANCH   6   7
ATOM      7  C   UNL     1      26.897  16.604  -3.821  0.00  0.00    +0.100 C 
BRANCH   7   9
ATOM      8  N   UNL     1      26.644  14.203  -3.277  0.00  0.00    -0.134 NA
ATOM      9  C   UNL     1      26.146  15.473  -3.246  0.00  0.00    +0.086 A 
ATOM     10  C   UNL     1      24.920  15.459  -2.621  0.00  0.00    +0.139 A 
ATOM     11  N   UNL     1      24.710  14.143  -2.276  0.00  0.00    -0.220 N 
ATOM     12  N   UNL     1      25.767  13.401  -2.687  0.00  0.00    -0.061 NA
BRANCH  11  13
ATOM     13  C   UNL     1      23.604  13.567  -1.599  0.00  0.00    +0.068 A 
ATOM     14  C   UNL     1      23.820  12.549  -0.657  0.00  0.00    +0.028 A 
ATOM     15  C   UNL     1      22.739  11.971   0.014  0.00  0.00    +0.003 A 
ATOM     16  C   UNL     1      21.440  12.404  -0.250  0.00  0.00    +0.020 A 
ATOM     17  C   UNL     1      21.227  13.416  -1.183  0.00  0.00    +0.043 A 
ATOM     18 CL   UNL     1      19.623  13.952  -1.508  0.00  0.00    -0.083 Cl
ATOM     19  C   UNL     1      22.298  14.003  -1.859  0.00  0.00    +0.047 A 
ENDBRANCH  11  13
ENDBRANCH   7   9
ENDBRANCH   6   7
ENDBRANCH   5   6
ENDBRANCH   1   5
BRANCH   2  20
ATOM     20  C   UNL     1      30.803  16.573  -0.206  0.00  0.00    +0.152 C 
BRANCH  20  21
ATOM     21  C   UNL     1      30.766  15.033  -0.138  0.00  0.00    +0.193 C 
ATOM     22  O   UNL     1      31.786  14.552  -1.040  0.00  0.00    -0.219 OA
BRANCH  21  23
ATOM     23  C   UNL     1      31.104  14.368   1.215  0.00  0.00    +0.212 C 
ATOM     24  O   UNL     1      31.264  15.365   2.238  0.00  0.00    -0.218 OA
BRANCH  23  25
ATOM     25  C   UNL     1      30.017  13.329   1.689  0.00  0.00    +0.171 C 
ATOM     26  O   UNL     1      28.701  13.874   1.687  0.00  0.00    -0.343 OA
ATOM     27  C   UNL     1      27.595  13.264   2.284  0.00  0.00    +0.220 C 
ATOM     28  C   UNL     1      27.886  12.851   3.737  0.00  0.00    +0.076 C 
ATOM     29  C   UNL     1      29.167  12.001   3.729  0.00  0.00    +0.177 C 
ATOM     30  O   UNL     1      29.460  11.559   5.047  0.00  0.00    -0.221 OA
ATOM     31  C   UNL     1      30.352  12.821   3.130  0.00  0.00    +0.155 C 
BRANCH  31  32
ATOM     32  N   UNL     1      31.573  12.020   3.127  0.00  0.00    -0.202 NA
ATOM     33  C   UNL     1      32.731  12.199   3.812  0.00  0.00    +0.242 C 
ATOM     34  C   UNL     1      33.722  11.065   3.852  0.00  0.00    +0.096 C 
ATOM     35  O   UNL     1      32.941  13.270   4.380  0.00  0.00    -0.273 OA
ENDBRANCH  31  32
BRANCH  27  36
ATOM     36  C   UNL     1      26.995  12.026   1.420  0.00  0.00    +0.391 C 
ATOM     37  O   UNL     1      26.152  11.393   2.259  0.00  0.00    -0.243 OA
ATOM     38  O   UNL     1      27.320  12.272   0.145  0.00  0.00    -0.243 OA
ENDBRANCH  27  36
ENDBRANCH  23  25
ENDBRANCH  21  23
ENDBRANCH  20  21
ENDBRANCH   2  20
TORSDOF 11
