REMARK VINA RESULT:    -6.209      3.369     10.056
REMARK INTER + INTRA:         -11.890
REMARK INTER:                 -10.411
REMARK INTRA:                  -1.479
REMARK UNBOUND:                -1.689
REMARK  Name = lig_assembled_49.pdb
REMARK  11 active torsions:
REMARK  status: ('A' for Active; 'I' for Inactive)
REMARK    1  A    between atoms: _2  and  _8
REMARK    2  A    between atoms: _5  and  _6
REMARK    3  A    between atoms: _5  and  _12
REMARK    4  A    between atoms: _12  and  _14
REMARK    5  A    between atoms: _13  and  _18
REMARK    6  A    between atoms: _14  and  _17
REMARK    7  A    between atoms: _22  and  _32
REMARK    8  A    between atoms: _24  and  _25
REMARK    9  A    between atoms: _26  and  _28
REMARK   10  A    between atoms: _28  and  _30
REMARK   11  A    between atoms: _30  and  _32
REMARK                            x       y       z     vdW  Elec       q    Type
REMARK                         _______ _______ _______ _____ _____    ______ ____
ROOT
ATOM      1  C   UNL     1      25.838  15.677  -2.883  0.00  0.00    +0.152 C 
ENDROOT
BRANCH   1   3
ATOM      2  C   UNL     1      27.880  14.903  -1.247  0.00  0.00    +0.400 C 
ATOM      3  N   UNL     1      26.768  14.913  -2.057  0.00  0.00    -0.278 N 
ATOM      4  H   UNL     1      26.455  13.891  -2.059  0.00  0.00    +0.152 HD
ATOM      5  O   UNL     1      28.129  13.878  -0.618  0.00  0.00    -0.226 OA
BRANCH   2   6
ATOM      6  O   UNL     1      28.585  15.987  -1.252  0.00  0.00    -0.450 OA
BRANCH   6   7
ATOM      7  C   UNL     1      28.720  17.177  -0.511  0.00  0.00    +0.240 C 
BRANCH   7   8
ATOM      8  C   UNL     1      30.109  17.497   0.073  0.00  0.00    +0.100 C 
BRANCH   8  10
ATOM      9  N   UNL     1      31.730  15.779  -0.660  0.00  0.00    -0.134 NA
ATOM     10  C   UNL     1      30.872  16.255   0.295  0.00  0.00    +0.086 A 
ATOM     11  C   UNL     1      30.883  15.403   1.377  0.00  0.00    +0.134 A 
ATOM     12  N   UNL     1      31.762  14.424   1.015  0.00  0.00    -0.248 N 
ATOM     13  N   UNL     1      32.269  14.655  -0.208  0.00  0.00    -0.065 NA
BRANCH  12  14
ATOM     14  C   UNL     1      32.134  13.251   1.768  0.00  0.00    +0.109 C 
ATOM     15  C   UNL     1      33.618  12.895   1.667  0.00  0.00    +0.027 C 
ATOM     16  C   UNL     1      33.823  11.958   2.845  0.00  0.00    +0.002 C 
ATOM     17  C   UNL     1      32.989  12.573   3.961  0.00  0.00    +0.002 C 
ATOM     18  C   UNL     1      31.863  13.352   3.276  0.00  0.00    +0.027 C 
ENDBRANCH  12  14
ENDBRANCH   8  10
ENDBRANCH   7   8
ENDBRANCH   6   7
ENDBRANCH   2   6
ENDBRANCH   1   3
BRANCH   1  19
ATOM     19  C   UNL     1      25.610  15.150  -4.315  0.00  0.00    +0.193 C 
ATOM     20  O   UNL     1      26.639  14.167  -4.564  0.00  0.00    -0.219 OA
BRANCH  19  21
ATOM     21  C   UNL     1      24.288  14.405  -4.601  0.00  0.00    +0.212 C 
ATOM     22  O   UNL     1      24.517  13.301  -5.492  0.00  0.00    -0.218 OA
BRANCH  21  23
ATOM     23  C   UNL     1      23.582  13.864  -3.300  0.00  0.00    +0.171 C 
ATOM     24  O   UNL     1      24.051  12.575  -2.917  0.00  0.00    -0.343 OA
ATOM     25  C   UNL     1      23.437  11.765  -1.959  0.00  0.00    +0.220 C 
ATOM     26  C   UNL     1      21.929  11.611  -2.225  0.00  0.00    +0.076 C 
ATOM     27  C   UNL     1      21.335  13.023  -2.356  0.00  0.00    +0.177 C 
ATOM     28  O   UNL     1      19.933  12.938  -2.563  0.00  0.00    -0.221 OA
ATOM     29  C   UNL     1      22.035  13.795  -3.517  0.00  0.00    +0.155 C 
BRANCH  29  30
ATOM     30  N   UNL     1      21.468  15.135  -3.649  0.00  0.00    -0.202 NA
ATOM     31  C   UNL     1      20.739  15.674  -4.659  0.00  0.00    +0.242 C 
ATOM     32  C   UNL     1      20.029  16.979  -4.412  0.00  0.00    +0.096 C 
ATOM     33  O   UNL     1      20.674  15.090  -5.739  0.00  0.00    -0.273 OA
ENDBRANCH  29  30
BRANCH  25  34
ATOM     34  C   UNL     1      23.729  12.234  -0.432  0.00  0.00    +0.391 C 
ATOM     35  O   UNL     1      24.872  12.944  -0.498  0.00  0.00    -0.243 OA
ATOM     36  O   UNL     1      22.598  12.007   0.247  0.00  0.00    -0.243 OA
ENDBRANCH  25  34
ENDBRANCH  21  23
ENDBRANCH  19  21
ENDBRANCH   1  19
TORSDOF 11
