REMARK VINA RESULT:    -7.208      2.025      2.828
REMARK INTER + INTRA:         -12.890
REMARK INTER:                 -12.264
REMARK INTRA:                  -0.626
REMARK UNBOUND:                -0.626
REMARK  Name = lig_assembled_5.pdb
REMARK  13 active torsions:
REMARK  status: ('A' for Active; 'I' for Inactive)
REMARK    1  A    between atoms: _2  and  _8
REMARK    2  A    between atoms: _5  and  _6
REMARK    3  A    between atoms: _5  and  _15
REMARK    4  A    between atoms: _11  and  _14
REMARK    5  A    between atoms: _12  and  _14
REMARK    6  A    between atoms: _15  and  _17
REMARK    7  A    between atoms: _16  and  _21
REMARK    8  A    between atoms: _17  and  _20
REMARK    9  A    between atoms: _25  and  _35
REMARK   10  A    between atoms: _27  and  _28
REMARK   11  A    between atoms: _29  and  _31
REMARK   12  A    between atoms: _31  and  _33
REMARK   13  A    between atoms: _33  and  _35
REMARK                            x       y       z     vdW  Elec       q    Type
REMARK                         _______ _______ _______ _____ _____    ______ ____
ROOT
ATOM      1  C   UNL     1      27.978  17.353  -0.681  0.00  0.00    +0.400 C 
ATOM      2  N   UNL     1      28.673  16.443   0.079  0.00  0.00    -0.278 N 
ATOM      3  H   UNL     1      28.796  16.945   1.015  0.00  0.00    +0.152 HD
ATOM      4  O   UNL     1      27.530  18.352  -0.124  0.00  0.00    -0.226 OA
ENDROOT
BRANCH   2   5
ATOM      5  C   UNL     1      29.292  15.124   0.184  0.00  0.00    +0.152 C 
BRANCH   5   6
ATOM      6  C   UNL     1      30.668  15.073   0.880  0.00  0.00    +0.193 C 
ATOM      7  O   UNL     1      31.008  16.433   1.228  0.00  0.00    -0.219 OA
BRANCH   6   8
ATOM      8  C   UNL     1      30.767  14.298   2.212  0.00  0.00    +0.212 C 
ATOM      9  O   UNL     1      29.741  13.295   2.287  0.00  0.00    -0.218 OA
BRANCH   8  10
ATOM     10  C   UNL     1      32.166  13.603   2.428  0.00  0.00    +0.171 C 
ATOM     11  O   UNL     1      32.891  14.160   3.519  0.00  0.00    -0.343 OA
ATOM     12  C   UNL     1      34.240  13.907   3.780  0.00  0.00    +0.220 C 
ATOM     13  C   UNL     1      35.113  14.122   2.531  0.00  0.00    +0.076 C 
ATOM     14  C   UNL     1      34.506  13.285   1.393  0.00  0.00    +0.177 C 
ATOM     15  O   UNL     1      35.299  13.416   0.222  0.00  0.00    -0.221 OA
ATOM     16  C   UNL     1      33.031  13.724   1.131  0.00  0.00    +0.155 C 
BRANCH  16  17
ATOM     17  N   UNL     1      32.453  12.936   0.045  0.00  0.00    -0.202 NA
ATOM     18  C   UNL     1      32.429  13.183  -1.289  0.00  0.00    +0.242 C 
ATOM     19  C   UNL     1      32.029  12.065  -2.216  0.00  0.00    +0.096 C 
ATOM     20  O   UNL     1      32.733  14.299  -1.706  0.00  0.00    -0.273 OA
ENDBRANCH  16  17
BRANCH  12  21
ATOM     21  C   UNL     1      34.507  12.452   4.452  0.00  0.00    +0.391 C 
ATOM     22  O   UNL     1      35.828  12.236   4.298  0.00  0.00    -0.243 OA
ATOM     23  O   UNL     1      33.406  12.163   5.157  0.00  0.00    -0.243 OA
ENDBRANCH  12  21
ENDBRANCH   8  10
ENDBRANCH   6   8
ENDBRANCH   5   6
ENDBRANCH   2   5
BRANCH   1  24
ATOM     24  O   UNL     1      27.888  17.078  -1.941  0.00  0.00    -0.450 OA
BRANCH  24  25
ATOM     25  C   UNL     1      27.074  17.389  -3.047  0.00  0.00    +0.240 C 
BRANCH  25  26
ATOM     26  C   UNL     1      26.646  16.227  -3.964  0.00  0.00    +0.100 C 
BRANCH  26  28
ATOM     27  N   UNL     1      25.623  14.614  -2.392  0.00  0.00    -0.134 NA
ATOM     28  C   UNL     1      25.480  15.528  -3.395  0.00  0.00    +0.086 A 
ATOM     29  C   UNL     1      24.146  15.641  -3.713  0.00  0.00    +0.139 A 
ATOM     30  N   UNL     1      23.500  14.787  -2.846  0.00  0.00    -0.220 N 
ATOM     31  N   UNL     1      24.419  14.162  -2.069  0.00  0.00    -0.061 NA
BRANCH  30  32
ATOM     32  C   UNL     1      22.107  14.558  -2.700  0.00  0.00    +0.067 A 
ATOM     33  C   UNL     1      21.201  14.997  -3.672  0.00  0.00    +0.031 A 
ATOM     34  C   UNL     1      19.829  14.817  -3.479  0.00  0.00    +0.048 A 
ATOM     35  C   UNL     1      19.344  14.182  -2.335  0.00  0.00    +0.120 A 
ATOM     36  C   UNL     1      20.245  13.726  -1.373  0.00  0.00    +0.048 A 
ATOM     37  C   UNL     1      21.622  13.913  -1.552  0.00  0.00    +0.031 A 
BRANCH  35  38
ATOM     38  O   UNL     1      17.982  14.125  -2.243  0.00  0.00    -0.495 OA
ATOM     39  C   UNL     1      17.270  14.032  -3.470  0.00  0.00    +0.277 C 
ENDBRANCH  35  38
ENDBRANCH  30  32
ENDBRANCH  26  28
ENDBRANCH  25  26
ENDBRANCH  24  25
ENDBRANCH   1  24
TORSDOF 12
