REMARK VINA RESULT:    -6.980     23.415     26.249
REMARK INTER + INTRA:         -13.553
REMARK INTER:                 -11.468
REMARK INTRA:                  -2.085
REMARK UNBOUND:                -2.085
REMARK  Name = lig_assembled_51.pdb
REMARK  11 active torsions:
REMARK  status: ('A' for Active; 'I' for Inactive)
REMARK    1  A    between atoms: _2  and  _8
REMARK    2  A    between atoms: _5  and  _6
REMARK    3  A    between atoms: _5  and  _17
REMARK    4  A    between atoms: _17  and  _19
REMARK    5  A    between atoms: _18  and  _23
REMARK    6  A    between atoms: _19  and  _22
REMARK    7  A    between atoms: _27  and  _37
REMARK    8  A    between atoms: _29  and  _30
REMARK    9  A    between atoms: _31  and  _33
REMARK   10  A    between atoms: _33  and  _35
REMARK   11  A    between atoms: _35  and  _37
REMARK                            x       y       z     vdW  Elec       q    Type
REMARK                         _______ _______ _______ _____ _____    ______ ____
ROOT
ATOM      1  C   UNL     1      33.069  40.717   7.662  0.00  0.00    +0.400 C 
ATOM      2  N   UNL     1      34.052  41.551   7.183  0.00  0.00    -0.278 N 
ATOM      3  H   UNL     1      34.727  41.637   8.008  0.00  0.00    +0.152 HD
ATOM      4  O   UNL     1      33.257  40.160   8.741  0.00  0.00    -0.226 OA
ENDROOT
BRANCH   1   5
ATOM      5  O   UNL     1      32.008  40.624   6.930  0.00  0.00    -0.450 OA
BRANCH   5   6
ATOM      6  C   UNL     1      30.938  41.429   6.491  0.00  0.00    +0.240 C 
BRANCH   6   7
ATOM      7  C   UNL     1      29.941  40.806   5.496  0.00  0.00    +0.100 C 
BRANCH   7   9
ATOM      8  N   UNL     1      29.719  38.369   5.122  0.00  0.00    -0.134 NA
ATOM      9  C   UNL     1      29.552  39.455   5.937  0.00  0.00    +0.086 A 
ATOM     10  C   UNL     1      29.000  39.040   7.127  0.00  0.00    +0.134 A 
ATOM     11  N   UNL     1      28.845  37.689   6.977  0.00  0.00    -0.245 N 
ATOM     12  N   UNL     1      29.284  37.295   5.766  0.00  0.00    -0.065 NA
BRANCH  11  13
ATOM     13  C   UNL     1      28.286  36.738   7.941  0.00  0.00    +0.066 C 
ATOM     14  C   UNL     1      26.743  36.662   7.781  0.00  0.00    +0.034 C 
ATOM     15  C   UNL     1      26.141  35.634   8.753  0.00  0.00    -0.008 C 
ATOM     16  C   UNL     1      26.753  34.252   8.471  0.00  0.00    +0.007 C 
ATOM     17  C   UNL     1      28.277  34.299   8.670  0.00  0.00    -0.008 C 
ATOM     18  C   UNL     1      28.589  34.721  10.113  0.00  0.00    +0.007 C 
ATOM     19  C   UNL     1      27.987  36.106  10.396  0.00  0.00    -0.008 C 
ATOM     20  C   UNL     1      26.464  36.048  10.196  0.00  0.00    +0.007 C 
ATOM     21  C   UNL     1      28.883  35.326   7.697  0.00  0.00    +0.034 C 
ATOM     22  C   UNL     1      28.588  37.131   9.418  0.00  0.00    +0.034 C 
ENDBRANCH  11  13
ENDBRANCH   7   9
ENDBRANCH   6   7
ENDBRANCH   5   6
ENDBRANCH   1   5
BRANCH   2  23
ATOM     23  C   UNL     1      34.582  42.342   6.076  0.00  0.00    +0.152 C 
BRANCH  23  24
ATOM     24  C   UNL     1      34.175  41.886   4.659  0.00  0.00    +0.193 C 
ATOM     25  O   UNL     1      35.159  42.426   3.750  0.00  0.00    -0.219 OA
BRANCH  24  26
ATOM     26  C   UNL     1      34.174  40.368   4.370  0.00  0.00    +0.212 C 
ATOM     27  O   UNL     1      32.964  39.987   3.695  0.00  0.00    -0.218 OA
BRANCH  26  28
ATOM     28  C   UNL     1      35.404  39.898   3.503  0.00  0.00    +0.171 C 
ATOM     29  O   UNL     1      35.010  39.294   2.275  0.00  0.00    -0.343 OA
ATOM     30  C   UNL     1      35.868  38.578   1.438  0.00  0.00    +0.220 C 
ATOM     31  C   UNL     1      36.653  37.504   2.210  0.00  0.00    +0.076 C 
ATOM     32  C   UNL     1      37.339  38.197   3.399  0.00  0.00    +0.177 C 
ATOM     33  O   UNL     1      38.113  37.254   4.126  0.00  0.00    -0.221 OA
ATOM     34  C   UNL     1      36.272  38.879   4.312  0.00  0.00    +0.155 C 
BRANCH  34  35
ATOM     35  N   UNL     1      36.919  39.533   5.446  0.00  0.00    -0.202 NA
ATOM     36  C   UNL     1      36.699  39.380   6.777  0.00  0.00    +0.242 C 
ATOM     37  C   UNL     1      37.705  39.956   7.739  0.00  0.00    +0.096 C 
ATOM     38  O   UNL     1      35.696  38.782   7.162  0.00  0.00    -0.273 OA
ENDBRANCH  34  35
BRANCH  30  39
ATOM     39  C   UNL     1      36.855  39.524   0.561  0.00  0.00    +0.391 C 
ATOM     40  O   UNL     1      37.739  38.677  -0.002  0.00  0.00    -0.243 OA
ATOM     41  O   UNL     1      36.252  40.716   0.483  0.00  0.00    -0.243 OA
ENDBRANCH  30  39
ENDBRANCH  26  28
ENDBRANCH  24  26
ENDBRANCH  23  24
ENDBRANCH   2  23
TORSDOF 11
