REMARK VINA RESULT:    -6.731      2.473      4.155
REMARK INTER + INTRA:         -15.804
REMARK INTER:                 -13.614
REMARK INTRA:                  -2.190
REMARK UNBOUND:                -2.580
REMARK  Name = lig_assembled_90.pdb
REMARK  17 active torsions:
REMARK  status: ('A' for Active; 'I' for Inactive)
REMARK    1  A    between atoms: _2  and  _12
REMARK    2  A    between atoms: _3  and  _14
REMARK    3  A    between atoms: _4  and  _16
REMARK    4  A    between atoms: _9  and  _10
REMARK    5  A    between atoms: _9  and  _23
REMARK    6  A    between atoms: _12  and  _13
REMARK    7  A    between atoms: _14  and  _15
REMARK    8  A    between atoms: _15  and  _16
REMARK    9  A    between atoms: _15  and  _21
REMARK   10  A    between atoms: _23  and  _25
REMARK   11  A    between atoms: _24  and  _29
REMARK   12  A    between atoms: _25  and  _28
REMARK   13  A    between atoms: _33  and  _43
REMARK   14  A    between atoms: _35  and  _36
REMARK   15  A    between atoms: _37  and  _39
REMARK   16  A    between atoms: _39  and  _41
REMARK   17  A    between atoms: _41  and  _43
REMARK                            x       y       z     vdW  Elec       q    Type
REMARK                         _______ _______ _______ _____ _____    ______ ____
ROOT
ATOM      1  C   UNL     1      29.915  16.493  -0.177  0.00  0.00    +0.240 C 
ENDROOT
BRANCH   1   2
ATOM      2  O   UNL     1      29.071  17.168  -1.081  0.00  0.00    -0.450 OA
BRANCH   2   3
ATOM      3  C   UNL     1      27.927  17.768  -1.093  0.00  0.00    +0.400 C 
ATOM      4  N   UNL     1      27.168  17.581  -2.224  0.00  0.00    -0.278 N 
ATOM      5  H   UNL     1      26.215  17.981  -1.952  0.00  0.00    +0.152 HD
ATOM      6  O   UNL     1      27.457  18.451  -0.186  0.00  0.00    -0.226 OA
BRANCH   4   7
ATOM      7  C   UNL     1      27.086  17.106  -3.603  0.00  0.00    +0.152 C 
BRANCH   7   8
ATOM      8  C   UNL     1      25.975  16.079  -3.903  0.00  0.00    +0.193 C 
ATOM      9  O   UNL     1      26.002  15.842  -5.328  0.00  0.00    -0.219 OA
BRANCH   8  10
ATOM     10  C   UNL     1      26.112  14.674  -3.276  0.00  0.00    +0.212 C 
ATOM     11  O   UNL     1      26.822  14.748  -2.029  0.00  0.00    -0.218 OA
BRANCH  10  12
ATOM     12  C   UNL     1      24.727  13.964  -3.026  0.00  0.00    +0.171 C 
ATOM     13  O   UNL     1      23.866  14.724  -2.185  0.00  0.00    -0.343 OA
ATOM     14  C   UNL     1      22.692  14.232  -1.609  0.00  0.00    +0.220 C 
ATOM     15  C   UNL     1      22.929  12.896  -0.884  0.00  0.00    +0.076 C 
ATOM     16  C   UNL     1      23.609  11.943  -1.881  0.00  0.00    +0.177 C 
ATOM     17  O   UNL     1      23.815  10.676  -1.272  0.00  0.00    -0.221 OA
ATOM     18  C   UNL     1      24.954  12.558  -2.380  0.00  0.00    +0.155 C 
BRANCH  18  19
ATOM     19  N   UNL     1      25.606  11.652  -3.323  0.00  0.00    -0.202 NA
ATOM     20  C   UNL     1      26.813  11.038  -3.241  0.00  0.00    +0.242 C 
ATOM     21  C   UNL     1      27.117   9.925  -4.211  0.00  0.00    +0.096 C 
ATOM     22  O   UNL     1      27.622  11.397  -2.388  0.00  0.00    -0.273 OA
ENDBRANCH  18  19
BRANCH  14  23
ATOM     23  C   UNL     1      21.451  14.134  -2.652  0.00  0.00    +0.391 C 
ATOM     24  O   UNL     1      20.626  13.208  -2.124  0.00  0.00    -0.243 OA
ATOM     25  O   UNL     1      21.561  15.196  -3.459  0.00  0.00    -0.243 OA
ENDBRANCH  14  23
ENDBRANCH  10  12
ENDBRANCH   8  10
ENDBRANCH   7   8
ENDBRANCH   4   7
ENDBRANCH   2   3
ENDBRANCH   1   2
BRANCH   1  26
ATOM     26  C   UNL     1      29.458  15.110   0.325  0.00  0.00    +0.100 C 
BRANCH  26  28
ATOM     27  N   UNL     1      30.508  13.003   1.104  0.00  0.00    -0.134 NA
ATOM     28  C   UNL     1      30.608  14.346   0.846  0.00  0.00    +0.086 A 
ATOM     29  C   UNL     1      31.881  14.768   1.151  0.00  0.00    +0.134 A 
ATOM     30  N   UNL     1      32.513  13.635   1.569  0.00  0.00    -0.243 N 
ATOM     31  N   UNL     1      31.681  12.579   1.557  0.00  0.00    -0.065 NA
BRANCH  30  32
ATOM     32  C   UNL     1      33.853  13.498   2.088  0.00  0.00    +0.240 C 
BRANCH  32  33
ATOM     33  C   UNL     1      33.851  13.401   3.597  0.00  0.00    +0.235 C 
ATOM     34  O   UNL     1      34.353  14.261   4.317  0.00  0.00    -0.274 OA
ATOM     35  N   UNL     1      33.195  12.300   4.115  0.00  0.00    -0.311 N 
ATOM     36  H   UNL     1      33.043  11.495   3.512  0.00  0.00    +0.149 HD
BRANCH  35  37
ATOM     37  C   UNL     1      33.195  12.048   5.549  0.00  0.00    +0.137 C 
BRANCH  37  38
ATOM     38  C   UNL     1      31.854  12.449   6.183  0.00  0.00    +0.151 C 
BRANCH  38  39
ATOM     39  O   UNL     1      30.852  12.472   5.159  0.00  0.00    -0.388 OA
ATOM     40  H   UNL     1      31.058  11.781   4.497  0.00  0.00    +0.210 HD
ENDBRANCH  38  39
BRANCH  38  41
ATOM     41  C   UNL     1      31.461  11.502   7.324  0.00  0.00    +0.162 C 
BRANCH  41  42
ATOM     42  N   UNL     1      31.847  12.015   8.631  0.00  0.00    -0.269 N 
ATOM     43  C   UNL     1      33.147  12.334   8.958  0.00  0.00    +0.113 A 
ATOM     44  C   UNL     1      33.114  12.736  10.272  0.00  0.00    +0.137 A 
ATOM     45  N   UNL     1      31.837  12.671  10.764  0.00  0.00    -0.172 NA
ATOM     46  C   UNL     1      31.093  12.248   9.755  0.00  0.00    +0.450 A 
ATOM     47  N   UNL     1      29.668  12.057   9.873  0.00  0.00    +0.120 N 
ATOM     48  O   UNL     1      29.039  11.761   8.847  0.00  0.00    +0.045 OA
ATOM     49  O   UNL     1      29.168  12.191  10.998  0.00  0.00    -0.573 OA
ENDBRANCH  41  42
ENDBRANCH  38  41
ENDBRANCH  37  38
ENDBRANCH  35  37
ENDBRANCH  32  33
ENDBRANCH  30  32
ENDBRANCH  26  28
ENDBRANCH   1  26
TORSDOF 17
