REMARK VINA RESULT:    -6.392      1.975      3.532
REMARK INTER + INTRA:         -12.048
REMARK INTER:                 -11.012
REMARK INTRA:                  -1.036
REMARK UNBOUND:                -1.545
REMARK  Name = lig_assembled_48.pdb
REMARK  11 active torsions:
REMARK  status: ('A' for Active; 'I' for Inactive)
REMARK    1  A    between atoms: _2  and  _8
REMARK    2  A    between atoms: _5  and  _6
REMARK    3  A    between atoms: _5  and  _13
REMARK    4  A    between atoms: _13  and  _15
REMARK    5  A    between atoms: _14  and  _19
REMARK    6  A    between atoms: _15  and  _18
REMARK    7  A    between atoms: _23  and  _33
REMARK    8  A    between atoms: _25  and  _26
REMARK    9  A    between atoms: _27  and  _29
REMARK   10  A    between atoms: _29  and  _31
REMARK   11  A    between atoms: _31  and  _33
REMARK                            x       y       z     vdW  Elec       q    Type
REMARK                         _______ _______ _______ _____ _____    ______ ____
ROOT
ATOM      1  C   UNL     1      28.471  14.631  -0.011  0.00  0.00    +0.152 C 
ENDROOT
BRANCH   1   3
ATOM      2  C   UNL     1      27.865  17.173  -0.795  0.00  0.00    +0.400 C 
ATOM      3  N   UNL     1      28.303  16.080  -0.085  0.00  0.00    -0.278 N 
ATOM      4  H   UNL     1      28.672  16.506   0.822  0.00  0.00    +0.152 HD
ATOM      5  O   UNL     1      27.820  18.258  -0.219  0.00  0.00    -0.226 OA
BRANCH   2   6
ATOM      6  O   UNL     1      27.567  16.954  -2.034  0.00  0.00    -0.450 OA
BRANCH   6   7
ATOM      7  C   UNL     1      26.969  15.957  -2.828  0.00  0.00    +0.240 C 
BRANCH   7   8
ATOM      8  C   UNL     1      25.616  16.288  -3.486  0.00  0.00    +0.100 C 
BRANCH   8  10
ATOM      9  N   UNL     1      24.853  14.404  -2.081  0.00  0.00    -0.134 NA
ATOM     10  C   UNL     1      24.550  15.458  -2.897  0.00  0.00    +0.086 A 
ATOM     11  C   UNL     1      23.181  15.565  -3.003  0.00  0.00    +0.134 A 
ATOM     12  N   UNL     1      22.703  14.609  -2.157  0.00  0.00    -0.248 N 
ATOM     13  N   UNL     1      23.717  13.865  -1.664  0.00  0.00    -0.065 NA
BRANCH  12  14
ATOM     14  C   UNL     1      21.346  14.337  -1.697  0.00  0.00    +0.109 C 
ATOM     15  C   UNL     1      20.355  14.318  -2.876  0.00  0.00    +0.027 C 
ATOM     16  C   UNL     1      20.533  13.069  -3.736  0.00  0.00    +0.002 C 
ATOM     17  C   UNL     1      20.311  11.807  -2.912  0.00  0.00    +0.000 C 
ATOM     18  C   UNL     1      21.194  11.759  -1.667  0.00  0.00    +0.002 C 
ATOM     19  C   UNL     1      21.167  13.059  -0.854  0.00  0.00    +0.027 C 
ENDBRANCH  12  14
ENDBRANCH   8  10
ENDBRANCH   7   8
ENDBRANCH   6   7
ENDBRANCH   2   6
ENDBRANCH   1   3
BRANCH   1  20
ATOM     20  C   UNL     1      29.746  14.061  -0.667  0.00  0.00    +0.193 C 
ATOM     21  O   UNL     1      30.744  15.104  -0.611  0.00  0.00    -0.219 OA
BRANCH  20  22
ATOM     22  C   UNL     1      30.418  12.848   0.013  0.00  0.00    +0.212 C 
ATOM     23  O   UNL     1      31.500  12.356  -0.795  0.00  0.00    -0.218 OA
BRANCH  22  24
ATOM     24  C   UNL     1      30.970  13.167   1.455  0.00  0.00    +0.171 C 
ATOM     25  O   UNL     1      32.387  13.053   1.536  0.00  0.00    -0.343 OA
ATOM     26  C   UNL     1      33.110  13.041   2.732  0.00  0.00    +0.220 C 
ATOM     27  C   UNL     1      32.540  12.020   3.732  0.00  0.00    +0.076 C 
ATOM     28  C   UNL     1      31.038  12.312   3.886  0.00  0.00    +0.177 C 
ATOM     29  O   UNL     1      30.468  11.420   4.833  0.00  0.00    -0.221 OA
ATOM     30  C   UNL     1      30.324  12.202   2.502  0.00  0.00    +0.155 C 
BRANCH  30  31
ATOM     31  N   UNL     1      28.896  12.472   2.646  0.00  0.00    -0.202 NA
ATOM     32  C   UNL     1      27.830  11.688   2.345  0.00  0.00    +0.242 C 
ATOM     33  C   UNL     1      26.475  12.092   2.865  0.00  0.00    +0.096 C 
ATOM     34  O   UNL     1      27.993  10.677   1.664  0.00  0.00    -0.273 OA
ENDBRANCH  30  31
BRANCH  26  35
ATOM     35  C   UNL     1      33.271  14.510   3.405  0.00  0.00    +0.391 C 
ATOM     36  O   UNL     1      32.340  15.274   2.801  0.00  0.00    -0.243 OA
ATOM     37  O   UNL     1      34.038  14.338   4.489  0.00  0.00    -0.243 OA
ENDBRANCH  26  35
ENDBRANCH  22  24
ENDBRANCH  20  22
ENDBRANCH   1  20
TORSDOF 11
