REMARK VINA RESULT:    -6.784      1.759      3.568
REMARK INTER + INTRA:         -13.671
REMARK INTER:                 -11.543
REMARK INTRA:                  -2.128
REMARK UNBOUND:                -2.128
REMARK  Name = lig_assembled_0.pdb
REMARK  12 active torsions:
REMARK  status: ('A' for Active; 'I' for Inactive)
REMARK    1  A    between atoms: _2  and  _9
REMARK    2  A    between atoms: _6  and  _7
REMARK    3  A    between atoms: _6  and  _16
REMARK    4  A    between atoms: _10  and  _11
REMARK    5  A    between atoms: _16  and  _18
REMARK    6  A    between atoms: _17  and  _22
REMARK    7  A    between atoms: _18  and  _21
REMARK    8  A    between atoms: _26  and  _36
REMARK    9  A    between atoms: _28  and  _29
REMARK   10  A    between atoms: _30  and  _32
REMARK   11  A    between atoms: _32  and  _34
REMARK   12  A    between atoms: _34  and  _36
REMARK                            x       y       z     vdW  Elec       q    Type
REMARK                         _______ _______ _______ _____ _____    ______ ____
ROOT
ATOM      1  C   UNL     1      28.304  13.983  -1.482  0.00  0.00    +0.400 C 
ATOM      2  N   UNL     1      27.826  13.254  -0.418  0.00  0.00    -0.278 N 
ATOM      3  H   UNL     1      27.636  12.292  -0.843  0.00  0.00    +0.152 HD
ATOM      4  O   UNL     1      28.562  13.385  -2.524  0.00  0.00    -0.226 OA
ENDROOT
BRANCH   2   5
ATOM      5  C   UNL     1      27.485  13.203   1.001  0.00  0.00    +0.152 C 
BRANCH   5   6
ATOM      6  C   UNL     1      28.533  13.781   1.974  0.00  0.00    +0.193 C 
ATOM      7  O   UNL     1      27.881  13.914   3.256  0.00  0.00    -0.219 OA
BRANCH   6   8
ATOM      8  C   UNL     1      29.786  12.926   2.265  0.00  0.00    +0.212 C 
ATOM      9  O   UNL     1      29.572  11.565   1.856  0.00  0.00    -0.218 OA
BRANCH   8  10
ATOM     10  C   UNL     1      31.088  13.465   1.560  0.00  0.00    +0.171 C 
ATOM     11  O   UNL     1      31.046  13.317   0.144  0.00  0.00    -0.343 OA
ATOM     12  C   UNL     1      32.147  13.482  -0.699  0.00  0.00    +0.220 C 
ATOM     13  C   UNL     1      33.361  12.667  -0.219  0.00  0.00    +0.076 C 
ATOM     14  C   UNL     1      33.612  13.035   1.253  0.00  0.00    +0.177 C 
ATOM     15  O   UNL     1      34.751  12.337   1.736  0.00  0.00    -0.221 OA
ATOM     16  C   UNL     1      32.347  12.717   2.109  0.00  0.00    +0.155 C 
BRANCH  16  17
ATOM     17  N   UNL     1      32.583  13.058   3.510  0.00  0.00    -0.202 NA
ATOM     18  C   UNL     1      32.769  12.246   4.581  0.00  0.00    +0.242 C 
ATOM     19  C   UNL     1      33.287  12.854   5.859  0.00  0.00    +0.096 C 
ATOM     20  O   UNL     1      32.516  11.046   4.486  0.00  0.00    -0.273 OA
ENDBRANCH  16  17
BRANCH  12  21
ATOM     21  C   UNL     1      32.537  15.038  -0.957  0.00  0.00    +0.391 C 
ATOM     22  O   UNL     1      31.510  15.743  -0.444  0.00  0.00    -0.243 OA
ATOM     23  O   UNL     1      33.832  15.044  -1.295  0.00  0.00    -0.243 OA
ENDBRANCH  12  21
ENDBRANCH   8  10
ENDBRANCH   6   8
ENDBRANCH   5   6
ENDBRANCH   2   5
BRANCH   1  24
ATOM     24  O   UNL     1      28.407  15.256  -1.288  0.00  0.00    -0.450 OA
BRANCH  24  25
ATOM     25  C   UNL     1      27.740  16.447  -1.636  0.00  0.00    +0.240 C 
BRANCH  25  26
ATOM     26  C   UNL     1      27.112  16.526  -3.040  0.00  0.00    +0.100 C 
BRANCH  26  28
ATOM     27  N   UNL     1      25.591  14.948  -4.173  0.00  0.00    -0.134 NA
ATOM     28  C   UNL     1      25.871  15.731  -3.092  0.00  0.00    +0.086 A 
ATOM     29  C   UNL     1      24.861  15.600  -2.166  0.00  0.00    +0.139 A 
ATOM     30  N   UNL     1      23.925  14.791  -2.768  0.00  0.00    -0.219 N 
ATOM     31  N   UNL     1      24.436  14.342  -3.948  0.00  0.00    -0.061 NA
BRANCH  30  32
ATOM     32  C   UNL     1      22.668  14.313  -2.299  0.00  0.00    +0.079 A 
ATOM     33  C   UNL     1      21.416  14.826  -2.694  0.00  0.00    +0.062 A 
ATOM     34  C   UNL     1      20.246  14.283  -2.116  0.00  0.00    +0.015 A 
ATOM     35  C   UNL     1      20.311  13.267  -1.162  0.00  0.00    +0.001 A 
ATOM     36  C   UNL     1      21.542  12.753  -0.786  0.00  0.00    +0.002 A 
ATOM     37  C   UNL     1      22.709  13.261  -1.356  0.00  0.00    +0.028 A 
BRANCH  33  38
ATOM     38  C   UNL     1      21.221  15.781  -3.821  0.00  0.00    +0.244 C 
ATOM     39  O   UNL     1      20.806  16.917  -3.650  0.00  0.00    -0.270 OA
ATOM     40  N   UNL     1      21.564  15.358  -5.077  0.00  0.00    -0.325 N 
ATOM     41  H   UNL     1      21.477  16.031  -5.829  0.00  0.00    +0.145 HD
ATOM     42  H   UNL     1      21.927  14.442  -5.299  0.00  0.00    +0.145 HD
ENDBRANCH  33  38
ENDBRANCH  30  32
ENDBRANCH  26  28
ENDBRANCH  25  26
ENDBRANCH  24  25
ENDBRANCH   1  24
TORSDOF 12
