REMARK VINA RESULT:    -6.021      3.069      9.569
REMARK INTER + INTRA:         -14.065
REMARK INTER:                 -12.200
REMARK INTRA:                  -1.865
REMARK UNBOUND:                -3.117
REMARK  Name = lig_assembled_9.pdb
REMARK  15 active torsions:
REMARK  status: ('A' for Active; 'I' for Inactive)
REMARK    1  A    between atoms: _2  and  _8
REMARK    2  A    between atoms: _5  and  _6
REMARK    3  A    between atoms: _5  and  _18
REMARK    4  A    between atoms: _10  and  _11
REMARK    5  A    between atoms: _11  and  _16
REMARK    6  A    between atoms: _12  and  _13
REMARK    7  A    between atoms: _12  and  _16
REMARK    8  A    between atoms: _18  and  _20
REMARK    9  A    between atoms: _19  and  _24
REMARK   10  A    between atoms: _20  and  _23
REMARK   11  A    between atoms: _28  and  _38
REMARK   12  A    between atoms: _30  and  _31
REMARK   13  A    between atoms: _32  and  _34
REMARK   14  A    between atoms: _34  and  _36
REMARK   15  A    between atoms: _36  and  _38
REMARK                            x       y       z     vdW  Elec       q    Type
REMARK                         _______ _______ _______ _____ _____    ______ ____
ROOT
ATOM      1  C   UNL     1      27.934  17.744  -1.097  0.00  0.00    +0.400 C 
ATOM      2  N   UNL     1      27.200  17.605  -2.251  0.00  0.00    -0.278 N 
ATOM      3  H   UNL     1      26.266  18.064  -2.007  0.00  0.00    +0.152 HD
ATOM      4  O   UNL     1      27.481  18.457  -0.205  0.00  0.00    -0.226 OA
ENDROOT
BRANCH   2   5
ATOM      5  C   UNL     1      27.130  17.135  -3.633  0.00  0.00    +0.152 C 
BRANCH   5   6
ATOM      6  C   UNL     1      25.970  16.174  -3.966  0.00  0.00    +0.193 C 
ATOM      7  O   UNL     1      26.079  15.863  -5.372  0.00  0.00    -0.219 OA
BRANCH   6   8
ATOM      8  C   UNL     1      25.958  14.797  -3.266  0.00  0.00    +0.212 C 
ATOM      9  O   UNL     1      26.544  14.894  -1.958  0.00  0.00    -0.218 OA
BRANCH   8  10
ATOM     10  C   UNL     1      24.514  14.180  -3.127  0.00  0.00    +0.171 C 
ATOM     11  O   UNL     1      23.512  15.171  -2.925  0.00  0.00    -0.343 OA
ATOM     12  C   UNL     1      22.200  14.896  -2.532  0.00  0.00    +0.220 C 
ATOM     13  C   UNL     1      22.154  13.982  -1.295  0.00  0.00    +0.076 C 
ATOM     14  C   UNL     1      23.011  12.743  -1.604  0.00  0.00    +0.177 C 
ATOM     15  O   UNL     1      22.970  11.843  -0.505  0.00  0.00    -0.221 OA
ATOM     16  C   UNL     1      24.475  13.170  -1.934  0.00  0.00    +0.155 C 
BRANCH  16  17
ATOM     17  N   UNL     1      25.293  11.994  -2.221  0.00  0.00    -0.202 NA
ATOM     18  C   UNL     1      26.234  11.384  -1.456  0.00  0.00    +0.242 C 
ATOM     19  C   UNL     1      26.717  10.018  -1.870  0.00  0.00    +0.096 C 
ATOM     20  O   UNL     1      26.665  11.953  -0.455  0.00  0.00    -0.273 OA
ENDBRANCH  16  17
BRANCH  12  21
ATOM     21  C   UNL     1      21.271  14.320  -3.735  0.00  0.00    +0.391 C 
ATOM     22  O   UNL     1      20.187  13.808  -3.121  0.00  0.00    -0.243 OA
ATOM     23  O   UNL     1      21.774  14.829  -4.866  0.00  0.00    -0.243 OA
ENDBRANCH  12  21
ENDBRANCH   8  10
ENDBRANCH   6   8
ENDBRANCH   5   6
ENDBRANCH   2   5
BRANCH   1  24
ATOM     24  O   UNL     1      29.038  17.074  -1.052  0.00  0.00    -0.450 OA
BRANCH  24  25
ATOM     25  C   UNL     1      29.830  16.383  -0.114  0.00  0.00    +0.240 C 
BRANCH  25  26
ATOM     26  C   UNL     1      29.922  14.851  -0.253  0.00  0.00    +0.100 C 
BRANCH  26  28
ATOM     27  N   UNL     1      29.161  13.578   1.728  0.00  0.00    -0.134 NA
ATOM     28  C   UNL     1      30.157  14.233   1.065  0.00  0.00    +0.086 A 
ATOM     29  C   UNL     1      31.307  14.184   1.819  0.00  0.00    +0.139 A 
ATOM     30  N   UNL     1      30.972  13.444   2.931  0.00  0.00    -0.220 N 
ATOM     31  N   UNL     1      29.662  13.107   2.864  0.00  0.00    -0.061 NA
BRANCH  30  32
ATOM     32  C   UNL     1      31.803  13.027   4.001  0.00  0.00    +0.068 A 
ATOM     33  C   UNL     1      31.245  12.472   5.161  0.00  0.00    +0.042 A 
ATOM     34  C   UNL     1      32.068  12.090   6.231  0.00  0.00    +0.061 A 
ATOM     35  C   UNL     1      33.455  12.261   6.134  0.00  0.00    +0.015 A 
ATOM     36  C   UNL     1      34.015  12.801   4.975  0.00  0.00    +0.003 A 
ATOM     37  C   UNL     1      33.194  13.182   3.911  0.00  0.00    +0.028 A 
BRANCH  34  38
ATOM     38  C   UNL     1      31.522  11.444   7.453  0.00  0.00    +0.339 C 
ATOM     39  O   UNL     1      30.331  11.265   7.651  0.00  0.00    -0.245 OA
BRANCH  38  40
ATOM     40  O   UNL     1      32.529  11.186   8.324  0.00  0.00    -0.461 OA
BRANCH  40  41
ATOM     41  C   UNL     1      32.368  11.743   9.635  0.00  0.00    +0.229 C 
ATOM     42  C   UNL     1      33.462  12.774   9.845  0.00  0.00    +0.048 C 
ENDBRANCH  40  41
ENDBRANCH  38  40
ENDBRANCH  34  38
ENDBRANCH  30  32
ENDBRANCH  26  28
ENDBRANCH  25  26
ENDBRANCH  24  25
ENDBRANCH   1  24
TORSDOF 14
