REMARK VINA RESULT:    -6.698      2.568      4.279
REMARK INTER + INTRA:         -13.570
REMARK INTER:                 -12.378
REMARK INTRA:                  -1.192
REMARK UNBOUND:                -1.585
REMARK  Name = lig_assembled_16.pdb
REMARK  14 active torsions:
REMARK  status: ('A' for Active; 'I' for Inactive)
REMARK    1  A    between atoms: _2  and  _8
REMARK    2  A    between atoms: _5  and  _6
REMARK    3  A    between atoms: _5  and  _17
REMARK    4  A    between atoms: _8  and  _9
REMARK    5  A    between atoms: _12  and  _13
REMARK    6  A    between atoms: _13  and  _15
REMARK    7  A    between atoms: _17  and  _19
REMARK    8  A    between atoms: _18  and  _23
REMARK    9  A    between atoms: _19  and  _22
REMARK   10  A    between atoms: _27  and  _37
REMARK   11  A    between atoms: _29  and  _30
REMARK   12  A    between atoms: _31  and  _33
REMARK   13  A    between atoms: _33  and  _35
REMARK   14  A    between atoms: _35  and  _37
REMARK                            x       y       z     vdW  Elec       q    Type
REMARK                         _______ _______ _______ _____ _____    ______ ____
ROOT
ATOM      1  C   UNL     1      27.895  17.212  -1.045  0.00  0.00    +0.400 C 
ATOM      2  N   UNL     1      28.821  16.489  -0.332  0.00  0.00    -0.278 N 
ATOM      3  H   UNL     1      29.484  17.238   0.044  0.00  0.00    +0.152 HD
ATOM      4  O   UNL     1      27.914  18.436  -0.946  0.00  0.00    -0.226 OA
ENDROOT
BRANCH   2   5
ATOM      5  C   UNL     1      29.287  15.189   0.143  0.00  0.00    +0.152 C 
BRANCH   5   6
ATOM      6  C   UNL     1      30.814  14.972   0.142  0.00  0.00    +0.193 C 
ATOM      7  O   UNL     1      31.291  15.366   1.447  0.00  0.00    -0.219 OA
BRANCH   6   8
ATOM      8  C   UNL     1      31.331  13.527  -0.037  0.00  0.00    +0.212 C 
ATOM      9  O   UNL     1      30.329  12.709  -0.661  0.00  0.00    -0.218 OA
BRANCH   8  10
ATOM     10  C   UNL     1      32.655  13.438  -0.888  0.00  0.00    +0.171 C 
ATOM     11  O   UNL     1      32.489  12.683  -2.083  0.00  0.00    -0.343 OA
ATOM     12  C   UNL     1      33.540  12.244  -2.891  0.00  0.00    +0.220 C 
ATOM     13  C   UNL     1      34.623  11.518  -2.073  0.00  0.00    +0.076 C 
ATOM     14  C   UNL     1      35.036  12.451  -0.923  0.00  0.00    +0.177 C 
ATOM     15  O   UNL     1      36.067  11.843  -0.157  0.00  0.00    -0.221 OA
ATOM     16  C   UNL     1      33.798  12.794  -0.037  0.00  0.00    +0.155 C 
BRANCH  16  17
ATOM     17  N   UNL     1      34.188  13.674   1.061  0.00  0.00    -0.202 NA
ATOM     18  C   UNL     1      34.227  13.431   2.396  0.00  0.00    +0.242 C 
ATOM     19  C   UNL     1      34.947  14.414   3.281  0.00  0.00    +0.096 C 
ATOM     20  O   UNL     1      33.681  12.426   2.847  0.00  0.00    -0.273 OA
ENDBRANCH  16  17
BRANCH  12  21
ATOM     21  C   UNL     1      34.178  13.416  -3.818  0.00  0.00    +0.391 C 
ATOM     22  O   UNL     1      35.390  12.953  -4.179  0.00  0.00    -0.243 OA
ATOM     23  O   UNL     1      33.167  14.242  -4.117  0.00  0.00    -0.243 OA
ENDBRANCH  12  21
ENDBRANCH   8  10
ENDBRANCH   6   8
ENDBRANCH   5   6
ENDBRANCH   2   5
BRANCH   1  24
ATOM     24  O   UNL     1      27.097  16.519  -1.789  0.00  0.00    -0.450 OA
BRANCH  24  25
ATOM     25  C   UNL     1      27.120  15.801  -3.001  0.00  0.00    +0.240 C 
BRANCH  25  26
ATOM     26  C   UNL     1      26.191  16.284  -4.132  0.00  0.00    +0.100 C 
BRANCH  26  28
ATOM     27  N   UNL     1      24.447  14.662  -4.812  0.00  0.00    -0.134 NA
ATOM     28  C   UNL     1      24.856  15.678  -3.988  0.00  0.00    +0.086 A 
ATOM     29  C   UNL     1      23.856  15.951  -3.081  0.00  0.00    +0.134 A 
ATOM     30  N   UNL     1      22.911  15.006  -3.345  0.00  0.00    -0.247 N 
ATOM     31  N   UNL     1      23.244  14.267  -4.419  0.00  0.00    -0.065 NA
BRANCH  30  32
ATOM     32  C   UNL     1      21.692  14.735  -2.611  0.00  0.00    +0.180 C 
BRANCH  32  33
ATOM     33  C   UNL     1      21.915  13.689  -1.543  0.00  0.00    -0.026 A 
ATOM     34  C   UNL     1      23.195  13.170  -1.305  0.00  0.00    +0.006 A 
ATOM     35  C   UNL     1      23.401  12.231  -0.290  0.00  0.00    +0.015 A 
ATOM     36  C   UNL     1      22.332  11.789   0.491  0.00  0.00    +0.059 A 
ATOM     37  C   UNL     1      21.042  12.286   0.250  0.00  0.00    +0.015 A 
ATOM     38  C   UNL     1      20.838  13.220  -0.771  0.00  0.00    +0.006 A 
BRANCH  36  39
ATOM     39  C   UNL     1      22.620  10.846   1.605  0.00  0.00    +0.337 C 
ATOM     40  O   UNL     1      23.136   9.757   1.425  0.00  0.00    -0.245 OA
BRANCH  39  41
ATOM     41  O   UNL     1      22.230  11.288   2.816  0.00  0.00    -0.477 OA
ATOM     42  H   UNL     1      22.284  12.253   2.944  0.00  0.00    +0.295 HD
ENDBRANCH  39  41
ENDBRANCH  36  39
ENDBRANCH  32  33
ENDBRANCH  30  32
ENDBRANCH  26  28
ENDBRANCH  25  26
ENDBRANCH  24  25
ENDBRANCH   1  24
TORSDOF 14
