REMARK VINA RESULT:    -6.562      2.574      4.353
REMARK INTER + INTRA:         -12.470
REMARK INTER:                 -10.474
REMARK INTRA:                  -1.996
REMARK UNBOUND:                -1.689
REMARK  Name = lig_assembled_49.pdb
REMARK  11 active torsions:
REMARK  status: ('A' for Active; 'I' for Inactive)
REMARK    1  A    between atoms: _2  and  _8
REMARK    2  A    between atoms: _5  and  _6
REMARK    3  A    between atoms: _5  and  _12
REMARK    4  A    between atoms: _12  and  _14
REMARK    5  A    between atoms: _13  and  _18
REMARK    6  A    between atoms: _14  and  _17
REMARK    7  A    between atoms: _22  and  _32
REMARK    8  A    between atoms: _24  and  _25
REMARK    9  A    between atoms: _26  and  _28
REMARK   10  A    between atoms: _28  and  _30
REMARK   11  A    between atoms: _30  and  _32
REMARK                            x       y       z     vdW  Elec       q    Type
REMARK                         _______ _______ _______ _____ _____    ______ ____
ROOT
ATOM      1  C   UNL     1      26.841  13.822  -3.669  0.00  0.00    +0.152 C 
ENDROOT
BRANCH   1   3
ATOM      2  C   UNL     1      25.642  16.271  -3.583  0.00  0.00    +0.400 C 
ATOM      3  N   UNL     1      26.533  15.244  -3.789  0.00  0.00    -0.278 N 
ATOM      4  H   UNL     1      27.377  15.733  -4.225  0.00  0.00    +0.152 HD
ATOM      5  O   UNL     1      26.038  17.423  -3.745  0.00  0.00    -0.226 OA
BRANCH   2   6
ATOM      6  O   UNL     1      24.442  15.915  -3.261  0.00  0.00    -0.450 OA
BRANCH   6   7
ATOM      7  C   UNL     1      23.376  15.157  -3.785  0.00  0.00    +0.240 C 
BRANCH   7   8
ATOM      8  C   UNL     1      22.007  15.279  -3.089  0.00  0.00    +0.100 C 
BRANCH   8  10
ATOM      9  N   UNL     1      20.765  14.216  -1.233  0.00  0.00    -0.134 NA
ATOM     10  C   UNL     1      21.870  14.251  -2.041  0.00  0.00    +0.086 A 
ATOM     11  C   UNL     1      22.721  13.228  -1.686  0.00  0.00    +0.134 A 
ATOM     12  N   UNL     1      22.080  12.613  -0.649  0.00  0.00    -0.248 N 
ATOM     13  N   UNL     1      20.905  13.209  -0.383  0.00  0.00    -0.065 NA
BRANCH  12  14
ATOM     14  C   UNL     1      22.540  11.487   0.128  0.00  0.00    +0.109 C 
ATOM     15  C   UNL     1      23.983  11.620   0.616  0.00  0.00    +0.027 C 
ATOM     16  C   UNL     1      24.061  10.585   1.726  0.00  0.00    +0.002 C 
ATOM     17  C   UNL     1      22.721  10.701   2.440  0.00  0.00    +0.002 C 
ATOM     18  C   UNL     1      21.724  11.218   1.400  0.00  0.00    +0.027 C 
ENDBRANCH  12  14
ENDBRANCH   8  10
ENDBRANCH   7   8
ENDBRANCH   6   7
ENDBRANCH   2   6
ENDBRANCH   1   3
BRANCH   1  19
ATOM     19  C   UNL     1      27.119  13.305  -2.243  0.00  0.00    +0.193 C 
ATOM     20  O   UNL     1      27.487  11.913  -2.370  0.00  0.00    -0.219 OA
BRANCH  19  21
ATOM     21  C   UNL     1      28.292  13.944  -1.466  0.00  0.00    +0.212 C 
ATOM     22  O   UNL     1      28.014  15.325  -1.186  0.00  0.00    -0.218 OA
BRANCH  21  23
ATOM     23  C   UNL     1      28.616  13.210  -0.110  0.00  0.00    +0.171 C 
ATOM     24  O   UNL     1      27.475  13.085   0.732  0.00  0.00    -0.343 OA
ATOM     25  C   UNL     1      27.523  12.702   2.074  0.00  0.00    +0.220 C 
ATOM     26  C   UNL     1      28.552  13.528   2.867  0.00  0.00    +0.076 C 
ATOM     27  C   UNL     1      29.892  13.438   2.119  0.00  0.00    +0.177 C 
ATOM     28  O   UNL     1      30.891  14.153   2.832  0.00  0.00    -0.221 OA
ATOM     29  C   UNL     1      29.734  13.982   0.665  0.00  0.00    +0.155 C 
BRANCH  29  30
ATOM     30  N   UNL     1      31.007  13.905  -0.047  0.00  0.00    -0.202 NA
ATOM     31  C   UNL     1      31.814  14.901  -0.493  0.00  0.00    +0.242 C 
ATOM     32  C   UNL     1      33.211  14.547  -0.933  0.00  0.00    +0.096 C 
ATOM     33  O   UNL     1      31.393  16.055  -0.526  0.00  0.00    -0.273 OA
ENDBRANCH  29  30
BRANCH  25  34
ATOM     34  C   UNL     1      27.750  11.107   2.284  0.00  0.00    +0.391 C 
ATOM     35  O   UNL     1      27.514  10.560   1.075  0.00  0.00    -0.243 OA
ATOM     36  O   UNL     1      28.364  10.973   3.466  0.00  0.00    -0.243 OA
ENDBRANCH  25  34
ENDBRANCH  21  23
ENDBRANCH  19  21
ENDBRANCH   1  19
TORSDOF 11
