REMARK VINA RESULT:    -6.823      1.459      3.702
REMARK INTER + INTRA:         -12.596
REMARK INTER:                 -11.290
REMARK INTRA:                  -1.306
REMARK UNBOUND:                -1.385
REMARK  Name = lig_assembled_56.pdb
REMARK  11 active torsions:
REMARK  status: ('A' for Active; 'I' for Inactive)
REMARK    1  A    between atoms: _2  and  _9
REMARK    2  A    between atoms: _6  and  _7
REMARK    3  A    between atoms: _6  and  _13
REMARK    4  A    between atoms: _13  and  _15
REMARK    5  A    between atoms: _14  and  _19
REMARK    6  A    between atoms: _15  and  _18
REMARK    7  A    between atoms: _23  and  _33
REMARK    8  A    between atoms: _25  and  _26
REMARK    9  A    between atoms: _27  and  _29
REMARK   10  A    between atoms: _29  and  _31
REMARK   11  A    between atoms: _31  and  _33
REMARK                            x       y       z     vdW  Elec       q    Type
REMARK                         _______ _______ _______ _____ _____    ______ ____
ROOT
ATOM      1  C   UNL     1      28.897  15.220   0.260  0.00  0.00    +0.152 C 
ENDROOT
BRANCH   1   3
ATOM      2  C   UNL     1      27.711  17.392  -0.890  0.00  0.00    +0.400 C 
ATOM      3  N   UNL     1      28.421  16.565  -0.051  0.00  0.00    -0.278 N 
ATOM      4  H   UNL     1      28.760  17.225   0.718  0.00  0.00    +0.152 HD
ATOM      5  O   UNL     1      27.482  18.539  -0.515  0.00  0.00    -0.226 OA
BRANCH   2   6
ATOM      6  O   UNL     1      27.373  16.879  -2.027  0.00  0.00    -0.450 OA
BRANCH   6   7
ATOM      7  C   UNL     1      26.740  17.261  -3.226  0.00  0.00    +0.240 C 
BRANCH   7   8
ATOM      8  C   UNL     1      26.064  16.154  -4.058  0.00  0.00    +0.100 C 
BRANCH   8  10
ATOM      9  N   UNL     1      23.724  15.955  -3.282  0.00  0.00    -0.134 NA
ATOM     10  C   UNL     1      25.008  15.493  -3.269  0.00  0.00    +0.086 A 
ATOM     11  C   UNL     1      25.081  14.390  -2.449  0.00  0.00    +0.139 A 
ATOM     12  N   UNL     1      23.798  14.203  -1.990  0.00  0.00    -0.220 N 
ATOM     13  N   UNL     1      22.995  15.169  -2.500  0.00  0.00    -0.061 NA
BRANCH  12  14
ATOM     14  C   UNL     1      23.299  13.190  -1.134  0.00  0.00    +0.070 A 
ATOM     15  C   UNL     1      24.166  12.380  -0.395  0.00  0.00    +0.047 A 
ATOM     16  C   UNL     1      23.610  11.399   0.410  0.00  0.00    +0.113 A 
ATOM     17  N   UNL     1      22.285  11.180   0.523  0.00  0.00    -0.263 NA
ATOM     18  C   UNL     1      21.469  11.978  -0.198  0.00  0.00    +0.113 A 
ATOM     19  C   UNL     1      21.920  12.987  -1.032  0.00  0.00    +0.047 A 
ENDBRANCH  12  14
ENDBRANCH   8  10
ENDBRANCH   7   8
ENDBRANCH   6   7
ENDBRANCH   2   6
ENDBRANCH   1   3
BRANCH   1  20
ATOM     20  C   UNL     1      30.245  14.813  -0.368  0.00  0.00    +0.193 C 
ATOM     21  O   UNL     1      31.009  16.028  -0.535  0.00  0.00    -0.219 OA
BRANCH  20  22
ATOM     22  C   UNL     1      31.168  13.888   0.455  0.00  0.00    +0.212 C 
ATOM     23  O   UNL     1      30.530  12.622   0.689  0.00  0.00    -0.218 OA
BRANCH  22  24
ATOM     24  C   UNL     1      32.564  13.629  -0.228  0.00  0.00    +0.171 C 
ATOM     25  O   UNL     1      32.455  12.867  -1.426  0.00  0.00    -0.343 OA
ATOM     26  C   UNL     1      33.538  12.292  -2.096  0.00  0.00    +0.220 C 
ATOM     27  C   UNL     1      34.426  11.471  -1.145  0.00  0.00    +0.076 C 
ATOM     28  C   UNL     1      34.804  12.381   0.036  0.00  0.00    +0.177 C 
ATOM     29  O   UNL     1      35.660  11.681   0.928  0.00  0.00    -0.221 OA
ATOM     30  C   UNL     1      33.517  12.882   0.762  0.00  0.00    +0.155 C 
BRANCH  30  31
ATOM     31  N   UNL     1      33.873  13.741   1.888  0.00  0.00    -0.202 NA
ATOM     32  C   UNL     1      33.621  13.584   3.213  0.00  0.00    +0.242 C 
ATOM     33  C   UNL     1      34.354  14.466   4.190  0.00  0.00    +0.096 C 
ATOM     34  O   UNL     1      32.812  12.735   3.581  0.00  0.00    -0.273 OA
ENDBRANCH  30  31
BRANCH  26  35
ATOM     35  C   UNL     1      34.410  13.361  -2.953  0.00  0.00    +0.391 C 
ATOM     36  O   UNL     1      35.578  12.736  -3.203  0.00  0.00    -0.243 OA
ATOM     37  O   UNL     1      33.552  14.313  -3.340  0.00  0.00    -0.243 OA
ENDBRANCH  26  35
ENDBRANCH  22  24
ENDBRANCH  20  22
ENDBRANCH   1  20
TORSDOF 11
