REMARK VINA RESULT:    -6.362      1.177      1.636
REMARK INTER + INTRA:         -13.906
REMARK INTER:                 -12.071
REMARK INTRA:                  -1.836
REMARK UNBOUND:                -1.966
REMARK  Name = lig_assembled_17.pdb
REMARK  17 active torsions:
REMARK  status: ('A' for Active; 'I' for Inactive)
REMARK    1  A    between atoms: _2  and  _9
REMARK    2  A    between atoms: _3  and  _10
REMARK    3  A    between atoms: _3  and  _11
REMARK    4  A    between atoms: _3  and  _13
REMARK    5  A    between atoms: _5  and  _13
REMARK    6  A    between atoms: _6  and  _7
REMARK    7  A    between atoms: _6  and  _14
REMARK    8  A    between atoms: _9  and  _10
REMARK    9  A    between atoms: _11  and  _12
REMARK   10  A    between atoms: _14  and  _16
REMARK   11  A    between atoms: _15  and  _20
REMARK   12  A    between atoms: _16  and  _19
REMARK   13  A    between atoms: _24  and  _34
REMARK   14  A    between atoms: _26  and  _27
REMARK   15  A    between atoms: _28  and  _30
REMARK   16  A    between atoms: _30  and  _32
REMARK   17  A    between atoms: _32  and  _34
REMARK                            x       y       z     vdW  Elec       q    Type
REMARK                         _______ _______ _______ _____ _____    ______ ____
ROOT
ATOM      1  C   UNL     1      27.575  17.328  -1.599  0.00  0.00    +0.400 C 
ATOM      2  N   UNL     1      27.824  16.107  -1.017  0.00  0.00    -0.278 N 
ATOM      3  H   UNL     1      28.115  16.363  -0.021  0.00  0.00    +0.152 HD
ATOM      4  O   UNL     1      27.554  18.321  -0.876  0.00  0.00    -0.226 OA
ENDROOT
BRANCH   2   5
ATOM      5  C   UNL     1      27.854  14.652  -1.142  0.00  0.00    +0.152 C 
BRANCH   5   6
ATOM      6  C   UNL     1      28.807  13.907  -0.184  0.00  0.00    +0.193 C 
ATOM      7  O   UNL     1      28.591  12.495  -0.400  0.00  0.00    -0.219 OA
BRANCH   6   8
ATOM      8  C   UNL     1      30.325  14.102  -0.392  0.00  0.00    +0.212 C 
ATOM      9  O   UNL     1      30.648  15.500  -0.456  0.00  0.00    -0.218 OA
BRANCH   8  10
ATOM     10  C   UNL     1      31.199  13.434   0.737  0.00  0.00    +0.171 C 
ATOM     11  O   UNL     1      30.774  13.798   2.046  0.00  0.00    -0.343 OA
ATOM     12  C   UNL     1      31.508  13.552   3.210  0.00  0.00    +0.220 C 
ATOM     13  C   UNL     1      32.962  14.038   3.081  0.00  0.00    +0.076 C 
ATOM     14  C   UNL     1      33.547  13.414   1.803  0.00  0.00    +0.177 C 
ATOM     15  O   UNL     1      34.906  13.800   1.657  0.00  0.00    -0.221 OA
ATOM     16  C   UNL     1      32.700  13.837   0.562  0.00  0.00    +0.155 C 
BRANCH  16  17
ATOM     17  N   UNL     1      33.257  13.251  -0.655  0.00  0.00    -0.202 NA
ATOM     18  C   UNL     1      33.730  13.859  -1.772  0.00  0.00    +0.242 C 
ATOM     19  C   UNL     1      34.518  13.033  -2.756  0.00  0.00    +0.096 C 
ATOM     20  O   UNL     1      33.510  15.054  -1.954  0.00  0.00    -0.273 OA
ENDBRANCH  16  17
BRANCH  12  21
ATOM     21  C   UNL     1      31.436  12.007   3.706  0.00  0.00    +0.391 C 
ATOM     22  O   UNL     1      32.391  11.901   4.650  0.00  0.00    -0.243 OA
ATOM     23  O   UNL     1      30.288  11.517   3.223  0.00  0.00    -0.243 OA
ENDBRANCH  12  21
ENDBRANCH   8  10
ENDBRANCH   6   8
ENDBRANCH   5   6
ENDBRANCH   2   5
BRANCH   1  24
ATOM     24  O   UNL     1      27.414  17.314  -2.882  0.00  0.00    -0.450 OA
BRANCH  24  25
ATOM     25  C   UNL     1      26.382  17.162  -3.827  0.00  0.00    +0.240 C 
BRANCH  25  26
ATOM     26  C   UNL     1      26.150  15.753  -4.406  0.00  0.00    +0.100 C 
BRANCH  26  28
ATOM     27  N   UNL     1      24.109  14.549  -5.110  0.00  0.00    -0.134 NA
ATOM     28  C   UNL     1      24.751  15.340  -4.195  0.00  0.00    +0.086 A 
ATOM     29  C   UNL     1      23.892  15.612  -3.153  0.00  0.00    +0.133 A 
ATOM     30  N   UNL     1      22.754  14.944  -3.487  0.00  0.00    -0.250 N 
ATOM     31  N   UNL     1      22.882  14.315  -4.668  0.00  0.00    -0.065 NA
BRANCH  30  32
ATOM     32  C   UNL     1      21.528  14.814  -2.727  0.00  0.00    +0.160 C 
BRANCH  32  33
ATOM     33  C   UNL     1      21.771  14.009  -1.442  0.00  0.00    +0.107 C 
BRANCH  33  34
ATOM     34  N   UNL     1      20.908  12.818  -1.247  0.00  0.00    -0.301 NA
BRANCH  34  35
ATOM     35  C   UNL     1      21.656  11.811  -0.466  0.00  0.00    +0.081 C 
ATOM     36  C   UNL     1      21.417  11.860   1.039  0.00  0.00    +0.020 C 
ENDBRANCH  34  35
BRANCH  34  37
ATOM     37  C   UNL     1      20.353  12.287  -2.505  0.00  0.00    +0.081 C 
ATOM     38  C   UNL     1      21.106  11.124  -3.145  0.00  0.00    +0.020 C 
ENDBRANCH  34  37
ENDBRANCH  33  34
ENDBRANCH  32  33
ENDBRANCH  30  32
ENDBRANCH  26  28
ENDBRANCH  25  26
ENDBRANCH  24  25
ENDBRANCH   1  24
TORSDOF 15
