REMARK VINA RESULT:    -6.441      2.272      4.388
REMARK INTER + INTRA:         -16.895
REMARK INTER:                 -13.798
REMARK INTRA:                  -3.097
REMARK UNBOUND:                -2.358
REMARK  Name = lig_assembled_30.pdb
REMARK  22 active torsions:
REMARK  status: ('A' for Active; 'I' for Inactive)
REMARK    1  A    between atoms: _2  and  _8
REMARK    2  A    between atoms: _4  and  _17
REMARK    3  A    between atoms: _4  and  _18
REMARK    4  A    between atoms: _5  and  _6
REMARK    5  A    between atoms: _5  and  _20
REMARK    6  A    between atoms: _8  and  _9
REMARK    7  A    between atoms: _9  and  _10
REMARK    8  A    between atoms: _10  and  _11
REMARK    9  A    between atoms: _11  and  _12
REMARK   10  A    between atoms: _12  and  _13
REMARK   11  A    between atoms: _13  and  _14
REMARK   12  A    between atoms: _14  and  _15
REMARK   13  A    between atoms: _15  and  _16
REMARK   14  A    between atoms: _16  and  _17
REMARK   15  A    between atoms: _20  and  _22
REMARK   16  A    between atoms: _21  and  _26
REMARK   17  A    between atoms: _22  and  _25
REMARK   18  A    between atoms: _30  and  _40
REMARK   19  A    between atoms: _32  and  _33
REMARK   20  A    between atoms: _34  and  _36
REMARK   21  A    between atoms: _36  and  _38
REMARK   22  A    between atoms: _38  and  _40
REMARK                            x       y       z     vdW  Elec       q    Type
REMARK                         _______ _______ _______ _____ _____    ______ ____
ROOT
ATOM      1  C   UNL     1      27.907  17.390  -0.840  0.00  0.00    +0.400 C 
ATOM      2  N   UNL     1      28.482  16.451  -0.016  0.00  0.00    -0.278 N 
ATOM      3  H   UNL     1      28.565  16.961   0.919  0.00  0.00    +0.152 HD
ATOM      4  O   UNL     1      27.483  18.425  -0.332  0.00  0.00    -0.226 OA
ENDROOT
BRANCH   1   5
ATOM      5  O   UNL     1      27.896  17.098  -2.099  0.00  0.00    -0.450 OA
BRANCH   5   6
ATOM      6  C   UNL     1      27.108  17.331  -3.243  0.00  0.00    +0.240 C 
BRANCH   6   7
ATOM      7  C   UNL     1      26.586  16.101  -4.010  0.00  0.00    +0.100 C 
BRANCH   7   9
ATOM      8  N   UNL     1      24.320  15.662  -3.112  0.00  0.00    -0.134 NA
ATOM      9  C   UNL     1      25.650  15.333  -3.169  0.00  0.00    +0.086 A 
ATOM     10  C   UNL     1      25.881  14.249  -2.351  0.00  0.00    +0.133 A 
ATOM     11  N   UNL     1      24.655  13.969  -1.829  0.00  0.00    -0.251 N 
ATOM     12  N   UNL     1      23.720  14.819  -2.284  0.00  0.00    -0.065 NA
BRANCH  11  13
ATOM     13  C   UNL     1      24.312  12.945  -0.866  0.00  0.00    +0.145 C 
BRANCH  13  14
ATOM     14  C   UNL     1      25.106  11.667  -1.113  0.00  0.00    +0.023 C 
BRANCH  14  15
ATOM     15  C   UNL     1      25.007  10.698   0.064  0.00  0.00    +0.002 C 
BRANCH  15  16
ATOM     16  C   UNL     1      24.226  11.340   1.211  0.00  0.00    +0.000 C 
BRANCH  16  17
ATOM     17  C   UNL     1      22.869  10.674   1.415  0.00  0.00    +0.000 C 
BRANCH  17  18
ATOM     18  C   UNL     1      21.741  11.704   1.328  0.00  0.00    +0.000 C 
BRANCH  18  19
ATOM     19  C   UNL     1      21.113  11.708  -0.063  0.00  0.00    +0.000 C 
BRANCH  19  20
ATOM     20  C   UNL     1      20.732  13.121  -0.505  0.00  0.00    +0.001 C 
BRANCH  20  21
ATOM     21  C   UNL     1      20.415  13.144  -2.000  0.00  0.00    +0.011 C 
BRANCH  21  22
ATOM     22  C   UNL     1      19.511  14.317  -2.371  0.00  0.00    +0.120 C 
BRANCH  22  23
ATOM     23  C   UNL     1      20.199  15.263  -3.330  0.00  0.00    +0.305 C 
ATOM     24  O   UNL     1      19.911  15.414  -4.506  0.00  0.00    -0.251 OA
BRANCH  23  25
ATOM     25  O   UNL     1      21.202  15.953  -2.740  0.00  0.00    -0.481 OA
ATOM     26  H   UNL     1      21.963  16.118  -3.328  0.00  0.00    +0.295 HD
ENDBRANCH  23  25
ENDBRANCH  22  23
ENDBRANCH  21  22
ENDBRANCH  20  21
ENDBRANCH  19  20
ENDBRANCH  18  19
ENDBRANCH  17  18
ENDBRANCH  16  17
ENDBRANCH  15  16
ENDBRANCH  14  15
ENDBRANCH  13  14
ENDBRANCH  11  13
ENDBRANCH   7   9
ENDBRANCH   6   7
ENDBRANCH   5   6
ENDBRANCH   1   5
BRANCH   2  27
ATOM     27  C   UNL     1      29.005  15.097   0.153  0.00  0.00    +0.152 C 
BRANCH  27  28
ATOM     28  C   UNL     1      30.533  14.937   0.019  0.00  0.00    +0.193 C 
ATOM     29  O   UNL     1      31.128  15.734   1.066  0.00  0.00    -0.219 OA
BRANCH  28  30
ATOM     30  C   UNL     1      31.124  13.525   0.225  0.00  0.00    +0.212 C 
ATOM     31  O   UNL     1      32.106  13.240  -0.785  0.00  0.00    -0.218 OA
BRANCH  30  32
ATOM     32  C   UNL     1      31.787  13.327   1.642  0.00  0.00    +0.171 C 
ATOM     33  O   UNL     1      33.146  12.912   1.558  0.00  0.00    -0.343 OA
ATOM     34  C   UNL     1      33.892  12.433   2.637  0.00  0.00    +0.220 C 
ATOM     35  C   UNL     1      33.150  11.319   3.395  0.00  0.00    +0.076 C 
ATOM     36  C   UNL     1      31.756  11.856   3.759  0.00  0.00    +0.177 C 
ATOM     37  O   UNL     1      31.040  10.877   4.498  0.00  0.00    -0.221 OA
ATOM     38  C   UNL     1      30.984  12.268   2.467  0.00  0.00    +0.155 C 
BRANCH  38  39
ATOM     39  N   UNL     1      29.657  12.773   2.808  0.00  0.00    -0.202 NA
ATOM     40  C   UNL     1      28.433  12.285   2.482  0.00  0.00    +0.242 C 
ATOM     41  C   UNL     1      27.230  12.828   3.208  0.00  0.00    +0.096 C 
ATOM     42  O   UNL     1      28.335  11.420   1.613  0.00  0.00    -0.273 OA
ENDBRANCH  38  39
BRANCH  34  43
ATOM     43  C   UNL     1      34.399  13.604   3.644  0.00  0.00    +0.391 C 
ATOM     44  O   UNL     1      34.781  12.959   4.763  0.00  0.00    -0.243 OA
ATOM     45  O   UNL     1      34.529  14.705   2.894  0.00  0.00    -0.243 OA
ENDBRANCH  34  43
ENDBRANCH  30  32
ENDBRANCH  28  30
ENDBRANCH  27  28
ENDBRANCH   2  27
TORSDOF 22
