REMARK VINA RESULT:    -7.171      2.094      2.896
REMARK INTER + INTRA:         -14.637
REMARK INTER:                 -12.812
REMARK INTRA:                  -1.825
REMARK UNBOUND:                -1.807
REMARK  Name = lig_assembled_75.pdb
REMARK  14 active torsions:
REMARK  status: ('A' for Active; 'I' for Inactive)
REMARK    1  A    between atoms: _2  and  _8
REMARK    2  A    between atoms: _5  and  _6
REMARK    3  A    between atoms: _5  and  _18
REMARK    4  A    between atoms: _10  and  _11
REMARK    5  A    between atoms: _12  and  _13
REMARK    6  A    between atoms: _13  and  _16
REMARK    7  A    between atoms: _18  and  _20
REMARK    8  A    between atoms: _19  and  _24
REMARK    9  A    between atoms: _20  and  _23
REMARK   10  A    between atoms: _28  and  _38
REMARK   11  A    between atoms: _30  and  _31
REMARK   12  A    between atoms: _32  and  _34
REMARK   13  A    between atoms: _34  and  _36
REMARK   14  A    between atoms: _36  and  _38
REMARK                            x       y       z     vdW  Elec       q    Type
REMARK                         _______ _______ _______ _____ _____    ______ ____
ROOT
ATOM      1  C   UNL     1      28.272  17.760  -0.553  0.00  0.00    +0.400 C 
ATOM      2  N   UNL     1      29.442  17.514   0.125  0.00  0.00    -0.278 N 
ATOM      3  H   UNL     1      29.402  18.200   0.944  0.00  0.00    +0.152 HD
ATOM      4  O   UNL     1      27.439  18.493  -0.025  0.00  0.00    -0.226 OA
ENDROOT
BRANCH   2   5
ATOM      5  C   UNL     1      30.678  16.744   0.234  0.00  0.00    +0.152 C 
BRANCH   5   6
ATOM      6  C   UNL     1      30.530  15.210   0.185  0.00  0.00    +0.193 C 
ATOM      7  O   UNL     1      31.214  14.764  -1.007  0.00  0.00    -0.219 OA
BRANCH   6   8
ATOM      8  C   UNL     1      31.173  14.392   1.327  0.00  0.00    +0.212 C 
ATOM      9  O   UNL     1      31.516  15.250   2.427  0.00  0.00    -0.218 OA
BRANCH   8  10
ATOM     10  C   UNL     1      30.249  13.232   1.861  0.00  0.00    +0.171 C 
ATOM     11  O   UNL     1      29.992  13.336   3.258  0.00  0.00    -0.343 OA
ATOM     12  C   UNL     1      29.414  12.326   4.030  0.00  0.00    +0.220 C 
ATOM     13  C   UNL     1      30.123  10.975   3.825  0.00  0.00    +0.076 C 
ATOM     14  C   UNL     1      30.156  10.696   2.313  0.00  0.00    +0.177 C 
ATOM     15  O   UNL     1      30.766   9.436   2.069  0.00  0.00    -0.221 OA
ATOM     16  C   UNL     1      30.908  11.844   1.570  0.00  0.00    +0.155 C 
BRANCH  16  17
ATOM     17  N   UNL     1      30.947  11.578   0.134  0.00  0.00    -0.202 NA
ATOM     18  C   UNL     1      31.990  11.205  -0.651  0.00  0.00    +0.242 C 
ATOM     19  C   UNL     1      31.695  10.711  -2.043  0.00  0.00    +0.096 C 
ATOM     20  O   UNL     1      33.136  11.275  -0.212  0.00  0.00    -0.273 OA
ENDBRANCH  16  17
BRANCH  12  21
ATOM     21  C   UNL     1      27.808  12.194   3.828  0.00  0.00    +0.391 C 
ATOM     22  O   UNL     1      27.517  10.926   4.175  0.00  0.00    -0.243 OA
ATOM     23  O   UNL     1      27.349  13.444   3.691  0.00  0.00    -0.243 OA
ENDBRANCH  12  21
ENDBRANCH   8  10
ENDBRANCH   6   8
ENDBRANCH   5   6
ENDBRANCH   2   5
BRANCH   1  24
ATOM     24  O   UNL     1      28.174  17.210  -1.719  0.00  0.00    -0.450 OA
BRANCH  24  25
ATOM     25  C   UNL     1      27.569  16.092  -2.325  0.00  0.00    +0.240 C 
BRANCH  25  26
ATOM     26  C   UNL     1      26.581  16.355  -3.478  0.00  0.00    +0.100 C 
BRANCH  26  28
ATOM     27  N   UNL     1      24.576  15.183  -4.329  0.00  0.00    -0.134 NA
ATOM     28  C   UNL     1      25.337  15.590  -3.272  0.00  0.00    +0.086 A 
ATOM     29  C   UNL     1      24.744  15.174  -2.103  0.00  0.00    +0.139 A 
ATOM     30  N   UNL     1      23.607  14.508  -2.498  0.00  0.00    -0.220 N 
ATOM     31  N   UNL     1      23.526  14.528  -3.852  0.00  0.00    -0.061 NA
BRANCH  30  32
ATOM     32  C   UNL     1      22.608  13.898  -1.697  0.00  0.00    +0.068 A 
ATOM     33  C   UNL     1      22.960  12.832  -0.850  0.00  0.00    +0.035 A 
ATOM     34  C   UNL     1      21.987  12.163  -0.094  0.00  0.00    -0.023 A 
ATOM     35  C   UNL     1      20.663  12.617  -0.149  0.00  0.00    +0.008 A 
ATOM     36  C   UNL     1      20.311  13.689  -0.973  0.00  0.00    +0.003 A 
ATOM     37  C   UNL     1      21.276  14.324  -1.753  0.00  0.00    +0.028 A 
BRANCH  34  38
ATOM     38  C   UNL     1      22.307  11.016   0.768  0.00  0.00    +0.015 C 
ATOM     39  C   UNL     1      23.094  11.096   1.853  0.00  0.00    +0.092 C 
BRANCH  39  40
ATOM     40  C   UNL     1      23.399   9.875   2.626  0.00  0.00    +0.330 C 
ATOM     41  O   UNL     1      24.101   9.841   3.621  0.00  0.00    -0.246 OA
BRANCH  40  42
ATOM     42  O   UNL     1      22.795   8.787   2.108  0.00  0.00    -0.478 OA
ATOM     43  H   UNL     1      23.382   8.150   1.662  0.00  0.00    +0.295 HD
ENDBRANCH  40  42
ENDBRANCH  39  40
ENDBRANCH  34  38
ENDBRANCH  30  32
ENDBRANCH  26  28
ENDBRANCH  25  26
ENDBRANCH  24  25
ENDBRANCH   1  24
TORSDOF 14
