REMARK VINA RESULT:    -7.309      2.266      3.686
REMARK INTER + INTRA:         -13.327
REMARK INTER:                 -12.119
REMARK INTRA:                  -1.208
REMARK UNBOUND:                -1.318
REMARK  Name = lig_assembled_40.pdb
REMARK  12 active torsions:
REMARK  status: ('A' for Active; 'I' for Inactive)
REMARK    1  A    between atoms: _2  and  _8
REMARK    2  A    between atoms: _5  and  _6
REMARK    3  A    between atoms: _5  and  _14
REMARK    4  A    between atoms: _11  and  _12
REMARK    5  A    between atoms: _14  and  _16
REMARK    6  A    between atoms: _15  and  _20
REMARK    7  A    between atoms: _16  and  _19
REMARK    8  A    between atoms: _24  and  _34
REMARK    9  A    between atoms: _26  and  _27
REMARK   10  A    between atoms: _28  and  _30
REMARK   11  A    between atoms: _30  and  _32
REMARK   12  A    between atoms: _32  and  _34
REMARK                            x       y       z     vdW  Elec       q    Type
REMARK                         _______ _______ _______ _____ _____    ______ ____
ROOT
ATOM      1  C   UNL     1      28.254  17.195  -0.530  0.00  0.00    +0.400 C 
ATOM      2  N   UNL     1      28.969  16.163   0.030  0.00  0.00    -0.278 N 
ATOM      3  H   UNL     1      29.159  16.505   1.025  0.00  0.00    +0.152 HD
ATOM      4  O   UNL     1      27.865  18.097   0.207  0.00  0.00    -0.226 OA
ENDROOT
BRANCH   1   5
ATOM      5  O   UNL     1      28.085  17.129  -1.810  0.00  0.00    -0.450 OA
BRANCH   5   6
ATOM      6  C   UNL     1      27.094  17.404  -2.772  0.00  0.00    +0.240 C 
BRANCH   6   7
ATOM      7  C   UNL     1      26.684  16.259  -3.718  0.00  0.00    +0.100 C 
BRANCH   7   9
ATOM      8  N   UNL     1      25.493  14.661  -2.249  0.00  0.00    -0.134 NA
ATOM      9  C   UNL     1      25.453  15.607  -3.232  0.00  0.00    +0.086 A 
ATOM     10  C   UNL     1      24.147  15.805  -3.612  0.00  0.00    +0.139 A 
ATOM     11  N   UNL     1      23.410  14.971  -2.804  0.00  0.00    -0.220 N 
ATOM     12  N   UNL     1      24.250  14.272  -2.001  0.00  0.00    -0.061 NA
BRANCH  11  13
ATOM     13  C   UNL     1      21.999  14.834  -2.726  0.00  0.00    +0.067 A 
ATOM     14  C   UNL     1      21.414  13.945  -1.815  0.00  0.00    +0.028 A 
ATOM     15  C   UNL     1      20.026  13.769  -1.799  0.00  0.00    +0.005 A 
ATOM     16  C   UNL     1      19.208  14.475  -2.687  0.00  0.00    -0.050 A 
ATOM     17  C   UNL     1      19.792  15.389  -3.571  0.00  0.00    +0.005 A 
ATOM     18  C   UNL     1      17.725  14.254  -2.704  0.00  0.00    +0.044 C 
ATOM     19  C   UNL     1      21.179  15.570  -3.593  0.00  0.00    +0.028 A 
ENDBRANCH  11  13
ENDBRANCH   7   9
ENDBRANCH   6   7
ENDBRANCH   5   6
ENDBRANCH   1   5
BRANCH   2  20
ATOM     20  C   UNL     1      29.560  14.835  -0.116  0.00  0.00    +0.152 C 
BRANCH  20  21
ATOM     21  C   UNL     1      31.098  14.761  -0.022  0.00  0.00    +0.193 C 
ATOM     22  O   UNL     1      31.609  15.977  -0.611  0.00  0.00    -0.219 OA
BRANCH  21  23
ATOM     23  C   UNL     1      31.727  14.721   1.388  0.00  0.00    +0.212 C 
ATOM     24  O   UNL     1      31.274  15.837   2.171  0.00  0.00    -0.218 OA
BRANCH  23  25
ATOM     25  C   UNL     1      31.412  13.392   2.175  0.00  0.00    +0.171 C 
ATOM     26  O   UNL     1      30.194  13.465   2.908  0.00  0.00    -0.343 OA
ATOM     27  C   UNL     1      29.799  12.537   3.874  0.00  0.00    +0.220 C 
ATOM     28  C   UNL     1      30.908  12.284   4.910  0.00  0.00    +0.076 C 
ATOM     29  C   UNL     1      32.185  11.911   4.138  0.00  0.00    +0.177 C 
ATOM     30  O   UNL     1      33.235  11.627   5.052  0.00  0.00    -0.221 OA
ATOM     31  C   UNL     1      32.579  13.064   3.163  0.00  0.00    +0.155 C 
BRANCH  31  32
ATOM     32  N   UNL     1      33.796  12.716   2.433  0.00  0.00    -0.202 NA
ATOM     33  C   UNL     1      35.026  13.289   2.474  0.00  0.00    +0.242 C 
ATOM     34  C   UNL     1      36.179  12.553   1.844  0.00  0.00    +0.096 C 
ATOM     35  O   UNL     1      35.170  14.381   3.020  0.00  0.00    -0.273 OA
ENDBRANCH  31  32
BRANCH  27  36
ATOM     36  C   UNL     1      29.241  11.147   3.245  0.00  0.00    +0.391 C 
ATOM     37  O   UNL     1      29.138  11.380   1.923  0.00  0.00    -0.243 OA
ATOM     38  O   UNL     1      29.380  10.224   4.206  0.00  0.00    -0.243 OA
ENDBRANCH  27  36
ENDBRANCH  23  25
ENDBRANCH  21  23
ENDBRANCH  20  21
ENDBRANCH   2  20
TORSDOF 11
