REMARK VINA RESULT:    -5.885      3.366      9.021
REMARK INTER + INTRA:         -15.641
REMARK INTER:                 -13.283
REMARK INTRA:                  -2.358
REMARK UNBOUND:                -2.358
REMARK  Name = lig_assembled_30.pdb
REMARK  22 active torsions:
REMARK  status: ('A' for Active; 'I' for Inactive)
REMARK    1  A    between atoms: _2  and  _8
REMARK    2  A    between atoms: _4  and  _17
REMARK    3  A    between atoms: _4  and  _18
REMARK    4  A    between atoms: _5  and  _6
REMARK    5  A    between atoms: _5  and  _20
REMARK    6  A    between atoms: _8  and  _9
REMARK    7  A    between atoms: _9  and  _10
REMARK    8  A    between atoms: _10  and  _11
REMARK    9  A    between atoms: _11  and  _12
REMARK   10  A    between atoms: _12  and  _13
REMARK   11  A    between atoms: _13  and  _14
REMARK   12  A    between atoms: _14  and  _15
REMARK   13  A    between atoms: _15  and  _16
REMARK   14  A    between atoms: _16  and  _17
REMARK   15  A    between atoms: _20  and  _22
REMARK   16  A    between atoms: _21  and  _26
REMARK   17  A    between atoms: _22  and  _25
REMARK   18  A    between atoms: _30  and  _40
REMARK   19  A    between atoms: _32  and  _33
REMARK   20  A    between atoms: _34  and  _36
REMARK   21  A    between atoms: _36  and  _38
REMARK   22  A    between atoms: _38  and  _40
REMARK                            x       y       z     vdW  Elec       q    Type
REMARK                         _______ _______ _______ _____ _____    ______ ____
ROOT
ATOM      1  C   UNL     1      28.085  17.157  -0.912  0.00  0.00    +0.400 C 
ATOM      2  N   UNL     1      27.022  17.104  -1.782  0.00  0.00    -0.278 N 
ATOM      3  H   UNL     1      26.356  17.850  -1.404  0.00  0.00    +0.152 HD
ATOM      4  O   UNL     1      28.123  18.077  -0.098  0.00  0.00    -0.226 OA
ENDROOT
BRANCH   1   5
ATOM      5  O   UNL     1      28.943  16.196  -1.018  0.00  0.00    -0.450 OA
BRANCH   5   6
ATOM      6  C   UNL     1      29.625  15.277  -0.196  0.00  0.00    +0.240 C 
BRANCH   6   7
ATOM      7  C   UNL     1      31.028  15.673   0.302  0.00  0.00    +0.100 C 
BRANCH   7   9
ATOM      8  N   UNL     1      32.681  13.978   1.027  0.00  0.00    -0.134 NA
ATOM      9  C   UNL     1      31.527  14.679   1.268  0.00  0.00    +0.086 A 
ATOM     10  C   UNL     1      31.004  14.281   2.479  0.00  0.00    +0.133 A 
ATOM     11  N   UNL     1      31.884  13.340   2.920  0.00  0.00    -0.251 N 
ATOM     12  N   UNL     1      32.888  13.157   2.047  0.00  0.00    -0.065 NA
BRANCH  11  13
ATOM     13  C   UNL     1      31.809  12.550   4.130  0.00  0.00    +0.145 C 
BRANCH  13  14
ATOM     14  C   UNL     1      32.514  11.210   3.958  0.00  0.00    +0.023 C 
BRANCH  14  15
ATOM     15  C   UNL     1      32.638  10.456   5.281  0.00  0.00    +0.002 C 
BRANCH  15  16
ATOM     16  C   UNL     1      31.554   9.382   5.379  0.00  0.00    +0.000 C 
BRANCH  16  17
ATOM     17  C   UNL     1      30.659   9.590   6.597  0.00  0.00    +0.000 C 
BRANCH  17  18
ATOM     18  C   UNL     1      31.343  10.495   7.624  0.00  0.00    +0.000 C 
BRANCH  18  19
ATOM     19  C   UNL     1      30.323  11.094   8.588  0.00  0.00    +0.000 C 
BRANCH  19  20
ATOM     20  C   UNL     1      30.644  12.553   8.913  0.00  0.00    +0.001 C 
BRANCH  20  21
ATOM     21  C   UNL     1      30.925  12.717  10.407  0.00  0.00    +0.011 C 
BRANCH  21  22
ATOM     22  C   UNL     1      32.264  12.101  10.804  0.00  0.00    +0.120 C 
BRANCH  22  23
ATOM     23  C   UNL     1      33.411  12.739  10.053  0.00  0.00    +0.305 C 
ATOM     24  O   UNL     1      34.137  12.172   9.252  0.00  0.00    -0.251 OA
BRANCH  23  25
ATOM     25  O   UNL     1      33.564  14.047  10.362  0.00  0.00    -0.481 OA
ATOM     26  H   UNL     1      32.745  14.475  10.677  0.00  0.00    +0.295 HD
ENDBRANCH  23  25
ENDBRANCH  22  23
ENDBRANCH  21  22
ENDBRANCH  20  21
ENDBRANCH  19  20
ENDBRANCH  18  19
ENDBRANCH  17  18
ENDBRANCH  16  17
ENDBRANCH  15  16
ENDBRANCH  14  15
ENDBRANCH  13  14
ENDBRANCH  11  13
ENDBRANCH   7   9
ENDBRANCH   6   7
ENDBRANCH   5   6
ENDBRANCH   1   5
BRANCH   2  27
ATOM     27  C   UNL     1      26.415  16.511  -2.971  0.00  0.00    +0.152 C 
BRANCH  27  28
ATOM     28  C   UNL     1      25.377  15.398  -2.721  0.00  0.00    +0.193 C 
ATOM     29  O   UNL     1      24.558  15.320  -3.908  0.00  0.00    -0.219 OA
BRANCH  28  30
ATOM     30  C   UNL     1      25.904  13.960  -2.521  0.00  0.00    +0.212 C 
ATOM     31  O   UNL     1      27.324  13.912  -2.734  0.00  0.00    -0.218 OA
BRANCH  30  32
ATOM     32  C   UNL     1      25.589  13.372  -1.093  0.00  0.00    +0.171 C 
ATOM     33  O   UNL     1      26.597  12.478  -0.634  0.00  0.00    -0.343 OA
ATOM     34  C   UNL     1      26.460  11.637   0.473  0.00  0.00    +0.220 C 
ATOM     35  C   UNL     1      25.158  10.819   0.411  0.00  0.00    +0.076 C 
ATOM     36  C   UNL     1      24.000  11.809   0.203  0.00  0.00    +0.177 C 
ATOM     37  O   UNL     1      22.765  11.108   0.178  0.00  0.00    -0.221 OA
ATOM     38  C   UNL     1      24.217  12.622  -1.112  0.00  0.00    +0.155 C 
BRANCH  38  39
ATOM     39  N   UNL     1      23.115  13.559  -1.317  0.00  0.00    -0.202 NA
ATOM     40  C   UNL     1      22.128  13.547  -2.248  0.00  0.00    +0.242 C 
ATOM     41  C   UNL     1      20.950  14.466  -2.054  0.00  0.00    +0.096 C 
ATOM     42  O   UNL     1      22.215  12.794  -3.216  0.00  0.00    -0.273 OA
ENDBRANCH  38  39
BRANCH  34  43
ATOM     43  C   UNL     1      26.613  12.408   1.895  0.00  0.00    +0.391 C 
ATOM     44  O   UNL     1      25.832  11.719   2.750  0.00  0.00    -0.243 OA
ATOM     45  O   UNL     1      27.663  13.227   1.760  0.00  0.00    -0.243 OA
ENDBRANCH  34  43
ENDBRANCH  30  32
ENDBRANCH  28  30
ENDBRANCH  27  28
ENDBRANCH   2  27
TORSDOF 22
