REMARK VINA RESULT:    -7.798      3.574     10.037
REMARK INTER + INTRA:         -14.574
REMARK INTER:                 -12.521
REMARK INTRA:                  -2.054
REMARK UNBOUND:                -1.762
REMARK  Name = lig_assembled_25.pdb
REMARK  11 active torsions:
REMARK  status: ('A' for Active; 'I' for Inactive)
REMARK    1  A    between atoms: _2  and  _8
REMARK    2  A    between atoms: _5  and  _6
REMARK    3  A    between atoms: _5  and  _20
REMARK    4  A    between atoms: _20  and  _22
REMARK    5  A    between atoms: _21  and  _26
REMARK    6  A    between atoms: _22  and  _25
REMARK    7  A    between atoms: _30  and  _40
REMARK    8  A    between atoms: _32  and  _33
REMARK    9  A    between atoms: _34  and  _36
REMARK   10  A    between atoms: _36  and  _38
REMARK   11  A    between atoms: _38  and  _40
REMARK                            x       y       z     vdW  Elec       q    Type
REMARK                         _______ _______ _______ _____ _____    ______ ____
ROOT
ATOM      1  C   UNL     1      26.723  15.304  -4.288  0.00  0.00    +0.400 C 
ATOM      2  N   UNL     1      26.854  13.935  -4.299  0.00  0.00    -0.278 N 
ATOM      3  H   UNL     1      26.430  13.654  -5.240  0.00  0.00    +0.152 HD
ATOM      4  O   UNL     1      26.368  15.861  -5.324  0.00  0.00    -0.226 OA
ENDROOT
BRANCH   1   5
ATOM      5  O   UNL     1      26.963  15.879  -3.155  0.00  0.00    -0.450 OA
BRANCH   5   6
ATOM      6  C   UNL     1      26.459  16.929  -2.363  0.00  0.00    +0.240 C 
BRANCH   6   7
ATOM      7  C   UNL     1      27.475  17.764  -1.560  0.00  0.00    +0.100 C 
BRANCH   7   9
ATOM      8  N   UNL     1      29.697  17.430  -0.535  0.00  0.00    -0.134 NA
ATOM      9  C   UNL     1      28.524  16.895  -0.996  0.00  0.00    +0.086 A 
ATOM     10  C   UNL     1      28.563  15.526  -0.847  0.00  0.00    +0.134 A 
ATOM     11  N   UNL     1      29.795  15.284  -0.305  0.00  0.00    -0.240 N 
ATOM     12  N   UNL     1      30.468  16.440  -0.111  0.00  0.00    -0.065 NA
BRANCH  11  13
ATOM     13  C   UNL     1      30.456  14.022  -0.018  0.00  0.00    +0.170 C 
ATOM     14  C   UNL     1      30.244  13.568   1.421  0.00  0.00    -0.011 A 
ATOM     15  C   UNL     1      31.492  13.356   2.047  0.00  0.00    -0.012 A 
ATOM     16  C   UNL     1      32.551  13.663   1.107  0.00  0.00    -0.012 A 
ATOM     17  C   UNL     1      33.925  13.575   1.244  0.00  0.00    +0.009 A 
ATOM     18  C   UNL     1      34.726  13.909   0.148  0.00  0.00    +0.001 A 
ATOM     19  C   UNL     1      34.151  14.330  -1.063  0.00  0.00    +0.000 A 
ATOM     20  C   UNL     1      32.764  14.422  -1.204  0.00  0.00    +0.006 A 
ATOM     21  C   UNL     1      31.553  12.915   3.359  0.00  0.00    +0.009 A 
ATOM     22  C   UNL     1      30.353  12.685   4.039  0.00  0.00    +0.001 A 
ATOM     23  C   UNL     1      29.114  12.895   3.410  0.00  0.00    +0.000 A 
ATOM     24  C   UNL     1      29.050  13.336   2.088  0.00  0.00    +0.006 A 
ATOM     25  C   UNL     1      31.975  14.088  -0.113  0.00  0.00    -0.011 A 
ENDBRANCH  11  13
ENDBRANCH   7   9
ENDBRANCH   6   7
ENDBRANCH   5   6
ENDBRANCH   1   5
BRANCH   2  26
ATOM     26  C   UNL     1      27.313  12.723  -3.626  0.00  0.00    +0.152 C 
BRANCH  26  27
ATOM     27  C   UNL     1      26.213  11.776  -3.105  0.00  0.00    +0.193 C 
ATOM     28  O   UNL     1      26.886  10.668  -2.467  0.00  0.00    -0.219 OA
BRANCH  27  29
ATOM     29  C   UNL     1      25.255  12.321  -2.021  0.00  0.00    +0.212 C 
ATOM     30  O   UNL     1      25.880  13.388  -1.290  0.00  0.00    -0.218 OA
BRANCH  29  31
ATOM     31  C   UNL     1      23.886  12.842  -2.603  0.00  0.00    +0.171 C 
ATOM     32  O   UNL     1      24.009  14.108  -3.242  0.00  0.00    -0.343 OA
ATOM     33  C   UNL     1      22.928  14.906  -3.625  0.00  0.00    +0.220 C 
ATOM     34  C   UNL     1      21.928  15.102  -2.472  0.00  0.00    +0.076 C 
ATOM     35  C   UNL     1      21.549  13.708  -1.946  0.00  0.00    +0.177 C 
ATOM     36  O   UNL     1      20.593  13.831  -0.902  0.00  0.00    -0.221 OA
ATOM     37  C   UNL     1      22.824  12.952  -1.460  0.00  0.00    +0.155 C 
BRANCH  37  38
ATOM     38  N   UNL     1      22.468  11.630  -0.952  0.00  0.00    -0.202 NA
ATOM     39  C   UNL     1      22.702  11.076   0.264  0.00  0.00    +0.242 C 
ATOM     40  C   UNL     1      21.970   9.809   0.626  0.00  0.00    +0.096 C 
ATOM     41  O   UNL     1      23.495  11.613   1.035  0.00  0.00    -0.273 OA
ENDBRANCH  37  38
BRANCH  33  42
ATOM     42  C   UNL     1      22.188  14.388  -4.976  0.00  0.00    +0.391 C 
ATOM     43  O   UNL     1      21.002  15.028  -4.989  0.00  0.00    -0.243 OA
ATOM     44  O   UNL     1      23.131  13.776  -5.702  0.00  0.00    -0.243 OA
ENDBRANCH  33  42
ENDBRANCH  29  31
ENDBRANCH  27  29
ENDBRANCH  26  27
ENDBRANCH   2  26
TORSDOF 11
