REMARK VINA RESULT:    -6.491      2.220      3.854
REMARK INTER + INTRA:         -12.915
REMARK INTER:                 -11.268
REMARK INTRA:                  -1.647
REMARK UNBOUND:                -1.681
REMARK  Name = lig_assembled_59.pdb
REMARK  13 active torsions:
REMARK  status: ('A' for Active; 'I' for Inactive)
REMARK    1  A    between atoms: _2  and  _9
REMARK    2  A    between atoms: _6  and  _7
REMARK    3  A    between atoms: _6  and  _15
REMARK    4  A    between atoms: _12  and  _13
REMARK    5  A    between atoms: _13  and  _14
REMARK    6  A    between atoms: _15  and  _17
REMARK    7  A    between atoms: _16  and  _21
REMARK    8  A    between atoms: _17  and  _20
REMARK    9  A    between atoms: _25  and  _35
REMARK   10  A    between atoms: _27  and  _28
REMARK   11  A    between atoms: _29  and  _31
REMARK   12  A    between atoms: _31  and  _33
REMARK   13  A    between atoms: _33  and  _35
REMARK                            x       y       z     vdW  Elec       q    Type
REMARK                         _______ _______ _______ _____ _____    ______ ____
ROOT
ATOM      1  C   UNL     1      27.133  16.298  -2.400  0.00  0.00    +0.400 C 
ATOM      2  N   UNL     1      27.412  15.230  -1.580  0.00  0.00    -0.278 N 
ATOM      3  H   UNL     1      28.331  15.511  -1.113  0.00  0.00    +0.152 HD
ATOM      4  O   UNL     1      27.819  17.311  -2.286  0.00  0.00    -0.226 OA
ENDROOT
BRANCH   1   5
ATOM      5  O   UNL     1      26.176  16.116  -3.250  0.00  0.00    -0.450 OA
BRANCH   5   6
ATOM      6  C   UNL     1      26.001  15.900  -4.631  0.00  0.00    +0.240 C 
BRANCH   6   7
ATOM      7  C   UNL     1      24.888  14.925  -5.062  0.00  0.00    +0.100 C 
BRANCH   7   9
ATOM      8  N   UNL     1      22.993  15.215  -3.501  0.00  0.00    -0.134 NA
ATOM      9  C   UNL     1      24.095  14.505  -3.891  0.00  0.00    +0.087 A 
ATOM     10  C   UNL     1      24.269  13.440  -3.040  0.00  0.00    +0.141 A 
ATOM     11  N   UNL     1      23.239  13.540  -2.133  0.00  0.00    -0.202 N 
ATOM     12  N   UNL     1      22.475  14.622  -2.434  0.00  0.00    -0.059 NA
BRANCH  11  13
ATOM     13  C   UNL     1      22.974  12.686  -1.029  0.00  0.00    +0.156 A 
ATOM     14  C   UNL     1      23.995  11.873  -0.542  0.00  0.00    +0.048 A 
ATOM     15  C   UNL     1      23.716  11.005   0.513  0.00  0.00    +0.011 A 
ATOM     16  C   UNL     1      22.435  10.970   1.067  0.00  0.00    -0.004 A 
ATOM     17  C   UNL     1      21.480  11.819   0.517  0.00  0.00    +0.119 A 
ATOM     18  N   UNL     1      21.718  12.677  -0.504  0.00  0.00    -0.236 NA
BRANCH  16  19
ATOM     19  C   UNL     1      22.090   9.980   2.141  0.00  0.00    +0.192 C 
BRANCH  19  20
ATOM     20  O   UNL     1      21.769  10.631   3.361  0.00  0.00    -0.390 OA
ATOM     21  H   UNL     1      22.045  10.037   4.080  0.00  0.00    +0.210 HD
ENDBRANCH  19  20
ENDBRANCH  16  19
ENDBRANCH  11  13
ENDBRANCH   7   9
ENDBRANCH   6   7
ENDBRANCH   5   6
ENDBRANCH   1   5
BRANCH   2  22
ATOM     22  C   UNL     1      27.017  13.923  -1.062  0.00  0.00    +0.152 C 
BRANCH  22  23
ATOM     23  C   UNL     1      27.705  12.701  -1.706  0.00  0.00    +0.193 C 
ATOM     24  O   UNL     1      28.009  13.067  -3.070  0.00  0.00    -0.219 OA
BRANCH  23  25
ATOM     25  C   UNL     1      29.060  12.251  -1.116  0.00  0.00    +0.212 C 
ATOM     26  O   UNL     1      30.012  12.019  -2.167  0.00  0.00    -0.218 OA
BRANCH  25  27
ATOM     27  C   UNL     1      29.674  13.287  -0.100  0.00  0.00    +0.171 C 
ATOM     28  O   UNL     1      30.811  13.963  -0.626  0.00  0.00    -0.343 OA
ATOM     29  C   UNL     1      31.686  14.743   0.134  0.00  0.00    +0.220 C 
ATOM     30  C   UNL     1      32.173  13.998   1.388  0.00  0.00    +0.076 C 
ATOM     31  C   UNL     1      30.929  13.499   2.142  0.00  0.00    +0.177 C 
ATOM     32  O   UNL     1      31.323  12.835   3.335  0.00  0.00    -0.221 OA
ATOM     33  C   UNL     1      30.084  12.562   1.224  0.00  0.00    +0.155 C 
BRANCH  33  34
ATOM     34  N   UNL     1      28.905  12.080   1.939  0.00  0.00    -0.202 NA
ATOM     35  C   UNL     1      27.850  12.773   2.439  0.00  0.00    +0.242 C 
ATOM     36  C   UNL     1      26.629  12.004   2.870  0.00  0.00    +0.096 C 
ATOM     37  O   UNL     1      27.914  13.998   2.527  0.00  0.00    -0.273 OA
ENDBRANCH  33  34
BRANCH  29  38
ATOM     38  C   UNL     1      31.090  16.209   0.504  0.00  0.00    +0.391 C 
ATOM     39  O   UNL     1      30.362  16.569  -0.571  0.00  0.00    -0.243 OA
ATOM     40  O   UNL     1      31.288  16.367   1.818  0.00  0.00    -0.243 OA
ENDBRANCH  29  38
ENDBRANCH  25  27
ENDBRANCH  23  25
ENDBRANCH  22  23
ENDBRANCH   2  22
TORSDOF 13
