REMARK VINA RESULT:    -6.273      2.749      4.237
REMARK INTER + INTRA:         -12.817
REMARK INTER:                 -10.529
REMARK INTRA:                  -2.288
REMARK UNBOUND:                -2.144
REMARK  Name = lig_assembled_63.pdb
REMARK  12 active torsions:
REMARK  status: ('A' for Active; 'I' for Inactive)
REMARK    1  A    between atoms: _2  and  _10
REMARK    2  A    between atoms: _6  and  _14
REMARK    3  A    between atoms: _7  and  _8
REMARK    4  A    between atoms: _7  and  _15
REMARK    5  A    between atoms: _15  and  _17
REMARK    6  A    between atoms: _16  and  _21
REMARK    7  A    between atoms: _17  and  _20
REMARK    8  A    between atoms: _25  and  _35
REMARK    9  A    between atoms: _27  and  _28
REMARK   10  A    between atoms: _29  and  _31
REMARK   11  A    between atoms: _31  and  _33
REMARK   12  A    between atoms: _33  and  _35
REMARK                            x       y       z     vdW  Elec       q    Type
REMARK                         _______ _______ _______ _____ _____    ______ ____
ROOT
ATOM      1  C   UNL     1      27.802  13.053   2.773  0.00  0.00    +0.400 C 
ATOM      2  N   UNL     1      28.128  14.139   1.995  0.00  0.00    -0.278 N 
ATOM      3  H   UNL     1      27.516  14.920   2.390  0.00  0.00    +0.152 HD
ATOM      4  O   UNL     1      27.103  13.241   3.765  0.00  0.00    -0.226 OA
ENDROOT
BRANCH   2   5
ATOM      5  C   UNL     1      28.928  14.693   0.905  0.00  0.00    +0.152 C 
BRANCH   5   6
ATOM      6  C   UNL     1      30.289  14.015   0.648  0.00  0.00    +0.193 C 
ATOM      7  O   UNL     1      30.419  13.875  -0.784  0.00  0.00    -0.219 OA
BRANCH   6   8
ATOM      8  C   UNL     1      31.561  14.779   1.078  0.00  0.00    +0.212 C 
ATOM      9  O   UNL     1      31.216  15.906   1.900  0.00  0.00    -0.218 OA
BRANCH   8  10
ATOM     10  C   UNL     1      32.593  13.881   1.861  0.00  0.00    +0.171 C 
ATOM     11  O   UNL     1      32.946  14.429   3.128  0.00  0.00    -0.343 OA
ATOM     12  C   UNL     1      34.007  13.976   3.914  0.00  0.00    +0.220 C 
ATOM     13  C   UNL     1      35.315  13.884   3.109  0.00  0.00    +0.076 C 
ATOM     14  C   UNL     1      35.029  13.036   1.858  0.00  0.00    +0.177 C 
ATOM     15  O   UNL     1      36.218  12.885   1.096  0.00  0.00    -0.221 OA
ATOM     16  C   UNL     1      33.893  13.692   1.013  0.00  0.00    +0.155 C 
BRANCH  16  17
ATOM     17  N   UNL     1      33.623  12.893  -0.180  0.00  0.00    -0.202 NA
ATOM     18  C   UNL     1      33.674  13.244  -1.490  0.00  0.00    +0.242 C 
ATOM     19  C   UNL     1      33.637  12.151  -2.526  0.00  0.00    +0.096 C 
ATOM     20  O   UNL     1      33.750  14.432  -1.798  0.00  0.00    -0.273 OA
ENDBRANCH  16  17
BRANCH  12  21
ATOM     21  C   UNL     1      33.688  12.589   4.696  0.00  0.00    +0.391 C 
ATOM     22  O   UNL     1      34.892  12.116   5.072  0.00  0.00    -0.243 OA
ATOM     23  O   UNL     1      32.370  12.593   4.933  0.00  0.00    -0.243 OA
ENDBRANCH  12  21
ENDBRANCH   8  10
ENDBRANCH   6   8
ENDBRANCH   5   6
ENDBRANCH   2   5
BRANCH   1  24
ATOM     24  O   UNL     1      28.247  11.913   2.358  0.00  0.00    -0.450 OA
BRANCH  24  25
ATOM     25  C   UNL     1      27.841  10.841   1.539  0.00  0.00    +0.240 C 
BRANCH  25  26
ATOM     26  C   UNL     1      26.563  11.033   0.701  0.00  0.00    +0.100 C 
BRANCH  26  28
ATOM     27  N   UNL     1      27.797  11.604  -1.363  0.00  0.00    -0.134 NA
ATOM     28  C   UNL     1      26.829  11.914  -0.451  0.00  0.00    +0.087 A 
ATOM     29  C   UNL     1      26.246  13.106  -0.809  0.00  0.00    +0.141 A 
ATOM     30  N   UNL     1      26.925  13.511  -1.941  0.00  0.00    -0.201 N 
ATOM     31  N   UNL     1      27.841  12.575  -2.265  0.00  0.00    -0.059 NA
BRANCH  30  32
ATOM     32  C   UNL     1      26.751  14.744  -2.638  0.00  0.00    +0.173 A 
ATOM     33  C   UNL     1      26.178  14.808  -3.911  0.00  0.00    +0.096 A 
ATOM     34  C   UNL     1      26.144  16.061  -4.545  0.00  0.00    +0.024 A 
ATOM     35  C   UNL     1      26.642  17.192  -3.906  0.00  0.00    +0.021 A 
ATOM     36  C   UNL     1      27.155  17.046  -2.634  0.00  0.00    +0.113 A 
ATOM     37  N   UNL     1      27.223  15.859  -1.993  0.00  0.00    -0.235 NA
BRANCH  33  38
ATOM     38  C   UNL     1      25.602  13.706  -4.622  0.00  0.00    +0.103 C 
ATOM     39  N   UNL     1      25.231  12.795  -5.241  0.00  0.00    -0.191 NA
ENDBRANCH  33  38
ENDBRANCH  30  32
ENDBRANCH  26  28
ENDBRANCH  25  26
ENDBRANCH  24  25
ENDBRANCH   1  24
TORSDOF 12
