REMARK VINA RESULT:    -6.717      3.602      8.746
REMARK INTER + INTRA:         -13.253
REMARK INTER:                 -10.771
REMARK INTRA:                  -2.482
REMARK UNBOUND:                -1.431
REMARK  Name = lig_assembled_36.pdb
REMARK  13 active torsions:
REMARK  status: ('A' for Active; 'I' for Inactive)
REMARK    1  A    between atoms: _2  and  _9
REMARK    2  A    between atoms: _6  and  _7
REMARK    3  A    between atoms: _6  and  _16
REMARK    4  A    between atoms: _9  and  _10
REMARK    5  A    between atoms: _13  and  _14
REMARK    6  A    between atoms: _16  and  _18
REMARK    7  A    between atoms: _17  and  _22
REMARK    8  A    between atoms: _18  and  _21
REMARK    9  A    between atoms: _26  and  _36
REMARK   10  A    between atoms: _28  and  _29
REMARK   11  A    between atoms: _30  and  _32
REMARK   12  A    between atoms: _32  and  _34
REMARK   13  A    between atoms: _34  and  _36
REMARK                            x       y       z     vdW  Elec       q    Type
REMARK                         _______ _______ _______ _____ _____    ______ ____
ROOT
ATOM      1  C   UNL     1      28.536  17.001  -0.692  0.00  0.00    +0.400 C 
ATOM      2  N   UNL     1      27.460  16.538  -1.411  0.00  0.00    -0.278 N 
ATOM      3  H   UNL     1      26.667  17.193  -1.119  0.00  0.00    +0.152 HD
ATOM      4  O   UNL     1      28.415  18.063  -0.087  0.00  0.00    -0.226 OA
ENDROOT
BRANCH   1   5
ATOM      5  O   UNL     1      29.582  16.240  -0.697  0.00  0.00    -0.450 OA
BRANCH   5   6
ATOM      6  C   UNL     1      30.278  15.376   0.169  0.00  0.00    +0.240 C 
BRANCH   6   7
ATOM      7  C   UNL     1      29.998  13.866   0.043  0.00  0.00    +0.100 C 
BRANCH   7   9
ATOM      8  N   UNL     1      28.460  14.279   1.941  0.00  0.00    -0.134 NA
ATOM      9  C   UNL     1      29.190  13.399   1.185  0.00  0.00    +0.086 A 
ATOM     10  C   UNL     1      28.996  12.123   1.665  0.00  0.00    +0.134 A 
ATOM     11  N   UNL     1      28.066  12.284   2.649  0.00  0.00    -0.247 N 
ATOM     12  N   UNL     1      27.789  13.585   2.850  0.00  0.00    -0.065 NA
BRANCH  11  13
ATOM     13  C   UNL     1      27.394  11.257   3.418  0.00  0.00    +0.180 C 
BRANCH  13  14
ATOM     14  C   UNL     1      26.188  10.719   2.681  0.00  0.00    -0.026 A 
ATOM     15  C   UNL     1      24.975  11.424   2.674  0.00  0.00    +0.007 A 
ATOM     16  C   UNL     1      23.866  10.922   1.985  0.00  0.00    +0.019 A 
ATOM     17  C   UNL     1      23.953   9.707   1.300  0.00  0.00    +0.052 A 
ATOM     18  C   UNL     1      25.151   8.987   1.322  0.00  0.00    +0.019 A 
ATOM     19  C   UNL     1      26.259   9.488   2.011  0.00  0.00    +0.007 A 
BRANCH  17  20
ATOM     20  C   UNL     1      22.821   9.204   0.576  0.00  0.00    +0.099 C 
ATOM     21  N   UNL     1      21.902   8.807  -0.011  0.00  0.00    -0.191 NA
ENDBRANCH  17  20
ENDBRANCH  13  14
ENDBRANCH  11  13
ENDBRANCH   7   9
ENDBRANCH   6   7
ENDBRANCH   5   6
ENDBRANCH   1   5
BRANCH   2  22
ATOM     22  C   UNL     1      26.930  15.586  -2.384  0.00  0.00    +0.152 C 
BRANCH  22  23
ATOM     23  C   UNL     1      25.612  15.987  -3.079  0.00  0.00    +0.193 C 
ATOM     24  O   UNL     1      25.860  17.244  -3.746  0.00  0.00    -0.219 OA
BRANCH  23  25
ATOM     25  C   UNL     1      25.080  15.058  -4.193  0.00  0.00    +0.212 C 
ATOM     26  O   UNL     1      26.034  14.024  -4.482  0.00  0.00    -0.218 OA
BRANCH  25  27
ATOM     27  C   UNL     1      23.699  14.386  -3.837  0.00  0.00    +0.171 C 
ATOM     28  O   UNL     1      22.616  15.309  -3.871  0.00  0.00    -0.343 OA
ATOM     29  C   UNL     1      21.339  15.044  -3.368  0.00  0.00    +0.220 C 
ATOM     30  C   UNL     1      21.394  14.498  -1.931  0.00  0.00    +0.076 C 
ATOM     31  C   UNL     1      22.353  13.296  -1.928  0.00  0.00    +0.177 C 
ATOM     32  O   UNL     1      22.409  12.728  -0.628  0.00  0.00    -0.221 OA
ATOM     33  C   UNL     1      23.768  13.736  -2.416  0.00  0.00    +0.155 C 
BRANCH  33  34
ATOM     34  N   UNL     1      24.684  12.598  -2.409  0.00  0.00    -0.202 NA
ATOM     35  C   UNL     1      25.528  12.171  -1.436  0.00  0.00    +0.242 C 
ATOM     36  C   UNL     1      26.142  10.802  -1.573  0.00  0.00    +0.096 C 
ATOM     37  O   UNL     1      25.769  12.900  -0.476  0.00  0.00    -0.273 OA
ENDBRANCH  33  34
BRANCH  29  38
ATOM     38  C   UNL     1      20.448  14.090  -4.335  0.00  0.00    +0.391 C 
ATOM     39  O   UNL     1      19.415  13.687  -3.570  0.00  0.00    -0.243 OA
ATOM     40  O   UNL     1      20.896  14.303  -5.579  0.00  0.00    -0.243 OA
ENDBRANCH  29  38
ENDBRANCH  25  27
ENDBRANCH  23  25
ENDBRANCH  22  23
ENDBRANCH   2  22
TORSDOF 13
