REMARK VINA RESULT:    -6.246      3.719      5.423
REMARK INTER + INTRA:         -12.892
REMARK INTER:                 -10.936
REMARK INTRA:                  -1.956
REMARK UNBOUND:                -1.716
REMARK  Name = lig_assembled_32.pdb
REMARK  14 active torsions:
REMARK  status: ('A' for Active; 'I' for Inactive)
REMARK    1  A    between atoms: _2  and  _8
REMARK    2  A    between atoms: _4  and  _9
REMARK    3  A    between atoms: _4  and  _10
REMARK    4  A    between atoms: _5  and  _6
REMARK    5  A    between atoms: _5  and  _12
REMARK    6  A    between atoms: _8  and  _9
REMARK    7  A    between atoms: _12  and  _14
REMARK    8  A    between atoms: _13  and  _18
REMARK    9  A    between atoms: _14  and  _17
REMARK   10  A    between atoms: _22  and  _32
REMARK   11  A    between atoms: _24  and  _25
REMARK   12  A    between atoms: _26  and  _28
REMARK   13  A    between atoms: _28  and  _30
REMARK   14  A    between atoms: _30  and  _32
REMARK                            x       y       z     vdW  Elec       q    Type
REMARK                         _______ _______ _______ _____ _____    ______ ____
ROOT
ATOM      1  C   UNL     1      27.530  17.634  -1.926  0.00  0.00    +0.152 C 
ENDROOT
BRANCH   1   3
ATOM      2  C   UNL     1      26.070  16.451  -3.905  0.00  0.00    +0.400 C 
ATOM      3  N   UNL     1      27.101  16.901  -3.115  0.00  0.00    -0.278 N 
ATOM      4  H   UNL     1      27.974  16.556  -3.627  0.00  0.00    +0.152 HD
ATOM      5  O   UNL     1      26.347  15.974  -5.002  0.00  0.00    -0.226 OA
BRANCH   2   6
ATOM      6  O   UNL     1      24.888  16.547  -3.391  0.00  0.00    -0.450 OA
BRANCH   6   7
ATOM      7  C   UNL     1      23.841  15.712  -2.955  0.00  0.00    +0.240 C 
BRANCH   7   8
ATOM      8  C   UNL     1      24.222  14.331  -2.387  0.00  0.00    +0.100 C 
BRANCH   8  10
ATOM      9  N   UNL     1      21.823  14.257  -1.785  0.00  0.00    -0.134 NA
ATOM     10  C   UNL     1      23.088  13.751  -1.645  0.00  0.00    +0.086 A 
ATOM     11  C   UNL     1      23.057  12.703  -0.751  0.00  0.00    +0.133 A 
ATOM     12  N   UNL     1      21.750  12.632  -0.378  0.00  0.00    -0.251 N 
ATOM     13  N   UNL     1      21.010  13.564  -1.000  0.00  0.00    -0.065 NA
BRANCH  12  14
ATOM     14  C   UNL     1      21.132  11.713   0.552  0.00  0.00    +0.156 C 
BRANCH  14  15
ATOM     15  C   UNL     1      21.805  11.747   1.918  0.00  0.00    +0.143 C 
BRANCH  15  16
ATOM     16  C   UNL     1      22.170  10.356   2.350  0.00  0.00    +0.306 C 
ATOM     17  O   UNL     1      21.731   9.332   1.849  0.00  0.00    -0.251 OA
BRANCH  16  18
ATOM     18  O   UNL     1      23.042  10.343   3.382  0.00  0.00    -0.481 OA
ATOM     19  H   UNL     1      23.298   9.449   3.681  0.00  0.00    +0.295 HD
ENDBRANCH  16  18
ENDBRANCH  15  16
ENDBRANCH  14  15
ENDBRANCH  12  14
ENDBRANCH   8  10
ENDBRANCH   7   8
ENDBRANCH   6   7
ENDBRANCH   2   6
ENDBRANCH   1   3
BRANCH   1  20
ATOM     20  C   UNL     1      28.483  16.885  -0.973  0.00  0.00    +0.193 C 
ATOM     21  O   UNL     1      28.449  17.590   0.288  0.00  0.00    -0.219 OA
BRANCH  20  22
ATOM     22  C   UNL     1      28.128  15.426  -0.607  0.00  0.00    +0.212 C 
ATOM     23  O   UNL     1      28.069  14.613  -1.790  0.00  0.00    -0.218 OA
BRANCH  22  24
ATOM     24  C   UNL     1      29.144  14.771   0.405  0.00  0.00    +0.171 C 
ATOM     25  O   UNL     1      30.501  15.059   0.082  0.00  0.00    -0.343 OA
ATOM     26  C   UNL     1      31.601  14.417   0.656  0.00  0.00    +0.220 C 
ATOM     27  C   UNL     1      31.462  12.886   0.597  0.00  0.00    +0.076 C 
ATOM     28  C   UNL     1      30.103  12.520   1.217  0.00  0.00    +0.177 C 
ATOM     29  O   UNL     1      29.941  11.109   1.224  0.00  0.00    -0.221 OA
ATOM     30  C   UNL     1      28.949  13.220   0.433  0.00  0.00    +0.155 C 
BRANCH  30  31
ATOM     31  N   UNL     1      27.656  12.870   1.015  0.00  0.00    -0.202 NA
ATOM     32  C   UNL     1      26.652  12.112   0.505  0.00  0.00    +0.242 C 
ATOM     33  C   UNL     1      25.551  11.666   1.432  0.00  0.00    +0.096 C 
ATOM     34  O   UNL     1      26.664  11.809  -0.687  0.00  0.00    -0.273 OA
ENDBRANCH  30  31
BRANCH  26  35
ATOM     35  C   UNL     1      31.936  14.929   2.161  0.00  0.00    +0.391 C 
ATOM     36  O   UNL     1      32.831  14.042   2.638  0.00  0.00    -0.243 OA
ATOM     37  O   UNL     1      31.445  16.171   2.247  0.00  0.00    -0.243 OA
ENDBRANCH  26  35
ENDBRANCH  22  24
ENDBRANCH  20  22
ENDBRANCH   1  20
TORSDOF 14
