REMARK VINA RESULT:    -7.404      2.727      9.505
REMARK INTER + INTRA:         -14.143
REMARK INTER:                 -12.556
REMARK INTRA:                  -1.587
REMARK UNBOUND:                -1.544
REMARK  Name = lig_assembled_69.pdb
REMARK  13 active torsions:
REMARK  status: ('A' for Active; 'I' for Inactive)
REMARK    1  A    between atoms: _2  and  _8
REMARK    2  A    between atoms: _5  and  _6
REMARK    3  A    between atoms: _5  and  _16
REMARK    4  A    between atoms: _10  and  _15
REMARK    5  A    between atoms: _13  and  _14
REMARK    6  A    between atoms: _16  and  _18
REMARK    7  A    between atoms: _17  and  _22
REMARK    8  A    between atoms: _18  and  _21
REMARK    9  A    between atoms: _26  and  _36
REMARK   10  A    between atoms: _28  and  _29
REMARK   11  A    between atoms: _30  and  _32
REMARK   12  A    between atoms: _32  and  _34
REMARK   13  A    between atoms: _34  and  _36
REMARK                            x       y       z     vdW  Elec       q    Type
REMARK                         _______ _______ _______ _____ _____    ______ ____
ROOT
ATOM      1  C   UNL     1      28.931  17.166  -0.528  0.00  0.00    +0.400 C 
ATOM      2  N   UNL     1      29.250  16.078   0.250  0.00  0.00    -0.278 N 
ATOM      3  H   UNL     1      29.995  16.460   0.915  0.00  0.00    +0.152 HD
ATOM      4  O   UNL     1      29.376  18.263  -0.200  0.00  0.00    -0.226 OA
ENDROOT
BRANCH   1   5
ATOM      5  O   UNL     1      28.203  16.917  -1.567  0.00  0.00    -0.450 OA
BRANCH   5   6
ATOM      6  C   UNL     1      27.099  17.460  -2.253  0.00  0.00    +0.240 C 
BRANCH   6   7
ATOM      7  C   UNL     1      26.922  17.073  -3.734  0.00  0.00    +0.100 C 
BRANCH   7   9
ATOM      8  N   UNL     1      25.549  15.541  -5.101  0.00  0.00    -0.134 NA
ATOM      9  C   UNL     1      25.933  15.988  -3.866  0.00  0.00    +0.086 A 
ATOM     10  C   UNL     1      25.255  15.281  -2.898  0.00  0.00    +0.134 A 
ATOM     11  N   UNL     1      24.463  14.428  -3.609  0.00  0.00    -0.248 N 
ATOM     12  N   UNL     1      24.643  14.589  -4.932  0.00  0.00    -0.065 NA
BRANCH  11  13
ATOM     13  C   UNL     1      23.479  13.476  -3.098  0.00  0.00    +0.114 C 
ATOM     14  C   UNL     1      22.138  13.606  -3.830  0.00  0.00    +0.062 C 
ATOM     15  C   UNL     1      21.183  14.681  -3.304  0.00  0.00    +0.139 C 
ATOM     16  C   UNL     1      20.550  14.419  -1.967  0.00  0.00    +0.002 C 
ATOM     17  C   UNL     1      20.966  13.599  -0.989  0.00  0.00    +0.002 C 
ATOM     18  C   UNL     1      22.254  12.837  -0.914  0.00  0.00    +0.139 C 
ATOM     19  C   UNL     1      23.441  13.538  -1.565  0.00  0.00    +0.062 C 
BRANCH  18  20
ATOM     20  O   UNL     1      22.070  11.547  -1.476  0.00  0.00    -0.388 OA
ATOM     21  H   UNL     1      22.669  10.938  -1.010  0.00  0.00    +0.210 HD
ENDBRANCH  18  20
BRANCH  15  22
ATOM     22  O   UNL     1      20.094  14.762  -4.233  0.00  0.00    -0.388 OA
ATOM     23  H   UNL     1      19.954  13.870  -4.593  0.00  0.00    +0.210 HD
ENDBRANCH  15  22
ENDBRANCH  11  13
ENDBRANCH   7   9
ENDBRANCH   6   7
ENDBRANCH   5   6
ENDBRANCH   1   5
BRANCH   2  24
ATOM     24  C   UNL     1      29.024  14.672   0.576  0.00  0.00    +0.152 C 
BRANCH  24  25
ATOM     25  C   UNL     1      30.098  13.997   1.454  0.00  0.00    +0.193 C 
ATOM     26  O   UNL     1      30.332  12.688   0.889  0.00  0.00    -0.219 OA
BRANCH  25  27
ATOM     27  C   UNL     1      31.496  14.651   1.502  0.00  0.00    +0.212 C 
ATOM     28  O   UNL     1      31.500  15.761   2.414  0.00  0.00    -0.218 OA
BRANCH  27  29
ATOM     29  C   UNL     1      32.639  13.650   1.923  0.00  0.00    +0.171 C 
ATOM     30  O   UNL     1      33.150  13.917   3.225  0.00  0.00    -0.343 OA
ATOM     31  C   UNL     1      34.315  13.351   3.746  0.00  0.00    +0.220 C 
ATOM     32  C   UNL     1      35.504  13.501   2.781  0.00  0.00    +0.076 C 
ATOM     33  C   UNL     1      35.066  12.941   1.417  0.00  0.00    +0.177 C 
ATOM     34  O   UNL     1      36.144  13.020   0.496  0.00  0.00    -0.221 OA
ATOM     35  C   UNL     1      33.816  13.716   0.895  0.00  0.00    +0.155 C 
BRANCH  35  36
ATOM     36  N   UNL     1      33.401  13.192  -0.404  0.00  0.00    -0.202 NA
ATOM     37  C   UNL     1      33.236  13.836  -1.587  0.00  0.00    +0.242 C 
ATOM     38  C   UNL     1      33.088  13.009  -2.837  0.00  0.00    +0.096 C 
ATOM     39  O   UNL     1      33.213  15.065  -1.612  0.00  0.00    -0.273 OA
ENDBRANCH  35  36
BRANCH  31  40
ATOM     40  C   UNL     1      34.127  11.810   4.226  0.00  0.00    +0.391 C 
ATOM     41  O   UNL     1      35.379  11.343   4.393  0.00  0.00    -0.243 OA
ATOM     42  O   UNL     1      32.837  11.681   4.560  0.00  0.00    -0.243 OA
ENDBRANCH  31  40
ENDBRANCH  27  29
ENDBRANCH  25  27
ENDBRANCH  24  25
ENDBRANCH   2  24
TORSDOF 13
