REMARK VINA RESULT:    -6.298      2.642      8.892
REMARK INTER + INTRA:         -16.014
REMARK INTER:                 -12.712
REMARK INTRA:                  -3.302
REMARK UNBOUND:                -3.824
REMARK  Name = lig_assembled_81.pdb
REMARK  17 active torsions:
REMARK  status: ('A' for Active; 'I' for Inactive)
REMARK    1  A    between atoms: _2  and  _11
REMARK    2  A    between atoms: _7  and  _23
REMARK    3  A    between atoms: _8  and  _9
REMARK    4  A    between atoms: _8  and  _25
REMARK    5  A    between atoms: _13  and  _14
REMARK    6  A    between atoms: _20  and  _21
REMARK    7  A    between atoms: _21  and  _22
REMARK    8  A    between atoms: _22  and  _24
REMARK    9  A    between atoms: _23  and  _24
REMARK   10  A    between atoms: _25  and  _27
REMARK   11  A    between atoms: _26  and  _31
REMARK   12  A    between atoms: _27  and  _30
REMARK   13  A    between atoms: _35  and  _45
REMARK   14  A    between atoms: _37  and  _38
REMARK   15  A    between atoms: _39  and  _41
REMARK   16  A    between atoms: _41  and  _43
REMARK   17  A    between atoms: _43  and  _45
REMARK                            x       y       z     vdW  Elec       q    Type
REMARK                         _______ _______ _______ _____ _____    ______ ____
ROOT
ATOM      1  C   UNL     1      26.494  15.737  -3.593  0.00  0.00    +0.096 C 
ENDROOT
BRANCH   1   3
ATOM      2  N   UNL     1      27.858  16.960  -1.963  0.00  0.00    -0.133 NA
ATOM      3  C   UNL     1      27.359  15.769  -2.396  0.00  0.00    +0.066 C 
ATOM      4  C   UNL     1      27.832  14.765  -1.571  0.00  0.00    +0.120 C 
ATOM      5  N   UNL     1      28.509  15.432  -0.560  0.00  0.00    -0.187 N 
ATOM      6  N   UNL     1      28.658  16.718  -0.939  0.00  0.00    -0.010 NA
BRANCH   5   7
ATOM      7  C   UNL     1      29.153  14.870   0.593  0.00  0.00    +0.150 A 
ATOM      8  C   UNL     1      30.553  14.753   0.783  0.00  0.00    +0.022 A 
ATOM      9  C   UNL     1      30.901  14.080   1.983  0.00  0.00    +0.081 A 
ATOM     10  N   UNL     1      29.955  13.546   2.805  0.00  0.00    -0.214 NA
ATOM     11  C   UNL     1      28.676  13.696   2.505  0.00  0.00    +0.215 A 
ATOM     12  N   UNL     1      27.743  13.072   3.297  0.00  0.00    -0.327 N 
ATOM     13  H   UNL     1      28.114  12.873   4.214  0.00  0.00    +0.145 HD
ATOM     14  H   UNL     1      26.836  13.507   3.222  0.00  0.00    +0.145 HD
ATOM     15  N   UNL     1      28.237  14.412   1.490  0.00  0.00    -0.198 NA
BRANCH   9  16
ATOM     16  C   UNL     1      32.285  13.817   2.536  0.00  0.00    +0.001 A 
ATOM     17  C   UNL     1      33.031  14.723   3.311  0.00  0.00    +0.010 A 
ATOM     18  C   UNL     1      34.309  14.415   3.807  0.00  0.00    +0.001 A 
ATOM     19  C   UNL     1      34.864  13.167   3.599  0.00  0.00    +0.000 A 
ATOM     20  C   UNL     1      34.139  12.215   2.884  0.00  0.00    +0.001 A 
ATOM     21  C   UNL     1      32.883  12.546   2.357  0.00  0.00    +0.010 A 
ENDBRANCH   9  16
BRANCH   8  22
ATOM     22  C   UNL     1      31.684  15.345  -0.063  0.00  0.00    +0.069 C 
BRANCH  22  23
ATOM     23  C   UNL     1      32.606  14.456  -0.875  0.00  0.00    +0.164 C 
BRANCH  23  24
ATOM     24  O   UNL     1      32.011  13.760  -1.977  0.00  0.00    -0.380 OA
BRANCH  24  25
ATOM     25  C   UNL     1      33.095  13.142  -2.696  0.00  0.00    +0.156 C 
ATOM     26  C   UNL     1      33.285  13.760  -4.062  0.00  0.00    +0.034 C 
ENDBRANCH  24  25
ENDBRANCH  23  24
ENDBRANCH  22  23
ENDBRANCH   8  22
ENDBRANCH   5   7
ENDBRANCH   1   3
BRANCH   1  27
ATOM     27  C   UNL     1      26.677  14.407  -4.350  0.00  0.00    +0.240 C 
BRANCH  27  28
ATOM     28  O   UNL     1      25.673  13.430  -4.199  0.00  0.00    -0.450 OA
BRANCH  28  29
ATOM     29  C   UNL     1      24.398  13.357  -4.004  0.00  0.00    +0.400 C 
ATOM     30  N   UNL     1      23.995  13.360  -2.689  0.00  0.00    -0.278 N 
ATOM     31  H   UNL     1      22.937  13.493  -2.755  0.00  0.00    +0.152 HD
ATOM     32  O   UNL     1      23.532  13.317  -4.875  0.00  0.00    -0.226 OA
BRANCH  30  33
ATOM     33  C   UNL     1      24.354  13.252  -1.278  0.00  0.00    +0.152 C 
BRANCH  33  34
ATOM     34  C   UNL     1      25.366  12.144  -0.917  0.00  0.00    +0.193 C 
ATOM     35  O   UNL     1      25.974  12.529   0.335  0.00  0.00    -0.219 OA
BRANCH  34  36
ATOM     36  C   UNL     1      24.811  10.726  -0.657  0.00  0.00    +0.212 C 
ATOM     37  O   UNL     1      25.606   9.743  -1.340  0.00  0.00    -0.218 OA
BRANCH  36  38
ATOM     38  C   UNL     1      24.750  10.351   0.873  0.00  0.00    +0.171 C 
ATOM     39  O   UNL     1      25.521   9.195   1.184  0.00  0.00    -0.343 OA
ATOM     40  C   UNL     1      25.453   8.505   2.397  0.00  0.00    +0.220 C 
ATOM     41  C   UNL     1      24.001   8.169   2.781  0.00  0.00    +0.076 C 
ATOM     42  C   UNL     1      23.195   9.477   2.734  0.00  0.00    +0.177 C 
ATOM     43  O   UNL     1      21.851   9.229   3.121  0.00  0.00    -0.221 OA
ATOM     44  C   UNL     1      23.268  10.103   1.307  0.00  0.00    +0.155 C 
BRANCH  44  45
ATOM     45  N   UNL     1      22.498  11.343   1.256  0.00  0.00    -0.202 NA
ATOM     46  C   UNL     1      21.526  11.726   0.390  0.00  0.00    +0.242 C 
ATOM     47  C   UNL     1      20.690  12.930   0.740  0.00  0.00    +0.096 C 
ATOM     48  O   UNL     1      21.349  11.088  -0.646  0.00  0.00    -0.273 OA
ENDBRANCH  44  45
BRANCH  40  49
ATOM     49  C   UNL     1      26.234   9.251   3.610  0.00  0.00    +0.391 C 
ATOM     50  O   UNL     1      25.933   8.534   4.710  0.00  0.00    -0.243 OA
ATOM     51  O   UNL     1      27.102  10.089   3.031  0.00  0.00    -0.243 OA
ENDBRANCH  40  49
ENDBRANCH  36  38
ENDBRANCH  34  36
ENDBRANCH  33  34
ENDBRANCH  30  33
ENDBRANCH  28  29
ENDBRANCH  27  28
ENDBRANCH   1  27
TORSDOF 16
