REMARK VINA RESULT:    -6.285      2.951     10.503
REMARK INTER + INTRA:         -15.987
REMARK INTER:                 -13.017
REMARK INTRA:                  -2.970
REMARK UNBOUND:                -3.824
REMARK  Name = lig_assembled_81.pdb
REMARK  17 active torsions:
REMARK  status: ('A' for Active; 'I' for Inactive)
REMARK    1  A    between atoms: _2  and  _11
REMARK    2  A    between atoms: _7  and  _23
REMARK    3  A    between atoms: _8  and  _9
REMARK    4  A    between atoms: _8  and  _25
REMARK    5  A    between atoms: _13  and  _14
REMARK    6  A    between atoms: _20  and  _21
REMARK    7  A    between atoms: _21  and  _22
REMARK    8  A    between atoms: _22  and  _24
REMARK    9  A    between atoms: _23  and  _24
REMARK   10  A    between atoms: _25  and  _27
REMARK   11  A    between atoms: _26  and  _31
REMARK   12  A    between atoms: _27  and  _30
REMARK   13  A    between atoms: _35  and  _45
REMARK   14  A    between atoms: _37  and  _38
REMARK   15  A    between atoms: _39  and  _41
REMARK   16  A    between atoms: _41  and  _43
REMARK   17  A    between atoms: _43  and  _45
REMARK                            x       y       z     vdW  Elec       q    Type
REMARK                         _______ _______ _______ _____ _____    ______ ____
ROOT
ATOM      1  C   UNL     1      29.507  14.948   0.028  0.00  0.00    +0.096 C 
ENDROOT
BRANCH   1   3
ATOM      2  N   UNL     1      30.563  12.807   0.590  0.00  0.00    -0.133 NA
ATOM      3  C   UNL     1      30.538  14.161   0.734  0.00  0.00    +0.066 C 
ATOM      4  C   UNL     1      31.547  14.531   1.604  0.00  0.00    +0.120 C 
ATOM      5  N   UNL     1      32.248  13.358   1.849  0.00  0.00    -0.187 N 
ATOM      6  N   UNL     1      31.513  12.331   1.376  0.00  0.00    -0.010 NA
BRANCH   5   7
ATOM      7  C   UNL     1      33.427  13.183   2.647  0.00  0.00    +0.150 A 
ATOM      8  C   UNL     1      34.645  12.605   2.207  0.00  0.00    +0.022 A 
ATOM      9  C   UNL     1      35.613  12.487   3.238  0.00  0.00    +0.081 A 
ATOM     10  N   UNL     1      35.334  12.833   4.525  0.00  0.00    -0.214 NA
ATOM     11  C   UNL     1      34.148  13.337   4.819  0.00  0.00    +0.215 A 
ATOM     12  N   UNL     1      33.856  13.593   6.137  0.00  0.00    -0.327 N 
ATOM     13  H   UNL     1      34.697  13.707   6.683  0.00  0.00    +0.145 HD
ATOM     14  H   UNL     1      33.117  14.273   6.232  0.00  0.00    +0.145 HD
ATOM     15  N   UNL     1      33.222  13.612   3.923  0.00  0.00    -0.198 NA
BRANCH   9  16
ATOM     16  C   UNL     1      37.030  11.967   3.130  0.00  0.00    +0.001 A 
ATOM     17  C   UNL     1      38.165  12.761   2.882  0.00  0.00    +0.010 A 
ATOM     18  C   UNL     1      39.460  12.221   2.805  0.00  0.00    +0.001 A 
ATOM     19  C   UNL     1      39.676  10.875   3.033  0.00  0.00    +0.000 A 
ATOM     20  C   UNL     1      38.590  10.057   3.338  0.00  0.00    +0.001 A 
ATOM     21  C   UNL     1      37.297  10.598   3.370  0.00  0.00    +0.010 A 
ENDBRANCH   9  16
BRANCH   8  22
ATOM     22  C   UNL     1      35.058  12.218   0.785  0.00  0.00    +0.069 C 
BRANCH  22  23
ATOM     23  C   UNL     1      35.783  13.198  -0.118  0.00  0.00    +0.164 C 
BRANCH  23  24
ATOM     24  O   UNL     1      35.285  13.317  -1.456  0.00  0.00    -0.380 OA
BRANCH  24  25
ATOM     25  C   UNL     1      33.848  13.346  -1.350  0.00  0.00    +0.156 C 
ATOM     26  C   UNL     1      33.290  14.708  -1.688  0.00  0.00    +0.034 C 
ENDBRANCH  24  25
ENDBRANCH  23  24
ENDBRANCH  22  23
ENDBRANCH   8  22
ENDBRANCH   5   7
ENDBRANCH   1   3
BRANCH   1  27
ATOM     27  C   UNL     1      30.032  16.362  -0.284  0.00  0.00    +0.240 C 
BRANCH  27  28
ATOM     28  O   UNL     1      29.134  17.275  -0.870  0.00  0.00    -0.450 OA
BRANCH  28  29
ATOM     29  C   UNL     1      27.908  17.663  -0.742  0.00  0.00    +0.400 C 
ATOM     30  N   UNL     1      27.009  17.095  -1.614  0.00  0.00    -0.278 N 
ATOM     31  H   UNL     1      26.061  17.390  -1.218  0.00  0.00    +0.152 HD
ATOM     32  O   UNL     1      27.482  18.457   0.094  0.00  0.00    -0.226 OA
BRANCH  30  33
ATOM     33  C   UNL     1      26.774  16.301  -2.817  0.00  0.00    +0.152 C 
BRANCH  33  34
ATOM     34  C   UNL     1      25.625  15.275  -2.740  0.00  0.00    +0.193 C 
ATOM     35  O   UNL     1      24.945  15.316  -4.014  0.00  0.00    -0.219 OA
BRANCH  34  36
ATOM     36  C   UNL     1      26.004  13.789  -2.554  0.00  0.00    +0.212 C 
ATOM     37  O   UNL     1      27.424  13.612  -2.693  0.00  0.00    -0.218 OA
BRANCH  36  38
ATOM     38  C   UNL     1      25.557  13.199  -1.162  0.00  0.00    +0.171 C 
ATOM     39  O   UNL     1      26.458  12.213  -0.670  0.00  0.00    -0.343 OA
ATOM     40  C   UNL     1      26.186  11.363   0.405  0.00  0.00    +0.220 C 
ATOM     41  C   UNL     1      24.826  10.661   0.247  0.00  0.00    +0.076 C 
ATOM     42  C   UNL     1      23.769  11.749  -0.002  0.00  0.00    +0.177 C 
ATOM     43  O   UNL     1      22.484  11.155  -0.116  0.00  0.00    -0.221 OA
ATOM     44  C   UNL     1      24.131  12.568  -1.280  0.00  0.00    +0.155 C 
BRANCH  44  45
ATOM     45  N   UNL     1      23.125  13.599  -1.523  0.00  0.00    -0.202 NA
ATOM     46  C   UNL     1      22.210  13.701  -2.520  0.00  0.00    +0.242 C 
ATOM     47  C   UNL     1      21.098  14.707  -2.371  0.00  0.00    +0.096 C 
ATOM     48  O   UNL     1      22.307  12.977  -3.509  0.00  0.00    -0.273 OA
ENDBRANCH  44  45
BRANCH  40  49
ATOM     49  C   UNL     1      26.318  12.088   1.853  0.00  0.00    +0.391 C 
ATOM     50  O   UNL     1      25.623  11.304   2.699  0.00  0.00    -0.243 OA
ATOM     51  O   UNL     1      27.293  12.997   1.724  0.00  0.00    -0.243 OA
ENDBRANCH  40  49
ENDBRANCH  36  38
ENDBRANCH  34  36
ENDBRANCH  33  34
ENDBRANCH  30  33
ENDBRANCH  28  29
ENDBRANCH  27  28
ENDBRANCH   1  27
TORSDOF 16
