REMARK VINA RESULT:    -6.664      2.471      4.520
REMARK INTER + INTRA:         -13.508
REMARK INTER:                 -11.923
REMARK INTRA:                  -1.585
REMARK UNBOUND:                -1.585
REMARK  Name = lig_assembled_16.pdb
REMARK  14 active torsions:
REMARK  status: ('A' for Active; 'I' for Inactive)
REMARK    1  A    between atoms: _2  and  _8
REMARK    2  A    between atoms: _5  and  _6
REMARK    3  A    between atoms: _5  and  _17
REMARK    4  A    between atoms: _8  and  _9
REMARK    5  A    between atoms: _12  and  _13
REMARK    6  A    between atoms: _13  and  _15
REMARK    7  A    between atoms: _17  and  _19
REMARK    8  A    between atoms: _18  and  _23
REMARK    9  A    between atoms: _19  and  _22
REMARK   10  A    between atoms: _27  and  _37
REMARK   11  A    between atoms: _29  and  _30
REMARK   12  A    between atoms: _31  and  _33
REMARK   13  A    between atoms: _33  and  _35
REMARK   14  A    between atoms: _35  and  _37
REMARK                            x       y       z     vdW  Elec       q    Type
REMARK                         _______ _______ _______ _____ _____    ______ ____
ROOT
ATOM      1  C   UNL     1      27.039  13.779  -1.963  0.00  0.00    +0.400 C 
ATOM      2  N   UNL     1      27.473  13.284  -0.756  0.00  0.00    -0.278 N 
ATOM      3  H   UNL     1      27.544  12.232  -0.931  0.00  0.00    +0.152 HD
ATOM      4  O   UNL     1      27.016  13.018  -2.927  0.00  0.00    -0.226 OA
ENDROOT
BRANCH   2   5
ATOM      5  C   UNL     1      27.885  13.547   0.621  0.00  0.00    +0.152 C 
BRANCH   5   6
ATOM      6  C   UNL     1      29.156  14.403   0.798  0.00  0.00    +0.193 C 
ATOM      7  O   UNL     1      30.122  13.574   1.482  0.00  0.00    -0.219 OA
BRANCH   6   8
ATOM      8  C   UNL     1      29.886  14.873  -0.479  0.00  0.00    +0.212 C 
ATOM      9  O   UNL     1      30.095  16.294  -0.444  0.00  0.00    -0.218 OA
BRANCH   8  10
ATOM     10  C   UNL     1      31.276  14.163  -0.700  0.00  0.00    +0.171 C 
ATOM     11  O   UNL     1      32.339  15.091  -0.898  0.00  0.00    -0.343 OA
ATOM     12  C   UNL     1      33.613  14.744  -1.353  0.00  0.00    +0.220 C 
ATOM     13  C   UNL     1      33.550  13.886  -2.629  0.00  0.00    +0.076 C 
ATOM     14  C   UNL     1      32.619  12.696  -2.340  0.00  0.00    +0.177 C 
ATOM     15  O   UNL     1      32.556  11.847  -3.477  0.00  0.00    -0.221 OA
ATOM     16  C   UNL     1      31.201  13.208  -1.936  0.00  0.00    +0.155 C 
BRANCH  16  17
ATOM     17  N   UNL     1      30.312  12.081  -1.668  0.00  0.00    -0.202 NA
ATOM     18  C   UNL     1      30.426  11.085  -0.753  0.00  0.00    +0.242 C 
ATOM     19  C   UNL     1      29.223  10.217  -0.488  0.00  0.00    +0.096 C 
ATOM     20  O   UNL     1      31.493  10.917  -0.166  0.00  0.00    -0.273 OA
ENDBRANCH  16  17
BRANCH  12  21
ATOM     21  C   UNL     1      34.540  14.051  -0.213  0.00  0.00    +0.391 C 
ATOM     22  O   UNL     1      33.720  13.872   0.841  0.00  0.00    -0.243 OA
ATOM     23  O   UNL     1      35.656  13.651  -0.836  0.00  0.00    -0.243 OA
ENDBRANCH  12  21
ENDBRANCH   8  10
ENDBRANCH   6   8
ENDBRANCH   5   6
ENDBRANCH   2   5
BRANCH   1  24
ATOM     24  O   UNL     1      26.659  15.015  -1.958  0.00  0.00    -0.450 OA
BRANCH  24  25
ATOM     25  C   UNL     1      26.722  16.155  -2.782  0.00  0.00    +0.240 C 
BRANCH  25  26
ATOM     26  C   UNL     1      25.964  16.106  -4.123  0.00  0.00    +0.100 C 
BRANCH  26  28
ATOM     27  N   UNL     1      24.256  14.430  -4.764  0.00  0.00    -0.134 NA
ATOM     28  C   UNL     1      24.655  15.454  -3.944  0.00  0.00    +0.086 A 
ATOM     29  C   UNL     1      23.675  15.685  -3.005  0.00  0.00    +0.134 A 
ATOM     30  N   UNL     1      22.755  14.710  -3.249  0.00  0.00    -0.247 N 
ATOM     31  N   UNL     1      23.080  13.991  -4.338  0.00  0.00    -0.065 NA
BRANCH  30  32
ATOM     32  C   UNL     1      21.569  14.392  -2.480  0.00  0.00    +0.180 C 
BRANCH  32  33
ATOM     33  C   UNL     1      21.884  13.435  -1.353  0.00  0.00    -0.026 A 
ATOM     34  C   UNL     1      23.193  12.976  -1.149  0.00  0.00    +0.006 A 
ATOM     35  C   UNL     1      23.485  12.121  -0.083  0.00  0.00    +0.015 A 
ATOM     36  C   UNL     1      22.474  11.703   0.785  0.00  0.00    +0.059 A 
ATOM     37  C   UNL     1      21.156  12.138   0.579  0.00  0.00    +0.015 A 
ATOM     38  C   UNL     1      20.866  12.988  -0.493  0.00  0.00    +0.006 A 
BRANCH  36  39
ATOM     39  C   UNL     1      22.853  10.854   1.946  0.00  0.00    +0.337 C 
ATOM     40  O   UNL     1      23.987  10.825   2.395  0.00  0.00    -0.245 OA
BRANCH  39  41
ATOM     41  O   UNL     1      21.847  10.101   2.431  0.00  0.00    -0.477 OA
ATOM     42  H   UNL     1      22.122   9.344   2.981  0.00  0.00    +0.295 HD
ENDBRANCH  39  41
ENDBRANCH  36  39
ENDBRANCH  32  33
ENDBRANCH  30  32
ENDBRANCH  26  28
ENDBRANCH  25  26
ENDBRANCH  24  25
ENDBRANCH   1  24
TORSDOF 14
