REMARK VINA RESULT:    -7.569      1.512      3.088
REMARK INTER + INTRA:         -14.522
REMARK INTER:                 -13.052
REMARK INTRA:                  -1.469
REMARK UNBOUND:                -2.085
REMARK  Name = lig_assembled_51.pdb
REMARK  11 active torsions:
REMARK  status: ('A' for Active; 'I' for Inactive)
REMARK    1  A    between atoms: _2  and  _8
REMARK    2  A    between atoms: _5  and  _6
REMARK    3  A    between atoms: _5  and  _17
REMARK    4  A    between atoms: _17  and  _19
REMARK    5  A    between atoms: _18  and  _23
REMARK    6  A    between atoms: _19  and  _22
REMARK    7  A    between atoms: _27  and  _37
REMARK    8  A    between atoms: _29  and  _30
REMARK    9  A    between atoms: _31  and  _33
REMARK   10  A    between atoms: _33  and  _35
REMARK   11  A    between atoms: _35  and  _37
REMARK                            x       y       z     vdW  Elec       q    Type
REMARK                         _______ _______ _______ _____ _____    ______ ____
ROOT
ATOM      1  C   UNL     1      27.887  17.318  -0.759  0.00  0.00    +0.400 C 
ATOM      2  N   UNL     1      28.565  16.408   0.017  0.00  0.00    -0.278 N 
ATOM      3  H   UNL     1      28.814  16.968   0.894  0.00  0.00    +0.152 HD
ATOM      4  O   UNL     1      27.579  18.395  -0.254  0.00  0.00    -0.226 OA
ENDROOT
BRANCH   1   5
ATOM      5  O   UNL     1      27.662  16.956  -1.979  0.00  0.00    -0.450 OA
BRANCH   5   6
ATOM      6  C   UNL     1      26.955  17.402  -3.113  0.00  0.00    +0.240 C 
BRANCH   6   7
ATOM      7  C   UNL     1      26.450  16.333  -4.101  0.00  0.00    +0.100 C 
BRANCH   7   9
ATOM      8  N   UNL     1      26.296  14.279  -2.729  0.00  0.00    -0.134 NA
ATOM      9  C   UNL     1      25.674  15.302  -3.390  0.00  0.00    +0.086 A 
ATOM     10  C   UNL     1      24.312  15.160  -3.255  0.00  0.00    +0.134 A 
ATOM     11  N   UNL     1      24.162  14.026  -2.504  0.00  0.00    -0.245 N 
ATOM     12  N   UNL     1      25.364  13.505  -2.190  0.00  0.00    -0.065 NA
BRANCH  11  13
ATOM     13  C   UNL     1      22.913  13.398  -2.067  0.00  0.00    +0.066 C 
ATOM     14  C   UNL     1      22.442  12.358  -3.120  0.00  0.00    +0.034 C 
ATOM     15  C   UNL     1      21.155  11.654  -2.658  0.00  0.00    -0.008 C 
ATOM     16  C   UNL     1      21.419  10.944  -1.320  0.00  0.00    +0.007 C 
ATOM     17  C   UNL     1      21.843  11.967  -0.253  0.00  0.00    -0.008 C 
ATOM     18  C   UNL     1      20.728  13.009  -0.078  0.00  0.00    +0.007 C 
ATOM     19  C   UNL     1      20.467  13.728  -1.411  0.00  0.00    -0.008 C 
ATOM     20  C   UNL     1      20.044  12.698  -2.469  0.00  0.00    +0.007 C 
ATOM     21  C   UNL     1      23.131  12.672  -0.712  0.00  0.00    +0.034 C 
ATOM     22  C   UNL     1      21.759  14.427  -1.871  0.00  0.00    +0.034 C 
ENDBRANCH  11  13
ENDBRANCH   7   9
ENDBRANCH   6   7
ENDBRANCH   5   6
ENDBRANCH   1   5
BRANCH   2  23
ATOM     23  C   UNL     1      29.073  15.049   0.184  0.00  0.00    +0.152 C 
BRANCH  23  24
ATOM     24  C   UNL     1      30.608  14.895   0.208  0.00  0.00    +0.193 C 
ATOM     25  O   UNL     1      31.084  15.657   1.339  0.00  0.00    -0.219 OA
BRANCH  24  26
ATOM     26  C   UNL     1      31.181  13.478   0.429  0.00  0.00    +0.212 C 
ATOM     27  O   UNL     1      32.113  13.146  -0.613  0.00  0.00    -0.218 OA
BRANCH  26  28
ATOM     28  C   UNL     1      31.899  13.305   1.821  0.00  0.00    +0.171 C 
ATOM     29  O   UNL     1      33.242  12.850   1.692  0.00  0.00    -0.343 OA
ATOM     30  C   UNL     1      34.022  12.384   2.753  0.00  0.00    +0.220 C 
ATOM     31  C   UNL     1      33.284  11.315   3.577  0.00  0.00    +0.076 C 
ATOM     32  C   UNL     1      31.922  11.902   3.983  0.00  0.00    +0.177 C 
ATOM     33  O   UNL     1      31.213  10.965   4.783  0.00  0.00    -0.221 OA
ATOM     34  C   UNL     1      31.106  12.295   2.713  0.00  0.00    +0.155 C 
BRANCH  34  35
ATOM     35  N   UNL     1      29.808  12.846   3.095  0.00  0.00    -0.202 NA
ATOM     36  C   UNL     1      28.558  12.394   2.820  0.00  0.00    +0.242 C 
ATOM     37  C   UNL     1      27.400  12.985   3.582  0.00  0.00    +0.096 C 
ATOM     38  O   UNL     1      28.401  11.521   1.969  0.00  0.00    -0.273 OA
ENDBRANCH  34  35
BRANCH  30  39
ATOM     39  C   UNL     1      34.602  13.571   3.699  0.00  0.00    +0.391 C 
ATOM     40  O   UNL     1      34.657  13.036   4.934  0.00  0.00    -0.243 OA
ATOM     41  O   UNL     1      35.082  14.505   2.868  0.00  0.00    -0.243 OA
ENDBRANCH  30  39
ENDBRANCH  26  28
ENDBRANCH  24  26
ENDBRANCH  23  24
ENDBRANCH   2  23
TORSDOF 11
