REMARK VINA RESULT:    -7.606      1.188      3.223
REMARK INTER + INTRA:         -14.166
REMARK INTER:                 -12.450
REMARK INTRA:                  -1.716
REMARK UNBOUND:                -1.669
REMARK  Name = lig_assembled_70.pdb
REMARK  11 active torsions:
REMARK  status: ('A' for Active; 'I' for Inactive)
REMARK    1  A    between atoms: _2  and  _9
REMARK    2  A    between atoms: _6  and  _7
REMARK    3  A    between atoms: _6  and  _17
REMARK    4  A    between atoms: _17  and  _19
REMARK    5  A    between atoms: _18  and  _23
REMARK    6  A    between atoms: _19  and  _22
REMARK    7  A    between atoms: _27  and  _37
REMARK    8  A    between atoms: _29  and  _30
REMARK    9  A    between atoms: _31  and  _33
REMARK   10  A    between atoms: _33  and  _35
REMARK   11  A    between atoms: _35  and  _37
REMARK                            x       y       z     vdW  Elec       q    Type
REMARK                         _______ _______ _______ _____ _____    ______ ____
ROOT
ATOM      1  C   UNL     1      27.834  17.459  -0.922  0.00  0.00    +0.400 C 
ATOM      2  N   UNL     1      28.372  16.502  -0.094  0.00  0.00    -0.278 N 
ATOM      3  H   UNL     1      28.479  17.014   0.838  0.00  0.00    +0.152 HD
ATOM      4  O   UNL     1      27.456  18.514  -0.419  0.00  0.00    -0.226 OA
ENDROOT
BRANCH   1   5
ATOM      5  O   UNL     1      27.807  17.160  -2.179  0.00  0.00    -0.450 OA
BRANCH   5   6
ATOM      6  C   UNL     1      26.988  17.360  -3.308  0.00  0.00    +0.240 C 
BRANCH   6   7
ATOM      7  C   UNL     1      26.618  16.122  -4.146  0.00  0.00    +0.100 C 
BRANCH   7   9
ATOM      8  N   UNL     1      27.120  13.932  -3.098  0.00  0.00    -0.134 NA
ATOM      9  C   UNL     1      26.272  14.989  -3.268  0.00  0.00    +0.086 A 
ATOM     10  C   UNL     1      25.142  14.783  -2.511  0.00  0.00    +0.140 A 
ATOM     11  N   UNL     1      25.351  13.578  -1.879  0.00  0.00    -0.218 N 
ATOM     12  N   UNL     1      26.549  13.076  -2.258  0.00  0.00    -0.060 NA
BRANCH  11  13
ATOM     13  C   UNL     1      24.516  12.920  -0.954  0.00  0.00    +0.086 A 
ATOM     14  C   UNL     1      23.139  12.940  -1.111  0.00  0.00    +0.139 A 
ATOM     15  N   UNL     1      22.278  12.291  -0.285  0.00  0.00    -0.253 NA
ATOM     16  C   UNL     1      22.790  11.582   0.739  0.00  0.00    +0.071 A 
ATOM     17  C   UNL     1      24.177  11.519   0.986  0.00  0.00    +0.002 A 
ATOM     18  C   UNL     1      24.673  10.767   2.066  0.00  0.00    +0.010 A 
ATOM     19  C   UNL     1      23.803  10.061   2.890  0.00  0.00    +0.001 A 
ATOM     20  C   UNL     1      22.436  10.112   2.646  0.00  0.00    +0.002 A 
ATOM     21  C   UNL     1      21.944  10.875   1.582  0.00  0.00    +0.028 A 
ATOM     22  C   UNL     1      25.039  12.209   0.126  0.00  0.00    +0.039 A 
ENDBRANCH  11  13
ENDBRANCH   7   9
ENDBRANCH   6   7
ENDBRANCH   5   6
ENDBRANCH   1   5
BRANCH   2  23
ATOM     23  C   UNL     1      28.837  15.129   0.083  0.00  0.00    +0.152 C 
BRANCH  23  24
ATOM     24  C   UNL     1      30.286  14.840  -0.361  0.00  0.00    +0.193 C 
ATOM     25  O   UNL     1      30.938  16.120  -0.511  0.00  0.00    -0.219 OA
BRANCH  24  26
ATOM     26  C   UNL     1      31.191  14.059   0.617  0.00  0.00    +0.212 C 
ATOM     27  O   UNL     1      30.529  12.868   1.072  0.00  0.00    -0.218 OA
BRANCH  26  28
ATOM     28  C   UNL     1      32.582  13.655  -0.007  0.00  0.00    +0.171 C 
ATOM     29  O   UNL     1      32.445  12.869  -1.186  0.00  0.00    -0.343 OA
ATOM     30  C   UNL     1      33.493  12.179  -1.799  0.00  0.00    +0.220 C 
ATOM     31  C   UNL     1      34.269  11.310  -0.793  0.00  0.00    +0.076 C 
ATOM     32  C   UNL     1      34.687  12.218   0.376  0.00  0.00    +0.177 C 
ATOM     33  O   UNL     1      35.444  11.471   1.318  0.00  0.00    -0.221 OA
ATOM     34  C   UNL     1      33.427  12.856   1.038  0.00  0.00    +0.155 C 
BRANCH  34  35
ATOM     35  N   UNL     1      33.820  13.713   2.154  0.00  0.00    -0.202 NA
ATOM     36  C   UNL     1      33.504  13.623   3.471  0.00  0.00    +0.242 C 
ATOM     37  C   UNL     1      34.280  14.463   4.452  0.00  0.00    +0.096 C 
ATOM     38  O   UNL     1      32.604  12.866   3.830  0.00  0.00    -0.273 OA
ENDBRANCH  34  35
BRANCH  30  39
ATOM     39  C   UNL     1      34.489  13.138  -2.652  0.00  0.00    +0.391 C 
ATOM     40  O   UNL     1      35.669  12.488  -2.667  0.00  0.00    -0.243 OA
ATOM     41  O   UNL     1      33.706  14.037  -3.260  0.00  0.00    -0.243 OA
ENDBRANCH  30  39
ENDBRANCH  26  28
ENDBRANCH  24  26
ENDBRANCH  23  24
ENDBRANCH   2  23
TORSDOF 11
