REMARK VINA RESULT:    -7.325      1.948      4.303
REMARK INTER + INTRA:         -13.967
REMARK INTER:                 -11.980
REMARK INTRA:                  -1.987
REMARK UNBOUND:                -1.503
REMARK  Name = lig_assembled_89.pdb
REMARK  14 active torsions:
REMARK  status: ('A' for Active; 'I' for Inactive)
REMARK    1  A    between atoms: _2  and  _11
REMARK    2  A    between atoms: _5  and  _19
REMARK    3  A    between atoms: _8  and  _9
REMARK    4  A    between atoms: _8  and  _24
REMARK    5  A    between atoms: _19  and  _20
REMARK    6  A    between atoms: _19  and  _21
REMARK    7  A    between atoms: _24  and  _26
REMARK    8  A    between atoms: _25  and  _30
REMARK    9  A    between atoms: _26  and  _29
REMARK   10  A    between atoms: _34  and  _44
REMARK   11  A    between atoms: _36  and  _37
REMARK   12  A    between atoms: _38  and  _40
REMARK   13  A    between atoms: _40  and  _42
REMARK   14  A    between atoms: _42  and  _44
REMARK                            x       y       z     vdW  Elec       q    Type
REMARK                         _______ _______ _______ _____ _____    ______ ____
ROOT
ATOM      1  C   UNL     1      28.077  10.948   1.769  0.00  0.00    +0.240 C 
ENDROOT
BRANCH   1   2
ATOM      2  C   UNL     1      28.611  10.546   0.381  0.00  0.00    +0.100 C 
BRANCH   2   4
ATOM      3  N   UNL     1      28.655  11.583  -1.856  0.00  0.00    -0.134 NA
ATOM      4  C   UNL     1      28.028  11.412  -0.658  0.00  0.00    +0.087 A 
ATOM      5  C   UNL     1      26.856  12.131  -0.660  0.00  0.00    +0.141 A 
ATOM      6  N   UNL     1      26.792  12.716  -1.910  0.00  0.00    -0.200 N 
ATOM      7  N   UNL     1      27.897  12.367  -2.609  0.00  0.00    -0.059 NA
BRANCH   6   8
ATOM      8  C   UNL     1      25.699  13.479  -2.417  0.00  0.00    +0.186 A 
ATOM      9  C   UNL     1      24.345  13.214  -2.376  0.00  0.00    +0.158 A 
ATOM     10  C   UNL     1      23.581  12.080  -1.958  0.00  0.00    +0.280 A 
ATOM     11  O   UNL     1      24.067  10.962  -1.858  0.00  0.00    -0.265 OA
ATOM     12  N   UNL     1      22.218  12.335  -1.700  0.00  0.00    -0.302 N 
ATOM     13  C   UNL     1      21.579  13.503  -2.263  0.00  0.00    +0.069 A 
ATOM     14  C   UNL     1      20.187  13.672  -2.280  0.00  0.00    +0.028 A 
ATOM     15  C   UNL     1      19.598  14.793  -2.881  0.00  0.00    +0.002 A 
ATOM     16  C   UNL     1      20.388  15.777  -3.467  0.00  0.00    +0.002 A 
ATOM     17  C   UNL     1      21.773  15.648  -3.457  0.00  0.00    +0.028 A 
ATOM     18  C   UNL     1      22.356  14.516  -2.868  0.00  0.00    +0.072 A 
ATOM     19  N   UNL     1      23.751  14.352  -2.848  0.00  0.00    -0.291 N 
ATOM     20  C   UNL     1      24.750  15.200  -3.253  0.00  0.00    +0.207 A 
ATOM     21  N   UNL     1      25.944  14.709  -2.996  0.00  0.00    -0.216 NA
BRANCH  12  22
ATOM     22  C   UNL     1      21.431  11.278  -1.022  0.00  0.00    +0.085 C 
ATOM     23  C   UNL     1      21.825  11.060   0.451  0.00  0.00    +0.030 C 
ATOM     24  C   UNL     1      21.476   9.957  -1.790  0.00  0.00    +0.030 C 
ENDBRANCH  12  22
ENDBRANCH   6   8
ENDBRANCH   2   4
ENDBRANCH   1   2
BRANCH   1  25
ATOM     25  O   UNL     1      28.532  12.165   2.313  0.00  0.00    -0.450 OA
BRANCH  25  26
ATOM     26  C   UNL     1      28.064  13.318   2.663  0.00  0.00    +0.400 C 
ATOM     27  N   UNL     1      28.252  14.336   1.758  0.00  0.00    -0.278 N 
ATOM     28  H   UNL     1      27.636  15.122   2.139  0.00  0.00    +0.152 HD
ATOM     29  O   UNL     1      27.454  13.569   3.699  0.00  0.00    -0.226 OA
BRANCH  27  30
ATOM     30  C   UNL     1      28.910  14.819   0.547  0.00  0.00    +0.152 C 
BRANCH  30  31
ATOM     31  C   UNL     1      30.296  14.215   0.240  0.00  0.00    +0.193 C 
ATOM     32  O   UNL     1      30.462  14.266  -1.194  0.00  0.00    -0.219 OA
BRANCH  31  33
ATOM     33  C   UNL     1      31.535  14.948   0.798  0.00  0.00    +0.212 C 
ATOM     34  O   UNL     1      31.135  16.069   1.603  0.00  0.00    -0.218 OA
BRANCH  33  35
ATOM     35  C   UNL     1      32.475  14.020   1.658  0.00  0.00    +0.171 C 
ATOM     36  O   UNL     1      32.761  14.568   2.941  0.00  0.00    -0.343 OA
ATOM     37  C   UNL     1      33.748  14.083   3.803  0.00  0.00    +0.220 C 
ATOM     38  C   UNL     1      35.103  13.930   3.090  0.00  0.00    +0.076 C 
ATOM     39  C   UNL     1      34.869  13.080   1.830  0.00  0.00    +0.177 C 
ATOM     40  O   UNL     1      36.101  12.875   1.153  0.00  0.00    -0.221 OA
ATOM     41  C   UNL     1      33.821  13.771   0.903  0.00  0.00    +0.155 C 
BRANCH  41  42
ATOM     42  N   UNL     1      33.602  12.970  -0.299  0.00  0.00    -0.202 NA
ATOM     43  C   UNL     1      33.695  13.323  -1.606  0.00  0.00    +0.242 C 
ATOM     44  C   UNL     1      33.707  12.230  -2.643  0.00  0.00    +0.096 C 
ATOM     45  O   UNL     1      33.769  14.512  -1.910  0.00  0.00    -0.273 OA
ENDBRANCH  41  42
BRANCH  37  46
ATOM     46  C   UNL     1      33.321  12.717   4.573  0.00  0.00    +0.391 C 
ATOM     47  O   UNL     1      34.455  12.274   5.149  0.00  0.00    -0.243 OA
ATOM     48  O   UNL     1      31.982  12.711   4.600  0.00  0.00    -0.243 OA
ENDBRANCH  37  46
ENDBRANCH  33  35
ENDBRANCH  31  33
ENDBRANCH  30  31
ENDBRANCH  27  30
ENDBRANCH  25  26
ENDBRANCH   1  25
TORSDOF 12
