REMARK VINA RESULT:    -6.677      2.119      4.155
REMARK INTER + INTRA:         -13.965
REMARK INTER:                 -12.103
REMARK INTRA:                  -1.862
REMARK UNBOUND:                -1.823
REMARK  Name = lig_assembled_12.pdb
REMARK  14 active torsions:
REMARK  status: ('A' for Active; 'I' for Inactive)
REMARK    1  A    between atoms: _2  and  _8
REMARK    2  A    between atoms: _5  and  _6
REMARK    3  A    between atoms: _5  and  _16
REMARK    4  A    between atoms: _8  and  _15
REMARK    5  A    between atoms: _9  and  _10
REMARK    6  A    between atoms: _9  and  _15
REMARK    7  A    between atoms: _16  and  _18
REMARK    8  A    between atoms: _17  and  _22
REMARK    9  A    between atoms: _18  and  _21
REMARK   10  A    between atoms: _26  and  _36
REMARK   11  A    between atoms: _28  and  _29
REMARK   12  A    between atoms: _30  and  _32
REMARK   13  A    between atoms: _32  and  _34
REMARK   14  A    between atoms: _34  and  _36
REMARK                            x       y       z     vdW  Elec       q    Type
REMARK                         _______ _______ _______ _____ _____    ______ ____
ROOT
ATOM      1  C   UNL     1      31.179  15.839   0.314  0.00  0.00    +0.400 C 
ATOM      2  N   UNL     1      32.351  15.312  -0.177  0.00  0.00    -0.278 N 
ATOM      3  H   UNL     1      33.077  15.605   0.550  0.00  0.00    +0.152 HD
ATOM      4  O   UNL     1      31.187  16.311   1.448  0.00  0.00    -0.226 OA
ENDROOT
BRANCH   2   5
ATOM      5  C   UNL     1      33.028  14.537  -1.213  0.00  0.00    +0.152 C 
BRANCH   5   6
ATOM      6  C   UNL     1      33.249  13.041  -0.909  0.00  0.00    +0.193 C 
ATOM      7  O   UNL     1      34.325  12.598  -1.764  0.00  0.00    -0.219 OA
BRANCH   6   8
ATOM      8  C   UNL     1      33.708  12.662   0.516  0.00  0.00    +0.212 C 
ATOM      9  O   UNL     1      34.318  13.790   1.164  0.00  0.00    -0.218 OA
BRANCH   8  10
ATOM     10  C   UNL     1      32.537  12.130   1.428  0.00  0.00    +0.171 C 
ATOM     11  O   UNL     1      31.275  12.693   1.084  0.00  0.00    -0.343 OA
ATOM     12  C   UNL     1      30.125  12.589   1.870  0.00  0.00    +0.220 C 
ATOM     13  C   UNL     1      30.392  12.995   3.330  0.00  0.00    +0.076 C 
ATOM     14  C   UNL     1      31.593  12.172   3.827  0.00  0.00    +0.177 C 
ATOM     15  O   UNL     1      31.858  12.480   5.188  0.00  0.00    -0.221 OA
ATOM     16  C   UNL     1      32.840  12.445   2.930  0.00  0.00    +0.155 C 
BRANCH  16  17
ATOM     17  N   UNL     1      33.984  11.670   3.403  0.00  0.00    -0.202 NA
ATOM     18  C   UNL     1      35.079  12.074   4.097  0.00  0.00    +0.242 C 
ATOM     19  C   UNL     1      35.963  11.022   4.714  0.00  0.00    +0.096 C 
ATOM     20  O   UNL     1      35.320  13.275   4.206  0.00  0.00    -0.273 OA
ENDBRANCH  16  17
BRANCH  12  21
ATOM     21  C   UNL     1      29.408  11.134   1.777  0.00  0.00    +0.391 C 
ATOM     22  O   UNL     1      28.564  11.095   2.826  0.00  0.00    -0.243 OA
ATOM     23  O   UNL     1      29.691  10.659   0.558  0.00  0.00    -0.243 OA
ENDBRANCH  12  21
ENDBRANCH   8  10
ENDBRANCH   6   8
ENDBRANCH   5   6
ENDBRANCH   2   5
BRANCH   1  24
ATOM     24  O   UNL     1      30.172  15.815  -0.495  0.00  0.00    -0.450 OA
BRANCH  24  25
ATOM     25  C   UNL     1      28.783  16.051  -0.480  0.00  0.00    +0.240 C 
BRANCH  25  26
ATOM     26  C   UNL     1      28.260  17.268  -1.266  0.00  0.00    +0.100 C 
BRANCH  26  28
ATOM     27  N   UNL     1      26.781  17.704  -3.207  0.00  0.00    -0.134 NA
ATOM     28  C   UNL     1      27.216  16.855  -2.221  0.00  0.00    +0.086 A 
ATOM     29  C   UNL     1      26.532  15.667  -2.318  0.00  0.00    +0.136 A 
ATOM     30  N   UNL     1      25.674  15.862  -3.359  0.00  0.00    -0.226 N 
ATOM     31  N   UNL     1      25.843  17.080  -3.908  0.00  0.00    -0.063 NA
BRANCH  30  32
ATOM     32  C   UNL     1      24.708  14.935  -3.924  0.00  0.00    +0.305 C 
BRANCH  32  33
ATOM     33  O   UNL     1      23.428  15.185  -3.348  0.00  0.00    -0.353 OA
BRANCH  33  34
ATOM     34  C   UNL     1      22.494  14.168  -3.680  0.00  0.00    +0.197 C 
BRANCH  34  35
ATOM     35  C   UNL     1      21.967  13.599  -2.391  0.00  0.00    -0.022 A 
ATOM     36  C   UNL     1      20.789  14.101  -1.820  0.00  0.00    +0.006 A 
ATOM     37  C   UNL     1      20.322  13.600  -0.603  0.00  0.00    +0.000 A 
ATOM     38  C   UNL     1      21.030  12.599   0.057  0.00  0.00    +0.000 A 
ATOM     39  C   UNL     1      22.209  12.099  -0.495  0.00  0.00    +0.000 A 
ATOM     40  C   UNL     1      22.678  12.599  -1.712  0.00  0.00    +0.006 A 
ENDBRANCH  34  35
ENDBRANCH  33  34
ENDBRANCH  32  33
ENDBRANCH  30  32
ENDBRANCH  26  28
ENDBRANCH  25  26
ENDBRANCH  24  25
ENDBRANCH   1  24
TORSDOF 14
