REMARK VINA RESULT:    -7.017      1.814      3.141
REMARK INTER + INTRA:         -13.379
REMARK INTER:                 -11.304
REMARK INTRA:                  -2.075
REMARK UNBOUND:                -1.850
REMARK  Name = lig_assembled_2.pdb
REMARK  11 active torsions:
REMARK  status: ('A' for Active; 'I' for Inactive)
REMARK    1  A    between atoms: _2  and  _8
REMARK    2  A    between atoms: _5  and  _6
REMARK    3  A    between atoms: _5  and  _13
REMARK    4  A    between atoms: _13  and  _15
REMARK    5  A    between atoms: _14  and  _19
REMARK    6  A    between atoms: _15  and  _18
REMARK    7  A    between atoms: _23  and  _33
REMARK    8  A    between atoms: _25  and  _26
REMARK    9  A    between atoms: _27  and  _29
REMARK   10  A    between atoms: _29  and  _31
REMARK   11  A    between atoms: _31  and  _33
REMARK                            x       y       z     vdW  Elec       q    Type
REMARK                         _______ _______ _______ _____ _____    ______ ____
ROOT
ATOM      1  C   UNL     1      27.902  17.476  -0.776  0.00  0.00    +0.400 C 
ATOM      2  N   UNL     1      28.579  16.499  -0.084  0.00  0.00    -0.278 N 
ATOM      3  H   UNL     1      28.728  16.936   0.880  0.00  0.00    +0.152 HD
ATOM      4  O   UNL     1      27.490  18.449  -0.149  0.00  0.00    -0.226 OA
ENDROOT
BRANCH   1   5
ATOM      5  O   UNL     1      27.789  17.284  -2.049  0.00  0.00    -0.450 OA
BRANCH   5   6
ATOM      6  C   UNL     1      26.842  17.463  -3.076  0.00  0.00    +0.240 C 
BRANCH   6   7
ATOM      7  C   UNL     1      26.499  16.239  -3.947  0.00  0.00    +0.100 C 
BRANCH   7   9
ATOM      8  N   UNL     1      27.122  14.091  -2.889  0.00  0.00    -0.134 NA
ATOM      9  C   UNL     1      26.197  15.073  -3.095  0.00  0.00    +0.086 A 
ATOM     10  C   UNL     1      25.052  14.765  -2.398  0.00  0.00    +0.139 A 
ATOM     11  N   UNL     1      25.337  13.586  -1.748  0.00  0.00    -0.220 N 
ATOM     12  N   UNL     1      26.591  13.188  -2.077  0.00  0.00    -0.061 NA
BRANCH  11  13
ATOM     13  C   UNL     1      24.528  12.853  -0.841  0.00  0.00    +0.067 A 
ATOM     14  C   UNL     1      25.106  12.084   0.180  0.00  0.00    +0.029 A 
ATOM     15  C   UNL     1      24.291  11.339   1.040  0.00  0.00    +0.022 A 
ATOM     16  C   UNL     1      22.907  11.361   0.885  0.00  0.00    +0.041 A 
ATOM     17 CL   UNL     1      21.916  10.424   1.933  0.00  0.00    -0.084 Cl
ATOM     18  C   UNL     1      22.324  12.133  -0.117  0.00  0.00    +0.022 A 
ATOM     19  C   UNL     1      23.130  12.880  -0.980  0.00  0.00    +0.029 A 
ENDBRANCH  11  13
ENDBRANCH   7   9
ENDBRANCH   6   7
ENDBRANCH   5   6
ENDBRANCH   1   5
BRANCH   2  20
ATOM     20  C   UNL     1      29.160  15.159  -0.072  0.00  0.00    +0.152 C 
BRANCH  20  21
ATOM     21  C   UNL     1      30.693  15.084   0.081  0.00  0.00    +0.193 C 
ATOM     22  O   UNL     1      31.018  15.730   1.331  0.00  0.00    -0.219 OA
BRANCH  21  23
ATOM     23  C   UNL     1      31.333  13.683   0.193  0.00  0.00    +0.212 C 
ATOM     24  O   UNL     1      32.329  13.503  -0.826  0.00  0.00    -0.218 OA
BRANCH  23  25
ATOM     25  C   UNL     1      31.993  13.409   1.598  0.00  0.00    +0.171 C 
ATOM     26  O   UNL     1      33.344  12.970   1.492  0.00  0.00    -0.343 OA
ATOM     27  C   UNL     1      34.082  12.429   2.548  0.00  0.00    +0.220 C 
ATOM     28  C   UNL     1      33.318  11.298   3.258  0.00  0.00    +0.076 C 
ATOM     29  C   UNL     1      31.936  11.848   3.649  0.00  0.00    +0.177 C 
ATOM     30  O   UNL     1      31.201  10.853   4.346  0.00  0.00    -0.221 OA
ATOM     31  C   UNL     1      31.171  12.332   2.378  0.00  0.00    +0.155 C 
BRANCH  31  32
ATOM     32  N   UNL     1      29.855  12.849   2.745  0.00  0.00    -0.202 NA
ATOM     33  C   UNL     1      28.620  12.385   2.425  0.00  0.00    +0.242 C 
ATOM     34  C   UNL     1      27.433  12.931   3.176  0.00  0.00    +0.096 C 
ATOM     35  O   UNL     1      28.499  11.539   1.541  0.00  0.00    -0.273 OA
ENDBRANCH  31  32
BRANCH  27  36
ATOM     36  C   UNL     1      34.614  13.544   3.602  0.00  0.00    +0.391 C 
ATOM     37  O   UNL     1      34.802  12.871   4.754  0.00  0.00    -0.243 OA
ATOM     38  O   UNL     1      34.949  14.615   2.872  0.00  0.00    -0.243 OA
ENDBRANCH  27  36
ENDBRANCH  23  25
ENDBRANCH  21  23
ENDBRANCH  20  21
ENDBRANCH   2  20
TORSDOF 11
