REMARK VINA RESULT:    -6.650     21.301     24.485
REMARK INTER + INTRA:         -12.698
REMARK INTER:                 -10.431
REMARK INTRA:                  -2.267
REMARK UNBOUND:                -1.188
REMARK  Name = lig_assembled_35.pdb
REMARK  14 active torsions:
REMARK  status: ('A' for Active; 'I' for Inactive)
REMARK    1  A    between atoms: _2  and  _8
REMARK    2  A    between atoms: _4  and  _8
REMARK    3  A    between atoms: _4  and  _10
REMARK    4  A    between atoms: _5  and  _6
REMARK    5  A    between atoms: _5  and  _12
REMARK    6  A    between atoms: _8  and  _9
REMARK    7  A    between atoms: _12  and  _14
REMARK    8  A    between atoms: _13  and  _18
REMARK    9  A    between atoms: _14  and  _17
REMARK   10  A    between atoms: _22  and  _32
REMARK   11  A    between atoms: _24  and  _25
REMARK   12  A    between atoms: _26  and  _28
REMARK   13  A    between atoms: _28  and  _30
REMARK   14  A    between atoms: _30  and  _32
REMARK                            x       y       z     vdW  Elec       q    Type
REMARK                         _______ _______ _______ _____ _____    ______ ____
ROOT
ATOM      1  C   UNL     1      46.914  25.405   9.794  0.00  0.00    +0.152 C 
ENDROOT
BRANCH   1   3
ATOM      2  C   UNL     1      44.804  26.674  10.970  0.00  0.00    +0.400 C 
ATOM      3  N   UNL     1      45.598  25.956  10.108  0.00  0.00    -0.278 N 
ATOM      4  H   UNL     1      44.933  25.707   9.308  0.00  0.00    +0.152 HD
ATOM      5  O   UNL     1      43.684  27.004  10.588  0.00  0.00    -0.226 OA
BRANCH   2   6
ATOM      6  O   UNL     1      45.313  26.911  12.134  0.00  0.00    -0.450 OA
BRANCH   6   7
ATOM      7  C   UNL     1      46.321  26.410  12.982  0.00  0.00    +0.240 C 
BRANCH   7   8
ATOM      8  C   UNL     1      46.837  27.337  14.098  0.00  0.00    +0.100 C 
BRANCH   8  10
ATOM      9  N   UNL     1      45.083  27.757  15.793  0.00  0.00    -0.134 NA
ATOM     10  C   UNL     1      46.164  27.027  15.373  0.00  0.00    +0.086 A 
ATOM     11  C   UNL     1      46.441  26.057  16.311  0.00  0.00    +0.134 A 
ATOM     12  N   UNL     1      45.487  26.239  17.268  0.00  0.00    -0.238 N 
ATOM     13  N   UNL     1      44.687  27.276  16.962  0.00  0.00    -0.065 NA
BRANCH  12  14
ATOM     14  C   UNL     1      45.267  25.518  18.507  0.00  0.00    +0.214 C 
ATOM     15  C   UNL     1      43.900  25.852  19.098  0.00  0.00    +0.045 C 
BRANCH  14  16
ATOM     16  C   UNL     1      45.461  24.027  18.322  0.00  0.00    +0.329 C 
ATOM     17  O   UNL     1      46.374  23.382  18.820  0.00  0.00    -0.249 OA
BRANCH  16  18
ATOM     18  O   UNL     1      44.540  23.438  17.520  0.00  0.00    -0.479 OA
ATOM     19  H   UNL     1      44.782  23.369  16.574  0.00  0.00    +0.295 HD
ENDBRANCH  16  18
ENDBRANCH  14  16
ENDBRANCH  12  14
ENDBRANCH   8  10
ENDBRANCH   7   8
ENDBRANCH   6   7
ENDBRANCH   2   6
ENDBRANCH   1   3
BRANCH   1  20
ATOM     20  C   UNL     1      47.060  23.875   9.926  0.00  0.00    +0.193 C 
ATOM     21  O   UNL     1      48.362  23.630  10.502  0.00  0.00    -0.219 OA
BRANCH  20  22
ATOM     22  C   UNL     1      46.078  23.142  10.866  0.00  0.00    +0.212 C 
ATOM     23  O   UNL     1      44.730  23.277  10.388  0.00  0.00    -0.218 OA
BRANCH  22  24
ATOM     24  C   UNL     1      46.401  21.608  11.032  0.00  0.00    +0.171 C 
ATOM     25  O   UNL     1      45.657  20.790  10.135  0.00  0.00    -0.343 OA
ATOM     26  C   UNL     1      45.564  19.400  10.228  0.00  0.00    +0.220 C 
ATOM     27  C   UNL     1      45.171  18.948  11.646  0.00  0.00    +0.076 C 
ATOM     28  C   UNL     1      46.159  19.598  12.629  0.00  0.00    +0.177 C 
ATOM     29  O   UNL     1      45.865  19.181  13.954  0.00  0.00    -0.221 OA
ATOM     30  C   UNL     1      46.103  21.152  12.498  0.00  0.00    +0.155 C 
BRANCH  30  31
ATOM     31  N   UNL     1      47.035  21.774  13.435  0.00  0.00    -0.202 NA
ATOM     32  C   UNL     1      46.786  22.466  14.576  0.00  0.00    +0.242 C 
ATOM     33  C   UNL     1      47.936  22.745  15.509  0.00  0.00    +0.096 C 
ATOM     34  O   UNL     1      45.642  22.845  14.820  0.00  0.00    -0.273 OA
ENDBRANCH  30  31
BRANCH  26  35
ATOM     35  C   UNL     1      46.891  18.626   9.701  0.00  0.00    +0.391 C 
ATOM     36  O   UNL     1      46.772  17.370  10.174  0.00  0.00    -0.243 OA
ATOM     37  O   UNL     1      47.435  19.417   8.769  0.00  0.00    -0.243 OA
ENDBRANCH  26  35
ENDBRANCH  22  24
ENDBRANCH  20  22
ENDBRANCH   1  20
TORSDOF 13
