REMARK VINA RESULT:    -6.206      3.260      9.530
REMARK INTER + INTRA:         -13.456
REMARK INTER:                 -11.730
REMARK INTRA:                  -1.726
REMARK UNBOUND:                -1.808
REMARK  Name = lig_assembled_43.pdb
REMARK  15 active torsions:
REMARK  status: ('A' for Active; 'I' for Inactive)
REMARK    1  A    between atoms: _2  and  _8
REMARK    2  A    between atoms: _5  and  _6
REMARK    3  A    between atoms: _5  and  _13
REMARK    4  A    between atoms: _8  and  _9
REMARK    5  A    between atoms: _9  and  _10
REMARK    6  A    between atoms: _10  and  _11
REMARK    7  A    between atoms: _11  and  _12
REMARK    8  A    between atoms: _13  and  _15
REMARK    9  A    between atoms: _14  and  _19
REMARK   10  A    between atoms: _15  and  _18
REMARK   11  A    between atoms: _23  and  _33
REMARK   12  A    between atoms: _25  and  _26
REMARK   13  A    between atoms: _27  and  _29
REMARK   14  A    between atoms: _29  and  _31
REMARK   15  A    between atoms: _31  and  _33
REMARK                            x       y       z     vdW  Elec       q    Type
REMARK                         _______ _______ _______ _____ _____    ______ ____
ROOT
ATOM      1  C   UNL     1      27.103  17.180  -3.607  0.00  0.00    +0.152 C 
ENDROOT
BRANCH   1   3
ATOM      2  C   UNL     1      27.946  17.841  -1.098  0.00  0.00    +0.400 C 
ATOM      3  N   UNL     1      27.185  17.652  -2.227  0.00  0.00    -0.278 N 
ATOM      4  H   UNL     1      26.230  18.043  -1.950  0.00  0.00    +0.152 HD
ATOM      5  O   UNL     1      27.474  18.518  -0.188  0.00  0.00    -0.226 OA
BRANCH   2   6
ATOM      6  O   UNL     1      29.096  17.250  -1.092  0.00  0.00    -0.450 OA
BRANCH   6   7
ATOM      7  C   UNL     1      30.097  16.870  -0.176  0.00  0.00    +0.240 C 
BRANCH   7   8
ATOM      8  C   UNL     1      30.187  15.378   0.199  0.00  0.00    +0.100 C 
BRANCH   8  10
ATOM      9  N   UNL     1      32.356  15.315  -0.993  0.00  0.00    -0.134 NA
ATOM     10  C   UNL     1      31.572  14.895   0.050  0.00  0.00    +0.086 A 
ATOM     11  C   UNL     1      32.291  14.017   0.829  0.00  0.00    +0.133 A 
ATOM     12  N   UNL     1      33.500  13.941   0.205  0.00  0.00    -0.251 N 
ATOM     13  N   UNL     1      33.539  14.722  -0.888  0.00  0.00    -0.065 NA
BRANCH  12  14
ATOM     14  C   UNL     1      34.642  13.131   0.569  0.00  0.00    +0.145 C 
BRANCH  14  15
ATOM     15  C   UNL     1      34.667  12.842   2.067  0.00  0.00    +0.024 C 
BRANCH  15  16
ATOM     16  C   UNL     1      35.267  14.000   2.866  0.00  0.00    +0.006 C 
BRANCH  16  17
ATOM     17  C   UNL     1      34.317  14.428   3.987  0.00  0.00    +0.026 C 
BRANCH  17  18
ATOM     18  C   UNL     1      34.152  13.355   5.022  0.00  0.00    -0.034 C 
ATOM     19  C   UNL     1      32.989  12.742   5.281  0.00  0.00    +0.004 C 
ENDBRANCH  17  18
ENDBRANCH  16  17
ENDBRANCH  15  16
ENDBRANCH  14  15
ENDBRANCH  12  14
ENDBRANCH   8  10
ENDBRANCH   7   8
ENDBRANCH   6   7
ENDBRANCH   2   6
ENDBRANCH   1   3
BRANCH   1  20
ATOM     20  C   UNL     1      26.034  16.106  -3.895  0.00  0.00    +0.193 C 
ATOM     21  O   UNL     1      26.040  15.886  -5.323  0.00  0.00    -0.219 OA
BRANCH  20  22
ATOM     22  C   UNL     1      26.249  14.702  -3.288  0.00  0.00    +0.212 C 
ATOM     23  O   UNL     1      26.973  14.795  -2.050  0.00  0.00    -0.218 OA
BRANCH  22  24
ATOM     24  C   UNL     1      24.905  13.921  -3.028  0.00  0.00    +0.171 C 
ATOM     25  O   UNL     1      23.990  14.658  -2.224  0.00  0.00    -0.343 OA
ATOM     26  C   UNL     1      22.840  14.119  -1.642  0.00  0.00    +0.220 C 
ATOM     27  C   UNL     1      23.145  12.825  -0.868  0.00  0.00    +0.076 C 
ATOM     28  C   UNL     1      23.891  11.879  -1.824  0.00  0.00    +0.177 C 
ATOM     29  O   UNL     1      24.163  10.648  -1.169  0.00  0.00    -0.221 OA
ATOM     30  C   UNL     1      25.204  12.554  -2.331  0.00  0.00    +0.155 C 
BRANCH  30  31
ATOM     31  N   UNL     1      25.920  11.656  -3.233  0.00  0.00    -0.202 NA
ATOM     32  C   UNL     1      27.112  11.029  -3.068  0.00  0.00    +0.242 C 
ATOM     33  C   UNL     1      27.481   9.928  -4.028  0.00  0.00    +0.096 C 
ATOM     34  O   UNL     1      27.855  11.369  -2.150  0.00  0.00    -0.273 OA
ENDBRANCH  30  31
BRANCH  26  35
ATOM     35  C   UNL     1      21.619  13.912  -2.695  0.00  0.00    +0.391 C 
ATOM     36  O   UNL     1      20.741  13.115  -2.056  0.00  0.00    -0.243 OA
ATOM     37  O   UNL     1      21.797  14.831  -3.652  0.00  0.00    -0.243 OA
ENDBRANCH  26  35
ENDBRANCH  22  24
ENDBRANCH  20  22
ENDBRANCH   1  20
TORSDOF 15
