REMARK VINA RESULT:    -6.398      1.836      2.668
REMARK INTER + INTRA:         -13.455
REMARK INTER:                 -12.093
REMARK INTRA:                  -1.362
REMARK UNBOUND:                -2.194
REMARK  Name = lig_assembled_14.pdb
REMARK  13 active torsions:
REMARK  status: ('A' for Active; 'I' for Inactive)
REMARK    1  A    between atoms: _2  and  _9
REMARK    2  A    between atoms: _3  and  _10
REMARK    3  A    between atoms: _6  and  _7
REMARK    4  A    between atoms: _6  and  _14
REMARK    5  A    between atoms: _9  and  _10
REMARK    6  A    between atoms: _14  and  _16
REMARK    7  A    between atoms: _15  and  _20
REMARK    8  A    between atoms: _16  and  _19
REMARK    9  A    between atoms: _24  and  _34
REMARK   10  A    between atoms: _26  and  _27
REMARK   11  A    between atoms: _28  and  _30
REMARK   12  A    between atoms: _30  and  _32
REMARK   13  A    between atoms: _32  and  _34
REMARK                            x       y       z     vdW  Elec       q    Type
REMARK                         _______ _______ _______ _____ _____    ______ ____
ROOT
ATOM      1  C   UNL     1      27.931  17.323  -0.680  0.00  0.00    +0.400 C 
ATOM      2  N   UNL     1      28.674  16.385  -0.003  0.00  0.00    -0.278 N 
ATOM      3  H   UNL     1      28.917  16.877   0.914  0.00  0.00    +0.152 HD
ATOM      4  O   UNL     1      27.583  18.334  -0.074  0.00  0.00    -0.226 OA
ENDROOT
BRANCH   2   5
ATOM      5  C   UNL     1      29.254  15.045   0.030  0.00  0.00    +0.152 C 
BRANCH   5   6
ATOM      6  C   UNL     1      30.793  14.968  -0.047  0.00  0.00    +0.193 C 
ATOM      7  O   UNL     1      31.244  16.222  -0.605  0.00  0.00    -0.219 OA
BRANCH   6   8
ATOM      8  C   UNL     1      31.570  14.837   1.282  0.00  0.00    +0.212 C 
ATOM      9  O   UNL     1      31.263  15.937   2.153  0.00  0.00    -0.218 OA
BRANCH   8  10
ATOM     10  C   UNL     1      31.275  13.490   2.047  0.00  0.00    +0.171 C 
ATOM     11  O   UNL     1      30.077  13.548   2.814  0.00  0.00    -0.343 OA
ATOM     12  C   UNL     1      29.706  12.598   3.769  0.00  0.00    +0.220 C 
ATOM     13  C   UNL     1      30.842  12.321   4.769  0.00  0.00    +0.076 C 
ATOM     14  C   UNL     1      32.098  11.965   3.955  0.00  0.00    +0.177 C 
ATOM     15  O   UNL     1      33.171  11.661   4.835  0.00  0.00    -0.221 OA
ATOM     16  C   UNL     1      32.467  13.139   2.996  0.00  0.00    +0.155 C 
BRANCH  16  17
ATOM     17  N   UNL     1      33.663  12.808   2.226  0.00  0.00    -0.202 NA
ATOM     18  C   UNL     1      34.910  13.342   2.287  0.00  0.00    +0.242 C 
ATOM     19  C   UNL     1      36.033  12.617   1.592  0.00  0.00    +0.096 C 
ATOM     20  O   UNL     1      35.092  14.390   2.902  0.00  0.00    -0.273 OA
ENDBRANCH  16  17
BRANCH  12  21
ATOM     21  C   UNL     1      29.130  11.223   3.124  0.00  0.00    +0.391 C 
ATOM     22  O   UNL     1      29.133  10.336   4.138  0.00  0.00    -0.243 OA
ATOM     23  O   UNL     1      28.598  11.562   1.944  0.00  0.00    -0.243 OA
ENDBRANCH  12  21
ENDBRANCH   8  10
ENDBRANCH   6   8
ENDBRANCH   5   6
ENDBRANCH   2   5
BRANCH   1  24
ATOM     24  O   UNL     1      27.693  17.059  -1.922  0.00  0.00    -0.450 OA
BRANCH  24  25
ATOM     25  C   UNL     1      26.786  17.421  -2.937  0.00  0.00    +0.240 C 
BRANCH  25  26
ATOM     26  C   UNL     1      26.776  16.568  -4.220  0.00  0.00    +0.100 C 
BRANCH  26  28
ATOM     27  N   UNL     1      25.223  15.036  -5.387  0.00  0.00    -0.134 NA
ATOM     28  C   UNL     1      25.598  15.680  -4.238  0.00  0.00    +0.086 A 
ATOM     29  C   UNL     1      24.718  15.354  -3.230  0.00  0.00    +0.133 A 
ATOM     30  N   UNL     1      23.826  14.522  -3.833  0.00  0.00    -0.250 N 
ATOM     31  N   UNL     1      24.136  14.324  -5.126  0.00  0.00    -0.065 NA
BRANCH  30  32
ATOM     32  C   UNL     1      22.636  13.926  -3.269  0.00  0.00    +0.160 C 
BRANCH  32  33
ATOM     33  C   UNL     1      22.347  14.450  -1.857  0.00  0.00    +0.107 C 
BRANCH  33  34
ATOM     34  N   UNL     1      22.405  13.398  -0.828  0.00  0.00    -0.301 NA
ATOM     35  C   UNL     1      21.093  12.817  -0.524  0.00  0.00    +0.084 C 
ATOM     36  C   UNL     1      21.460  11.539   0.202  0.00  0.00    +0.017 C 
ATOM     37  C   UNL     1      22.691  11.044  -0.536  0.00  0.00    +0.017 C 
ATOM     38  C   UNL     1      23.254  12.273  -1.246  0.00  0.00    +0.084 C 
ENDBRANCH  33  34
ENDBRANCH  32  33
ENDBRANCH  30  32
ENDBRANCH  26  28
ENDBRANCH  25  26
ENDBRANCH  24  25
ENDBRANCH   1  24
TORSDOF 13
