REMARK VINA RESULT:    -6.283      1.994      2.490
REMARK INTER + INTRA:         -12.958
REMARK INTER:                 -11.609
REMARK INTRA:                  -1.349
REMARK UNBOUND:                -1.716
REMARK  Name = lig_assembled_32.pdb
REMARK  14 active torsions:
REMARK  status: ('A' for Active; 'I' for Inactive)
REMARK    1  A    between atoms: _2  and  _8
REMARK    2  A    between atoms: _4  and  _9
REMARK    3  A    between atoms: _4  and  _10
REMARK    4  A    between atoms: _5  and  _6
REMARK    5  A    between atoms: _5  and  _12
REMARK    6  A    between atoms: _8  and  _9
REMARK    7  A    between atoms: _12  and  _14
REMARK    8  A    between atoms: _13  and  _18
REMARK    9  A    between atoms: _14  and  _17
REMARK   10  A    between atoms: _22  and  _32
REMARK   11  A    between atoms: _24  and  _25
REMARK   12  A    between atoms: _26  and  _28
REMARK   13  A    between atoms: _28  and  _30
REMARK   14  A    between atoms: _30  and  _32
REMARK                            x       y       z     vdW  Elec       q    Type
REMARK                         _______ _______ _______ _____ _____    ______ ____
ROOT
ATOM      1  C   UNL     1      28.606  14.875   0.253  0.00  0.00    +0.152 C 
ENDROOT
BRANCH   1   3
ATOM      2  C   UNL     1      28.030  17.254  -0.952  0.00  0.00    +0.400 C 
ATOM      3  N   UNL     1      28.505  16.290  -0.094  0.00  0.00    -0.278 N 
ATOM      4  H   UNL     1      29.021  16.855   0.652  0.00  0.00    +0.152 HD
ATOM      5  O   UNL     1      28.123  18.430  -0.610  0.00  0.00    -0.226 OA
BRANCH   2   6
ATOM      6  O   UNL     1      27.549  16.821  -2.071  0.00  0.00    -0.450 OA
BRANCH   6   7
ATOM      7  C   UNL     1      26.992  17.327  -3.261  0.00  0.00    +0.240 C 
BRANCH   7   8
ATOM      8  C   UNL     1      26.227  16.339  -4.164  0.00  0.00    +0.100 C 
BRANCH   8  10
ATOM      9  N   UNL     1      26.136  14.029  -3.282  0.00  0.00    -0.134 NA
ATOM     10  C   UNL     1      25.594  15.285  -3.350  0.00  0.00    +0.086 A 
ATOM     11  C   UNL     1      24.454  15.326  -2.577  0.00  0.00    +0.133 A 
ATOM     12  N   UNL     1      24.353  14.064  -2.079  0.00  0.00    -0.251 N 
ATOM     13  N   UNL     1      25.365  13.286  -2.501  0.00  0.00    -0.065 NA
BRANCH  12  14
ATOM     14  C   UNL     1      23.338  13.525  -1.201  0.00  0.00    +0.156 C 
BRANCH  14  15
ATOM     15  C   UNL     1      22.072  13.147  -1.958  0.00  0.00    +0.143 C 
BRANCH  15  16
ATOM     16  C   UNL     1      21.009  14.184  -1.740  0.00  0.00    +0.306 C 
ATOM     17  O   UNL     1      20.783  15.119  -2.493  0.00  0.00    -0.251 OA
BRANCH  16  18
ATOM     18  O   UNL     1      20.319  13.990  -0.595  0.00  0.00    -0.481 OA
ATOM     19  H   UNL     1      20.877  13.902   0.202  0.00  0.00    +0.295 HD
ENDBRANCH  16  18
ENDBRANCH  15  16
ENDBRANCH  14  15
ENDBRANCH  12  14
ENDBRANCH   8  10
ENDBRANCH   7   8
ENDBRANCH   6   7
ENDBRANCH   2   6
ENDBRANCH   1   3
BRANCH   1  20
ATOM     20  C   UNL     1      30.018  14.360   0.603  0.00  0.00    +0.193 C 
ATOM     21  O   UNL     1      29.902  12.935   0.806  0.00  0.00    -0.219 OA
BRANCH  20  22
ATOM     22  C   UNL     1      31.119  14.508  -0.471  0.00  0.00    +0.212 C 
ATOM     23  O   UNL     1      31.574  15.869  -0.538  0.00  0.00    -0.218 OA
BRANCH  22  24
ATOM     24  C   UNL     1      32.362  13.572  -0.223  0.00  0.00    +0.171 C 
ATOM     25  O   UNL     1      33.130  13.969   0.909  0.00  0.00    -0.343 OA
ATOM     26  C   UNL     1      34.401  13.475   1.212  0.00  0.00    +0.220 C 
ATOM     27  C   UNL     1      35.348  13.555   0.002  0.00  0.00    +0.076 C 
ATOM     28  C   UNL     1      34.648  12.862  -1.179  0.00  0.00    +0.177 C 
ATOM     29  O   UNL     1      35.500  12.873  -2.317  0.00  0.00    -0.221 OA
ATOM     30  C   UNL     1      33.287  13.562  -1.484  0.00  0.00    +0.155 C 
BRANCH  30  31
ATOM     31  N   UNL     1      32.623  12.910  -2.610  0.00  0.00    -0.202 NA
ATOM     32  C   UNL     1      32.676  13.201  -3.935  0.00  0.00    +0.242 C 
ATOM     33  C   UNL     1      32.131  12.191  -4.911  0.00  0.00    +0.096 C 
ATOM     34  O   UNL     1      33.163  14.267  -4.304  0.00  0.00    -0.273 OA
ENDBRANCH  30  31
BRANCH  26  35
ATOM     35  C   UNL     1      34.379  11.983   1.855  0.00  0.00    +0.391 C 
ATOM     36  O   UNL     1      33.088  11.602   1.804  0.00  0.00    -0.243 OA
ATOM     37  O   UNL     1      35.656  11.585   1.910  0.00  0.00    -0.243 OA
ENDBRANCH  26  35
ENDBRANCH  22  24
ENDBRANCH  20  22
ENDBRANCH   1  20
TORSDOF 14
