REMARK VINA RESULT:    -6.951      2.894      8.939
REMARK INTER + INTRA:         -13.218
REMARK INTER:                 -10.902
REMARK INTRA:                  -2.316
REMARK UNBOUND:                -1.188
REMARK  Name = lig_assembled_35.pdb
REMARK  14 active torsions:
REMARK  status: ('A' for Active; 'I' for Inactive)
REMARK    1  A    between atoms: _2  and  _8
REMARK    2  A    between atoms: _4  and  _8
REMARK    3  A    between atoms: _4  and  _10
REMARK    4  A    between atoms: _5  and  _6
REMARK    5  A    between atoms: _5  and  _12
REMARK    6  A    between atoms: _8  and  _9
REMARK    7  A    between atoms: _12  and  _14
REMARK    8  A    between atoms: _13  and  _18
REMARK    9  A    between atoms: _14  and  _17
REMARK   10  A    between atoms: _22  and  _32
REMARK   11  A    between atoms: _24  and  _25
REMARK   12  A    between atoms: _26  and  _28
REMARK   13  A    between atoms: _28  and  _30
REMARK   14  A    between atoms: _30  and  _32
REMARK                            x       y       z     vdW  Elec       q    Type
REMARK                         _______ _______ _______ _____ _____    ______ ____
ROOT
ATOM      1  C   UNL     1      27.894  14.021  -0.640  0.00  0.00    +0.152 C 
ENDROOT
BRANCH   1   3
ATOM      2  C   UNL     1      28.647  16.641  -0.507  0.00  0.00    +0.400 C 
ATOM      3  N   UNL     1      27.917  15.475  -0.501  0.00  0.00    -0.278 N 
ATOM      4  H   UNL     1      26.918  15.810  -0.323  0.00  0.00    +0.152 HD
ATOM      5  O   UNL     1      28.036  17.706  -0.501  0.00  0.00    -0.226 OA
BRANCH   2   6
ATOM      6  O   UNL     1      29.931  16.497  -0.486  0.00  0.00    -0.450 OA
BRANCH   6   7
ATOM      7  C   UNL     1      30.944  16.073   0.396  0.00  0.00    +0.240 C 
BRANCH   7   8
ATOM      8  C   UNL     1      31.301  14.574   0.400  0.00  0.00    +0.100 C 
BRANCH   8  10
ATOM      9  N   UNL     1      32.947  15.230  -1.329  0.00  0.00    -0.134 NA
ATOM     10  C   UNL     1      32.186  14.256  -0.737  0.00  0.00    +0.086 A 
ATOM     11  C   UNL     1      32.413  13.058  -1.377  0.00  0.00    +0.134 A 
ATOM     12  N   UNL     1      33.330  13.366  -2.339  0.00  0.00    -0.238 N 
ATOM     13  N   UNL     1      33.631  14.676  -2.319  0.00  0.00    -0.065 NA
BRANCH  12  14
ATOM     14  C   UNL     1      33.952  12.512  -3.333  0.00  0.00    +0.214 C 
ATOM     15  C   UNL     1      33.398  11.092  -3.257  0.00  0.00    +0.045 C 
BRANCH  14  16
ATOM     16  C   UNL     1      33.830  13.100  -4.723  0.00  0.00    +0.329 C 
ATOM     17  O   UNL     1      34.610  12.877  -5.640  0.00  0.00    -0.249 OA
BRANCH  16  18
ATOM     18  O   UNL     1      32.777  13.939  -4.885  0.00  0.00    -0.479 OA
ATOM     19  H   UNL     1      32.639  14.592  -4.169  0.00  0.00    +0.295 HD
ENDBRANCH  16  18
ENDBRANCH  14  16
ENDBRANCH  12  14
ENDBRANCH   8  10
ENDBRANCH   7   8
ENDBRANCH   6   7
ENDBRANCH   2   6
ENDBRANCH   1   3
BRANCH   1  20
ATOM     20  C   UNL     1      28.193  13.469  -2.049  0.00  0.00    +0.193 C 
ATOM     21  O   UNL     1      29.034  12.308  -1.869  0.00  0.00    -0.219 OA
BRANCH  20  22
ATOM     22  C   UNL     1      26.999  12.955  -2.883  0.00  0.00    +0.212 C 
ATOM     23  O   UNL     1      27.115  11.540  -3.106  0.00  0.00    -0.218 OA
BRANCH  22  24
ATOM     24  C   UNL     1      25.600  13.248  -2.219  0.00  0.00    +0.171 C 
ATOM     25  O   UNL     1      24.766  12.096  -2.168  0.00  0.00    -0.343 OA
ATOM     26  C   UNL     1      23.404  12.122  -1.860  0.00  0.00    +0.220 C 
ATOM     27  C   UNL     1      22.647  13.162  -2.704  0.00  0.00    +0.076 C 
ATOM     28  C   UNL     1      23.374  14.507  -2.542  0.00  0.00    +0.177 C 
ATOM     29  O   UNL     1      22.691  15.516  -3.273  0.00  0.00    -0.221 OA
ATOM     30  C   UNL     1      24.858  14.376  -3.007  0.00  0.00    +0.155 C 
BRANCH  30  31
ATOM     31  N   UNL     1      25.550  15.654  -2.861  0.00  0.00    -0.202 NA
ATOM     32  C   UNL     1      26.186  16.409  -3.793  0.00  0.00    +0.242 C 
ATOM     33  C   UNL     1      26.559  17.824  -3.435  0.00  0.00    +0.096 C 
ATOM     34  O   UNL     1      26.438  15.927  -4.895  0.00  0.00    -0.273 OA
ENDBRANCH  30  31
BRANCH  26  35
ATOM     35  C   UNL     1      23.103  12.308  -0.274  0.00  0.00    +0.391 C 
ATOM     36  O   UNL     1      21.787  12.587  -0.200  0.00  0.00    -0.243 OA
ATOM     37  O   UNL     1      24.177  11.828   0.365  0.00  0.00    -0.243 OA
ENDBRANCH  26  35
ENDBRANCH  22  24
ENDBRANCH  20  22
ENDBRANCH   1  20
TORSDOF 13
