REMARK VINA RESULT:    -7.131      4.947     11.208
REMARK INTER + INTRA:         -14.734
REMARK INTER:                 -12.759
REMARK INTRA:                  -1.975
REMARK UNBOUND:                -1.975
REMARK  Name = lig_assembled_77.pdb
REMARK  14 active torsions:
REMARK  status: ('A' for Active; 'I' for Inactive)
REMARK    1  A    between atoms: _2  and  _9
REMARK    2  A    between atoms: _3  and  _16
REMARK    3  A    between atoms: _6  and  _7
REMARK    4  A    between atoms: _6  and  _22
REMARK    5  A    between atoms: _12  and  _50
REMARK    6  A    between atoms: _13  and  _50
REMARK    7  A    between atoms: _22  and  _24
REMARK    8  A    between atoms: _23  and  _28
REMARK    9  A    between atoms: _24  and  _27
REMARK   10  A    between atoms: _32  and  _42
REMARK   11  A    between atoms: _34  and  _35
REMARK   12  A    between atoms: _36  and  _38
REMARK   13  A    between atoms: _38  and  _40
REMARK   14  A    between atoms: _40  and  _42
REMARK                            x       y       z     vdW  Elec       q    Type
REMARK                         _______ _______ _______ _____ _____    ______ ____
ROOT
ATOM      1  C   UNL     1      32.353  12.249   3.155  0.00  0.00    +0.240 C 
ENDROOT
BRANCH   1   2
ATOM      2  C   UNL     1      31.090  13.062   3.499  0.00  0.00    +0.100 C 
BRANCH   2   4
ATOM      3  N   UNL     1      31.495  14.948   1.954  0.00  0.00    -0.134 NA
ATOM      4  C   UNL     1      30.701  13.917   2.362  0.00  0.00    +0.086 A 
ATOM      5  C   UNL     1      29.585  13.863   1.559  0.00  0.00    +0.139 A 
ATOM      6  N   UNL     1      29.748  14.888   0.655  0.00  0.00    -0.220 N 
ATOM      7  N   UNL     1      30.906  15.539   0.923  0.00  0.00    -0.061 NA
BRANCH   6   8
ATOM      8  C   UNL     1      28.929  15.240  -0.451  0.00  0.00    +0.067 A 
ATOM      9  C   UNL     1      28.601  16.580  -0.708  0.00  0.00    +0.030 A 
ATOM     10  C   UNL     1      27.698  16.897  -1.727  0.00  0.00    +0.029 A 
ATOM     11  C   UNL     1      27.125  15.876  -2.487  0.00  0.00    +0.094 A 
ATOM     12  C   UNL     1      27.514  14.547  -2.300  0.00  0.00    +0.029 A 
ATOM     13  C   UNL     1      28.406  14.228  -1.274  0.00  0.00    +0.030 A 
BRANCH  11  14
ATOM     14  S   UNL     1      25.921  16.277  -3.737  0.00  0.00    +0.025 S 
ATOM     15  O   UNL     1      25.582  17.676  -3.538  0.00  0.00    -0.164 OA
ATOM     16  O   UNL     1      26.446  15.817  -5.009  0.00  0.00    -0.164 OA
BRANCH  14  17
ATOM     17  C   UNL     1      24.440  15.334  -3.435  0.00  0.00    +0.094 A 
ATOM     18  C   UNL     1      23.694  14.809  -4.491  0.00  0.00    +0.029 A 
ATOM     19  C   UNL     1      22.503  14.126  -4.219  0.00  0.00    +0.024 A 
ATOM     20  C   UNL     1      22.071  13.922  -2.903  0.00  0.00    +0.025 A 
ATOM     21  C   UNL     1      22.814  14.482  -1.860  0.00  0.00    +0.024 A 
ATOM     22  C   UNL     1      24.006  15.167  -2.117  0.00  0.00    +0.029 A 
BRANCH  20  23
ATOM     23  N   UNL     1      20.801  13.393  -2.653  0.00  0.00    -0.358 N 
ATOM     24  H   UNL     1      20.649  13.085  -1.698  0.00  0.00    +0.142 HD
ATOM     25  H   UNL     1      20.035  13.956  -3.007  0.00  0.00    +0.142 HD
ENDBRANCH  20  23
ENDBRANCH  14  17
ENDBRANCH  11  14
ENDBRANCH   6   8
ENDBRANCH   2   4
ENDBRANCH   1   2
BRANCH   1  26
ATOM     26  O   UNL     1      33.574  12.681   3.708  0.00  0.00    -0.450 OA
BRANCH  26  27
ATOM     27  C   UNL     1      34.022  13.223   4.793  0.00  0.00    +0.400 C 
ATOM     28  N   UNL     1      34.225  12.365   5.848  0.00  0.00    -0.278 N 
ATOM     29  H   UNL     1      34.766  12.961   6.551  0.00  0.00    +0.152 HD
ATOM     30  O   UNL     1      34.303  14.409   4.948  0.00  0.00    -0.226 OA
BRANCH  28  31
ATOM     31  C   UNL     1      34.025  11.041   6.431  0.00  0.00    +0.152 C 
BRANCH  31  32
ATOM     32  C   UNL     1      33.513  11.010   7.886  0.00  0.00    +0.193 C 
ATOM     33  O   UNL     1      34.482  11.725   8.683  0.00  0.00    -0.219 OA
BRANCH  32  34
ATOM     34  C   UNL     1      32.171  11.713   8.187  0.00  0.00    +0.212 C 
ATOM     35  O   UNL     1      31.714  12.438   7.033  0.00  0.00    -0.218 OA
BRANCH  34  36
ATOM     36  C   UNL     1      31.034  10.721   8.642  0.00  0.00    +0.171 C 
ATOM     37  O   UNL     1      29.832  10.887   7.897  0.00  0.00    -0.343 OA
ATOM     38  C   UNL     1      28.604  10.318   8.244  0.00  0.00    +0.220 C 
ATOM     39  C   UNL     1      28.240  10.600   9.712  0.00  0.00    +0.076 C 
ATOM     40  C   UNL     1      29.429  10.152  10.578  0.00  0.00    +0.177 C 
ATOM     41  O   UNL     1      29.129  10.354  11.952  0.00  0.00    -0.221 OA
ATOM     42  C   UNL     1      30.719  10.924  10.161  0.00  0.00    +0.155 C 
BRANCH  42  43
ATOM     43  N   UNL     1      31.850  10.506  10.986  0.00  0.00    -0.202 NA
ATOM     44  C   UNL     1      32.736  11.257  11.689  0.00  0.00    +0.242 C 
ATOM     45  C   UNL     1      33.623  10.566  12.690  0.00  0.00    +0.096 C 
ATOM     46  O   UNL     1      32.792  12.470  11.496  0.00  0.00    -0.273 OA
ENDBRANCH  42  43
BRANCH  38  47
ATOM     47  C   UNL     1      28.504   8.734   7.898  0.00  0.00    +0.391 C 
ATOM     48  O   UNL     1      27.367   8.320   8.491  0.00  0.00    -0.243 OA
ATOM     49  O   UNL     1      29.398   8.510   6.927  0.00  0.00    -0.243 OA
ENDBRANCH  38  47
ENDBRANCH  34  36
ENDBRANCH  32  34
ENDBRANCH  31  32
ENDBRANCH  28  31
ENDBRANCH  26  27
ENDBRANCH   1  26
TORSDOF 14
