REMARK VINA RESULT:    -6.576      1.809      3.797
REMARK INTER + INTRA:         -13.039
REMARK INTER:                 -11.382
REMARK INTRA:                  -1.658
REMARK UNBOUND:                -1.658
REMARK  Name = lig_assembled_60.pdb
REMARK  13 active torsions:
REMARK  status: ('A' for Active; 'I' for Inactive)
REMARK    1  A    between atoms: _2  and  _9
REMARK    2  A    between atoms: _3  and  _44
REMARK    3  A    between atoms: _6  and  _7
REMARK    4  A    between atoms: _6  and  _16
REMARK    5  A    between atoms: _12  and  _44
REMARK    6  A    between atoms: _16  and  _18
REMARK    7  A    between atoms: _17  and  _22
REMARK    8  A    between atoms: _18  and  _21
REMARK    9  A    between atoms: _26  and  _36
REMARK   10  A    between atoms: _28  and  _29
REMARK   11  A    between atoms: _30  and  _32
REMARK   12  A    between atoms: _32  and  _34
REMARK   13  A    between atoms: _34  and  _36
REMARK                            x       y       z     vdW  Elec       q    Type
REMARK                         _______ _______ _______ _____ _____    ______ ____
ROOT
ATOM      1  C   UNL     1      27.476  14.403  -2.070  0.00  0.00    +0.400 C 
ATOM      2  N   UNL     1      28.179  15.088  -1.108  0.00  0.00    -0.278 N 
ATOM      3  H   UNL     1      28.709  14.316  -0.592  0.00  0.00    +0.152 HD
ATOM      4  O   UNL     1      27.730  13.212  -2.236  0.00  0.00    -0.226 OA
ENDROOT
BRANCH   2   5
ATOM      5  C   UNL     1      28.529  16.368  -0.497  0.00  0.00    +0.152 C 
BRANCH   5   6
ATOM      6  C   UNL     1      30.021  16.575  -0.162  0.00  0.00    +0.193 C 
ATOM      7  O   UNL     1      30.110  17.806   0.589  0.00  0.00    -0.219 OA
BRANCH   6   8
ATOM      8  C   UNL     1      30.704  15.523   0.740  0.00  0.00    +0.212 C 
ATOM      9  O   UNL     1      29.720  14.687   1.369  0.00  0.00    -0.218 OA
BRANCH   8  10
ATOM     10  C   UNL     1      31.724  14.605  -0.035  0.00  0.00    +0.171 C 
ATOM     11  O   UNL     1      31.168  14.049  -1.222  0.00  0.00    -0.343 OA
ATOM     12  C   UNL     1      31.758  13.020  -1.962  0.00  0.00    +0.220 C 
ATOM     13  C   UNL     1      32.147  11.828  -1.071  0.00  0.00    +0.076 C 
ATOM     14  C   UNL     1      33.008  12.373   0.081  0.00  0.00    +0.177 C 
ATOM     15  O   UNL     1      33.429  11.303   0.915  0.00  0.00    -0.221 OA
ATOM     16  C   UNL     1      32.209  13.441   0.890  0.00  0.00    +0.155 C 
BRANCH  16  17
ATOM     17  N   UNL     1      33.022  13.956   1.989  0.00  0.00    -0.202 NA
ATOM     18  C   UNL     1      32.909  13.743   3.325  0.00  0.00    +0.242 C 
ATOM     19  C   UNL     1      34.054  14.155   4.214  0.00  0.00    +0.096 C 
ATOM     20  O   UNL     1      31.890  13.223   3.774  0.00  0.00    -0.273 OA
ENDBRANCH  16  17
BRANCH  12  21
ATOM     21  C   UNL     1      33.006  13.515  -2.877  0.00  0.00    +0.391 C 
ATOM     22  O   UNL     1      33.283  14.760  -2.443  0.00  0.00    -0.243 OA
ATOM     23  O   UNL     1      33.473  12.419  -3.488  0.00  0.00    -0.243 OA
ENDBRANCH  12  21
ENDBRANCH   8  10
ENDBRANCH   6   8
ENDBRANCH   5   6
ENDBRANCH   2   5
BRANCH   1  24
ATOM     24  O   UNL     1      26.576  15.085  -2.698  0.00  0.00    -0.450 OA
BRANCH  24  25
ATOM     25  C   UNL     1      25.417  14.870  -3.469  0.00  0.00    +0.240 C 
BRANCH  25  26
ATOM     26  C   UNL     1      24.102  15.498  -2.966  0.00  0.00    +0.100 C 
BRANCH  26  28
ATOM     27  N   UNL     1      21.997  14.457  -2.182  0.00  0.00    -0.134 NA
ATOM     28  C   UNL     1      23.359  14.532  -2.136  0.00  0.00    +0.086 A 
ATOM     29  C   UNL     1      23.831  13.596  -1.245  0.00  0.00    +0.139 A 
ATOM     30  N   UNL     1      22.710  12.938  -0.794  0.00  0.00    -0.220 N 
ATOM     31  N   UNL     1      21.609  13.493  -1.357  0.00  0.00    -0.061 NA
BRANCH  30  32
ATOM     32  C   UNL     1      22.630  11.823   0.081  0.00  0.00    +0.067 A 
ATOM     33  C   UNL     1      21.876  11.894   1.263  0.00  0.00    +0.030 A 
ATOM     34  C   UNL     1      21.860  10.816   2.150  0.00  0.00    +0.030 A 
ATOM     35  C   UNL     1      22.587   9.661   1.851  0.00  0.00    +0.105 A 
ATOM     36  C   UNL     1      23.329   9.571   0.670  0.00  0.00    +0.030 A 
ATOM     37  C   UNL     1      23.344  10.651  -0.218  0.00  0.00    +0.030 A 
BRANCH  35  38
ATOM     38  S   UNL     1      22.623   8.334   3.020  0.00  0.00    +0.056 S 
ATOM     39  O   UNL     1      23.644   7.389   2.639  0.00  0.00    -0.153 OA
ATOM     40  O   UNL     1      22.528   8.879   4.356  0.00  0.00    -0.153 OA
BRANCH  38  41
ATOM     41  N   UNL     1      21.154   7.579   2.724  0.00  0.00    -0.204 NA
ATOM     42  H   UNL     1      21.150   7.189   1.782  0.00  0.00    +0.144 HD
ATOM     43  H   UNL     1      20.390   8.231   2.903  0.00  0.00    +0.144 HD
ENDBRANCH  38  41
ENDBRANCH  35  38
ENDBRANCH  30  32
ENDBRANCH  26  28
ENDBRANCH  25  26
ENDBRANCH  24  25
ENDBRANCH   1  24
TORSDOF 13
