REMARK VINA RESULT:    -6.813      3.198      4.162
REMARK INTER + INTRA:         -12.803
REMARK INTER:                 -10.093
REMARK INTRA:                  -2.710
REMARK UNBOUND:                -1.609
REMARK  Name = lig_assembled_87.pdb
REMARK  12 active torsions:
REMARK  status: ('A' for Active; 'I' for Inactive)
REMARK    1  A    between atoms: _2  and  _9
REMARK    2  A    between atoms: _3  and  _12
REMARK    3  A    between atoms: _6  and  _7
REMARK    4  A    between atoms: _6  and  _16
REMARK    5  A    between atoms: _16  and  _18
REMARK    6  A    between atoms: _17  and  _22
REMARK    7  A    between atoms: _18  and  _21
REMARK    8  A    between atoms: _26  and  _36
REMARK    9  A    between atoms: _28  and  _29
REMARK   10  A    between atoms: _30  and  _32
REMARK   11  A    between atoms: _32  and  _34
REMARK   12  A    between atoms: _34  and  _36
REMARK                            x       y       z     vdW  Elec       q    Type
REMARK                         _______ _______ _______ _____ _____    ______ ____
ROOT
ATOM      1  C   UNL     1      27.935  17.451  -0.889  0.00  0.00    +0.400 C 
ATOM      2  N   UNL     1      28.488  16.388  -0.215  0.00  0.00    -0.278 N 
ATOM      3  H   UNL     1      28.529  16.731   0.796  0.00  0.00    +0.152 HD
ATOM      4  O   UNL     1      27.479  18.382  -0.230  0.00  0.00    -0.226 OA
ENDROOT
BRANCH   1   5
ATOM      5  O   UNL     1      27.976  17.379  -2.179  0.00  0.00    -0.450 OA
BRANCH   5   6
ATOM      6  C   UNL     1      27.133  17.051  -3.259  0.00  0.00    +0.240 C 
BRANCH   6   7
ATOM      7  C   UNL     1      25.844  16.268  -2.942  0.00  0.00    +0.100 C 
BRANCH   7   9
ATOM      8  N   UNL     1      27.022  14.160  -3.463  0.00  0.00    -0.134 NA
ATOM      9  C   UNL     1      26.165  14.857  -2.660  0.00  0.00    +0.086 A 
ATOM     10  C   UNL     1      25.738  14.039  -1.639  0.00  0.00    +0.134 A 
ATOM     11  N   UNL     1      26.463  12.890  -1.800  0.00  0.00    -0.248 N 
ATOM     12  N   UNL     1      27.139  12.940  -2.967  0.00  0.00    -0.065 NA
BRANCH  11  13
ATOM     13  C   UNL     1      26.586  11.693  -0.946  0.00  0.00    +0.112 C 
ATOM     14  C   UNL     1      25.736  10.475  -1.403  0.00  0.00    +0.045 C 
ATOM     15  C   UNL     1      24.700   9.966  -0.388  0.00  0.00    +0.059 C 
ATOM     16  C   UNL     1      25.346   9.114   0.715  0.00  0.00    +0.020 C 
ATOM     17  C   UNL     1      25.575  10.086   1.871  0.00  0.00    +0.020 C 
ATOM     18  C   UNL     1      25.213  11.450   1.281  0.00  0.00    +0.059 C 
ATOM     19  N   UNL     1      24.118  11.040   0.407  0.00  0.00    -0.299 NA
ATOM     20  C   UNL     1      23.397  12.078  -0.296  0.00  0.00    +0.105 C 
ATOM     21  C   UNL     1      26.416  12.059   0.559  0.00  0.00    +0.045 C 
ENDBRANCH  11  13
ENDBRANCH   7   9
ENDBRANCH   6   7
ENDBRANCH   5   6
ENDBRANCH   1   5
BRANCH   2  22
ATOM     22  C   UNL     1      29.020  15.028  -0.257  0.00  0.00    +0.152 C 
BRANCH  22  23
ATOM     23  C   UNL     1      30.555  14.896  -0.187  0.00  0.00    +0.193 C 
ATOM     24  O   UNL     1      31.094  16.226  -0.353  0.00  0.00    -0.219 OA
BRANCH  23  25
ATOM     25  C   UNL     1      31.170  14.394   1.137  0.00  0.00    +0.212 C 
ATOM     26  O   UNL     1      31.293  15.475   2.075  0.00  0.00    -0.218 OA
BRANCH  25  27
ATOM     27  C   UNL     1      30.340  13.235   1.811  0.00  0.00    +0.171 C 
ATOM     28  O   UNL     1      30.111  13.460   3.198  0.00  0.00    -0.343 OA
ATOM     29  C   UNL     1      29.623  12.496   4.083  0.00  0.00    +0.220 C 
ATOM     30  C   UNL     1      30.415  11.180   3.987  0.00  0.00    +0.076 C 
ATOM     31  C   UNL     1      30.429  10.755   2.510  0.00  0.00    +0.177 C 
ATOM     32  O   UNL     1      31.117   9.520   2.370  0.00  0.00    -0.221 OA
ATOM     33  C   UNL     1      31.083  11.870   1.635  0.00  0.00    +0.155 C 
BRANCH  33  34
ATOM     34  N   UNL     1      31.105  11.467   0.232  0.00  0.00    -0.202 NA
ATOM     35  C   UNL     1      32.145  11.404  -0.637  0.00  0.00    +0.242 C 
ATOM     36  C   UNL     1      31.946  10.674  -1.940  0.00  0.00    +0.096 C 
ATOM     37  O   UNL     1      33.215  11.935  -0.344  0.00  0.00    -0.273 OA
ENDBRANCH  33  34
BRANCH  29  38
ATOM     38  C   UNL     1      28.024  12.241   3.945  0.00  0.00    +0.391 C 
ATOM     39  O   UNL     1      27.821  11.015   4.466  0.00  0.00    -0.243 OA
ATOM     40  O   UNL     1      27.484  13.431   3.656  0.00  0.00    -0.243 OA
ENDBRANCH  29  38
ENDBRANCH  25  27
ENDBRANCH  23  25
ENDBRANCH  22  23
ENDBRANCH   2  22
TORSDOF 11
