REMARK VINA RESULT:    -5.819      2.859      8.954
REMARK INTER + INTRA:         -13.322
REMARK INTER:                 -11.601
REMARK INTRA:                  -1.720
REMARK UNBOUND:                -1.720
REMARK  Name = lig_assembled_54.pdb
REMARK  19 active torsions:
REMARK  status: ('A' for Active; 'I' for Inactive)
REMARK    1  A    between atoms: _2  and  _8
REMARK    2  A    between atoms: _4  and  _13
REMARK    3  A    between atoms: _5  and  _6
REMARK    4  A    between atoms: _5  and  _16
REMARK    5  A    between atoms: _8  and  _9
REMARK    6  A    between atoms: _9  and  _10
REMARK    7  A    between atoms: _10  and  _14
REMARK    8  A    between atoms: _10  and  _15
REMARK    9  A    between atoms: _11  and  _12
REMARK   10  A    between atoms: _11  and  _15
REMARK   11  A    between atoms: _13  and  _14
REMARK   12  A    between atoms: _16  and  _18
REMARK   13  A    between atoms: _17  and  _22
REMARK   14  A    between atoms: _18  and  _21
REMARK   15  A    between atoms: _26  and  _36
REMARK   16  A    between atoms: _28  and  _29
REMARK   17  A    between atoms: _30  and  _32
REMARK   18  A    between atoms: _32  and  _34
REMARK   19  A    between atoms: _34  and  _36
REMARK                            x       y       z     vdW  Elec       q    Type
REMARK                         _______ _______ _______ _____ _____    ______ ____
ROOT
ATOM      1  C   UNL     1      27.911  17.727  -1.128  0.00  0.00    +0.400 C 
ATOM      2  N   UNL     1      27.159  17.602  -2.272  0.00  0.00    -0.278 N 
ATOM      3  H   UNL     1      26.235  18.071  -2.013  0.00  0.00    +0.152 HD
ATOM      4  O   UNL     1      27.479  18.441  -0.226  0.00  0.00    -0.226 OA
ENDROOT
BRANCH   1   5
ATOM      5  O   UNL     1      29.008  17.043  -1.101  0.00  0.00    -0.450 OA
BRANCH   5   6
ATOM      6  C   UNL     1      29.770  16.282  -0.193  0.00  0.00    +0.240 C 
BRANCH   6   7
ATOM      7  C   UNL     1      29.093  15.056   0.449  0.00  0.00    +0.100 C 
BRANCH   7   9
ATOM      8  N   UNL     1      31.325  14.774   1.484  0.00  0.00    -0.134 NA
ATOM      9  C   UNL     1      29.997  14.442   1.441  0.00  0.00    +0.086 A 
ATOM     10  C   UNL     1      29.729  13.527   2.437  0.00  0.00    +0.133 A 
ATOM     11  N   UNL     1      30.924  13.374   3.072  0.00  0.00    -0.251 N 
ATOM     12  N   UNL     1      31.883  14.119   2.493  0.00  0.00    -0.065 NA
BRANCH  11  13
ATOM     13  C   UNL     1      31.219  12.594   4.257  0.00  0.00    +0.150 C 
BRANCH  13  14
ATOM     14  C   UNL     1      32.670  12.140   4.288  0.00  0.00    +0.084 C 
BRANCH  14  15
ATOM     15  C   UNL     1      33.523  12.893   5.315  0.00  0.00    +0.252 C 
BRANCH  15  16
ATOM     16  O   UNL     1      34.714  13.390   4.697  0.00  0.00    -0.352 OA
BRANCH  16  17
ATOM     17  C   UNL     1      35.279  12.511   3.727  0.00  0.00    +0.159 C 
ATOM     18  C   UNL     1      36.417  13.223   3.025  0.00  0.00    +0.034 C 
ENDBRANCH  16  17
ENDBRANCH  15  16
BRANCH  15  19
ATOM     19  O   UNL     1      33.864  11.970   6.356  0.00  0.00    -0.352 OA
BRANCH  19  20
ATOM     20  C   UNL     1      33.248  12.300   7.602  0.00  0.00    +0.159 C 
ATOM     21  C   UNL     1      32.742  11.030   8.256  0.00  0.00    +0.034 C 
ENDBRANCH  19  20
ENDBRANCH  15  19
ENDBRANCH  14  15
ENDBRANCH  13  14
ENDBRANCH  11  13
ENDBRANCH   7   9
ENDBRANCH   6   7
ENDBRANCH   5   6
ENDBRANCH   1   5
BRANCH   2  22
ATOM     22  C   UNL     1      27.065  17.139  -3.654  0.00  0.00    +0.152 C 
BRANCH  22  23
ATOM     23  C   UNL     1      25.939  16.129  -3.957  0.00  0.00    +0.193 C 
ATOM     24  O   UNL     1      25.942  15.920  -5.386  0.00  0.00    -0.219 OA
BRANCH  23  25
ATOM     25  C   UNL     1      26.071  14.710  -3.360  0.00  0.00    +0.212 C 
ATOM     26  O   UNL     1      26.817  14.750  -2.132  0.00  0.00    -0.218 OA
BRANCH  25  27
ATOM     27  C   UNL     1      24.683  14.017  -3.084  0.00  0.00    +0.171 C 
ATOM     28  O   UNL     1      23.879  14.748  -2.164  0.00  0.00    -0.343 OA
ATOM     29  C   UNL     1      22.721  14.251  -1.560  0.00  0.00    +0.220 C 
ATOM     30  C   UNL     1      22.959  12.873  -0.919  0.00  0.00    +0.076 C 
ATOM     31  C   UNL     1      23.570  11.961  -1.997  0.00  0.00    +0.177 C 
ATOM     32  O   UNL     1      23.774  10.659  -1.467  0.00  0.00    -0.221 OA
ATOM     33  C   UNL     1      24.905  12.573  -2.525  0.00  0.00    +0.155 C 
BRANCH  33  34
ATOM     34  N   UNL     1      25.492  11.707  -3.543  0.00  0.00    -0.202 NA
ATOM     35  C   UNL     1      26.703  11.094  -3.569  0.00  0.00    +0.242 C 
ATOM     36  C   UNL     1      26.941  10.021  -4.599  0.00  0.00    +0.096 C 
ATOM     37  O   UNL     1      27.568  11.424  -2.759  0.00  0.00    -0.273 OA
ENDBRANCH  33  34
BRANCH  29  38
ATOM     38  C   UNL     1      21.432  14.236  -2.548  0.00  0.00    +0.391 C 
ATOM     39  O   UNL     1      21.843  14.864  -3.667  0.00  0.00    -0.243 OA
ATOM     40  O   UNL     1      20.568  13.363  -2.015  0.00  0.00    -0.243 OA
ENDBRANCH  29  38
ENDBRANCH  25  27
ENDBRANCH  23  25
ENDBRANCH  22  23
ENDBRANCH   2  22
TORSDOF 17
