REMARK VINA RESULT:    -6.819      1.813      3.122
REMARK INTER + INTRA:         -12.979
REMARK INTER:                 -11.280
REMARK INTRA:                  -1.699
REMARK UNBOUND:                -1.775
REMARK  Name = lig_assembled_42.pdb
REMARK  11 active torsions:
REMARK  status: ('A' for Active; 'I' for Inactive)
REMARK    1  A    between atoms: _2  and  _8
REMARK    2  A    between atoms: _5  and  _6
REMARK    3  A    between atoms: _5  and  _16
REMARK    4  A    between atoms: _16  and  _18
REMARK    5  A    between atoms: _17  and  _22
REMARK    6  A    between atoms: _18  and  _21
REMARK    7  A    between atoms: _26  and  _36
REMARK    8  A    between atoms: _28  and  _29
REMARK    9  A    between atoms: _30  and  _32
REMARK   10  A    between atoms: _32  and  _34
REMARK   11  A    between atoms: _34  and  _36
REMARK                            x       y       z     vdW  Elec       q    Type
REMARK                         _______ _______ _______ _____ _____    ______ ____
ROOT
ATOM      1  C   UNL     1      27.882  17.296  -1.244  0.00  0.00    +0.400 C 
ATOM      2  N   UNL     1      28.468  16.526  -0.267  0.00  0.00    -0.278 N 
ATOM      3  H   UNL     1      28.508  17.183   0.575  0.00  0.00    +0.152 HD
ATOM      4  O   UNL     1      27.408  18.382  -0.919  0.00  0.00    -0.226 OA
ENDROOT
BRANCH   1   5
ATOM      5  O   UNL     1      27.916  16.805  -2.439  0.00  0.00    -0.450 OA
BRANCH   5   6
ATOM      6  C   UNL     1      27.133  16.788  -3.610  0.00  0.00    +0.240 C 
BRANCH   6   7
ATOM      7  C   UNL     1      25.608  16.639  -3.443  0.00  0.00    +0.100 C 
BRANCH   7   9
ATOM      8  N   UNL     1      25.977  14.207  -3.119  0.00  0.00    -0.134 NA
ATOM      9  C   UNL     1      25.280  15.343  -2.823  0.00  0.00    +0.086 A 
ATOM     10  C   UNL     1      24.298  15.039  -1.911  0.00  0.00    +0.139 A 
ATOM     11  N   UNL     1      24.433  13.692  -1.672  0.00  0.00    -0.220 N 
ATOM     12  N   UNL     1      25.458  13.207  -2.416  0.00  0.00    -0.061 NA
BRANCH  11  13
ATOM     13  C   UNL     1      23.662  12.871  -0.809  0.00  0.00    +0.071 A 
ATOM     14  C   UNL     1      24.302  12.038   0.122  0.00  0.00    +0.077 A 
ATOM     15  C   UNL     1      23.509  11.259   0.938  0.00  0.00    +0.168 A 
ATOM     16  O   UNL     1      23.968  10.405   1.890  0.00  0.00    -0.453 OA
ATOM     17  C   UNL     1      22.726   9.892   2.412  0.00  0.00    +0.466 C 
ATOM     18  O   UNL     1      21.560  10.440   1.760  0.00  0.00    -0.453 OA
ATOM     19  C   UNL     1      22.138  11.282   0.862  0.00  0.00    +0.166 A 
ATOM     20  C   UNL     1      21.477  12.087  -0.040  0.00  0.00    +0.051 A 
ATOM     21  C   UNL     1      22.250  12.893  -0.887  0.00  0.00    +0.031 A 
ENDBRANCH  11  13
ENDBRANCH   7   9
ENDBRANCH   6   7
ENDBRANCH   5   6
ENDBRANCH   1   5
BRANCH   2  22
ATOM     22  C   UNL     1      29.035  15.240   0.131  0.00  0.00    +0.152 C 
BRANCH  22  23
ATOM     23  C   UNL     1      30.574  15.149   0.140  0.00  0.00    +0.193 C 
ATOM     24  O   UNL     1      31.027  15.892   1.294  0.00  0.00    -0.219 OA
BRANCH  23  25
ATOM     25  C   UNL     1      31.207  13.750   0.310  0.00  0.00    +0.212 C 
ATOM     26  O   UNL     1      32.166  13.503  -0.731  0.00  0.00    -0.218 OA
BRANCH  25  27
ATOM     27  C   UNL     1      31.914  13.550   1.705  0.00  0.00    +0.171 C 
ATOM     28  O   UNL     1      33.258  13.097   1.577  0.00  0.00    -0.343 OA
ATOM     29  C   UNL     1      34.029  12.611   2.636  0.00  0.00    +0.220 C 
ATOM     30  C   UNL     1      33.285  11.525   3.433  0.00  0.00    +0.076 C 
ATOM     31  C   UNL     1      31.920  12.105   3.839  0.00  0.00    +0.177 C 
ATOM     32  O   UNL     1      31.205  11.153   4.615  0.00  0.00    -0.221 OA
ATOM     33  C   UNL     1      31.114  12.523   2.570  0.00  0.00    +0.155 C 
BRANCH  33  34
ATOM     34  N   UNL     1      29.813  13.067   2.952  0.00  0.00    -0.202 NA
ATOM     35  C   UNL     1      28.571  12.545   2.787  0.00  0.00    +0.242 C 
ATOM     36  C   UNL     1      27.425  13.174   3.536  0.00  0.00    +0.096 C 
ATOM     37  O   UNL     1      28.412  11.581   2.041  0.00  0.00    -0.273 OA
ENDBRANCH  33  34
BRANCH  29  38
ATOM     38  C   UNL     1      34.603  13.778   3.609  0.00  0.00    +0.391 C 
ATOM     39  O   UNL     1      34.698  13.203   4.823  0.00  0.00    -0.243 OA
ATOM     40  O   UNL     1      35.040  14.752   2.801  0.00  0.00    -0.243 OA
ENDBRANCH  29  38
ENDBRANCH  25  27
ENDBRANCH  23  25
ENDBRANCH  22  23
ENDBRANCH   2  22
TORSDOF 11
