REMARK VINA RESULT:    -6.537      2.634      5.029
REMARK INTER + INTRA:         -13.710
REMARK INTER:                 -11.529
REMARK INTRA:                  -2.180
REMARK UNBOUND:                -1.823
REMARK  Name = lig_assembled_12.pdb
REMARK  14 active torsions:
REMARK  status: ('A' for Active; 'I' for Inactive)
REMARK    1  A    between atoms: _2  and  _8
REMARK    2  A    between atoms: _5  and  _6
REMARK    3  A    between atoms: _5  and  _16
REMARK    4  A    between atoms: _8  and  _15
REMARK    5  A    between atoms: _9  and  _10
REMARK    6  A    between atoms: _9  and  _15
REMARK    7  A    between atoms: _16  and  _18
REMARK    8  A    between atoms: _17  and  _22
REMARK    9  A    between atoms: _18  and  _21
REMARK   10  A    between atoms: _26  and  _36
REMARK   11  A    between atoms: _28  and  _29
REMARK   12  A    between atoms: _30  and  _32
REMARK   13  A    between atoms: _32  and  _34
REMARK   14  A    between atoms: _34  and  _36
REMARK                            x       y       z     vdW  Elec       q    Type
REMARK                         _______ _______ _______ _____ _____    ______ ____
ROOT
ATOM      1  C   UNL     1      31.926  15.450  -0.275  0.00  0.00    +0.400 C 
ATOM      2  N   UNL     1      32.025  14.743   0.900  0.00  0.00    -0.278 N 
ATOM      3  H   UNL     1      32.493  13.830   0.600  0.00  0.00    +0.152 HD
ATOM      4  O   UNL     1      32.506  15.011  -1.266  0.00  0.00    -0.226 OA
ENDROOT
BRANCH   2   5
ATOM      5  C   UNL     1      31.797  14.687   2.341  0.00  0.00    +0.152 C 
BRANCH   5   6
ATOM      6  C   UNL     1      30.781  13.633   2.828  0.00  0.00    +0.193 C 
ATOM      7  O   UNL     1      29.469  14.129   2.482  0.00  0.00    -0.219 OA
BRANCH   6   8
ATOM      8  C   UNL     1      30.843  12.230   2.186  0.00  0.00    +0.212 C 
ATOM      9  O   UNL     1      32.209  11.813   2.021  0.00  0.00    -0.218 OA
BRANCH   8  10
ATOM     10  C   UNL     1      30.078  11.129   3.015  0.00  0.00    +0.171 C 
ATOM     11  O   UNL     1      30.955  10.163   3.585  0.00  0.00    -0.343 OA
ATOM     12  C   UNL     1      30.537   8.958   4.155  0.00  0.00    +0.220 C 
ATOM     13  C   UNL     1      29.594   8.181   3.220  0.00  0.00    +0.076 C 
ATOM     14  C   UNL     1      28.457   9.134   2.814  0.00  0.00    +0.177 C 
ATOM     15  O   UNL     1      27.533   8.452   1.978  0.00  0.00    -0.221 OA
ATOM     16  C   UNL     1      29.041  10.395   2.103  0.00  0.00    +0.155 C 
BRANCH  16  17
ATOM     17  N   UNL     1      27.963  11.299   1.709  0.00  0.00    -0.202 NA
ATOM     18  C   UNL     1      27.612  11.746   0.477  0.00  0.00    +0.242 C 
ATOM     19  C   UNL     1      26.282  12.435   0.318  0.00  0.00    +0.096 C 
ATOM     20  O   UNL     1      28.378  11.580  -0.471  0.00  0.00    -0.273 OA
ENDBRANCH  16  17
BRANCH  12  21
ATOM     21  C   UNL     1      29.898   9.131   5.638  0.00  0.00    +0.391 C 
ATOM     22  O   UNL     1      29.189   8.004   5.845  0.00  0.00    -0.243 OA
ATOM     23  O   UNL     1      30.544  10.159   6.202  0.00  0.00    -0.243 OA
ENDBRANCH  12  21
ENDBRANCH   8  10
ENDBRANCH   6   8
ENDBRANCH   5   6
ENDBRANCH   2   5
BRANCH   1  24
ATOM     24  O   UNL     1      31.192  16.512  -0.229  0.00  0.00    -0.450 OA
BRANCH  24  25
ATOM     25  C   UNL     1      29.899  16.901   0.173  0.00  0.00    +0.240 C 
BRANCH  25  26
ATOM     26  C   UNL     1      29.081  17.768  -0.803  0.00  0.00    +0.100 C 
BRANCH  26  28
ATOM     27  N   UNL     1      28.096  15.583  -1.438  0.00  0.00    -0.134 NA
ATOM     28  C   UNL     1      28.056  16.953  -1.481  0.00  0.00    +0.086 A 
ATOM     29  C   UNL     1      26.966  17.348  -2.220  0.00  0.00    +0.136 A 
ATOM     30  N   UNL     1      26.398  16.176  -2.625  0.00  0.00    -0.226 N 
ATOM     31  N   UNL     1      27.067  15.115  -2.132  0.00  0.00    -0.063 NA
BRANCH  30  32
ATOM     32  C   UNL     1      25.205  15.977  -3.429  0.00  0.00    +0.305 C 
BRANCH  32  33
ATOM     33  O   UNL     1      24.097  15.725  -2.568  0.00  0.00    -0.353 OA
BRANCH  33  34
ATOM     34  C   UNL     1      23.109  14.925  -3.202  0.00  0.00    +0.197 C 
BRANCH  34  35
ATOM     35  C   UNL     1      22.396  14.150  -2.129  0.00  0.00    -0.022 A 
ATOM     36  C   UNL     1      23.050  13.117  -1.442  0.00  0.00    +0.006 A 
ATOM     37  C   UNL     1      22.375  12.371  -0.473  0.00  0.00    +0.000 A 
ATOM     38  C   UNL     1      21.039  12.645  -0.187  0.00  0.00    +0.000 A 
ATOM     39  C   UNL     1      20.375  13.662  -0.872  0.00  0.00    +0.000 A 
ATOM     40  C   UNL     1      21.048  14.409  -1.841  0.00  0.00    +0.006 A 
ENDBRANCH  34  35
ENDBRANCH  33  34
ENDBRANCH  32  33
ENDBRANCH  30  32
ENDBRANCH  26  28
ENDBRANCH  25  26
ENDBRANCH  24  25
ENDBRANCH   1  24
TORSDOF 14
