REMARK VINA RESULT:    -6.190      3.002      9.559
REMARK INTER + INTRA:         -12.593
REMARK INTER:                 -10.929
REMARK INTRA:                  -1.664
REMARK UNBOUND:                -1.336
REMARK  Name = lig_assembled_19.pdb
REMARK  15 active torsions:
REMARK  status: ('A' for Active; 'I' for Inactive)
REMARK    1  A    between atoms: _2  and  _8
REMARK    2  A    between atoms: _4  and  _10
REMARK    3  A    between atoms: _5  and  _6
REMARK    4  A    between atoms: _5  and  _13
REMARK    5  A    between atoms: _8  and  _9
REMARK    6  A    between atoms: _9  and  _12
REMARK    7  A    between atoms: _10  and  _12
REMARK    8  A    between atoms: _13  and  _15
REMARK    9  A    between atoms: _14  and  _19
REMARK   10  A    between atoms: _15  and  _18
REMARK   11  A    between atoms: _23  and  _33
REMARK   12  A    between atoms: _25  and  _26
REMARK   13  A    between atoms: _27  and  _29
REMARK   14  A    between atoms: _29  and  _31
REMARK   15  A    between atoms: _31  and  _33
REMARK                            x       y       z     vdW  Elec       q    Type
REMARK                         _______ _______ _______ _____ _____    ______ ____
ROOT
ATOM      1  C   UNL     1      26.662  15.573  -2.732  0.00  0.00    +0.152 C 
ENDROOT
BRANCH   1   3
ATOM      2  C   UNL     1      27.775  17.695  -1.427  0.00  0.00    +0.400 C 
ATOM      3  N   UNL     1      26.900  16.855  -2.074  0.00  0.00    -0.278 N 
ATOM      4  H   UNL     1      25.994  17.421  -2.108  0.00  0.00    +0.152 HD
ATOM      5  O   UNL     1      27.424  18.854  -1.225  0.00  0.00    -0.226 OA
BRANCH   2   6
ATOM      6  O   UNL     1      28.894  17.161  -1.059  0.00  0.00    -0.450 OA
BRANCH   6   7
ATOM      7  C   UNL     1      29.370  16.201  -0.145  0.00  0.00    +0.240 C 
BRANCH   7   8
ATOM      8  C   UNL     1      30.853  16.281   0.262  0.00  0.00    +0.100 C 
BRANCH   8  10
ATOM      9  N   UNL     1      31.683  15.300   2.381  0.00  0.00    -0.134 NA
ATOM     10  C   UNL     1      31.218  15.127   1.103  0.00  0.00    +0.086 A 
ATOM     11  C   UNL     1      31.179  13.780   0.819  0.00  0.00    +0.133 A 
ATOM     12  N   UNL     1      31.640  13.192   1.957  0.00  0.00    -0.248 N 
ATOM     13  N   UNL     1      31.937  14.104   2.897  0.00  0.00    -0.065 NA
BRANCH  12  14
ATOM     14  C   UNL     1      31.808  11.781   2.222  0.00  0.00    +0.186 C 
BRANCH  14  15
ATOM     15  C   UNL     1      30.784  11.268   3.231  0.00  0.00    +0.255 C 
BRANCH  15  16
ATOM     16  O   UNL     1      29.431  11.413   2.757  0.00  0.00    -0.463 OA
BRANCH  16  17
ATOM     17  C   UNL     1      28.574  12.060   3.591  0.00  0.00    +0.304 C 
ATOM     18  O   UNL     1      28.132  11.598   4.633  0.00  0.00    -0.251 OA
ATOM     19  C   UNL     1      28.268  13.435   3.082  0.00  0.00    +0.136 C 
ENDBRANCH  16  17
ENDBRANCH  15  16
ENDBRANCH  14  15
ENDBRANCH  12  14
ENDBRANCH   8  10
ENDBRANCH   7   8
ENDBRANCH   6   7
ENDBRANCH   2   6
ENDBRANCH   1   3
BRANCH   1  20
ATOM     20  C   UNL     1      25.521  15.543  -3.770  0.00  0.00    +0.193 C 
ATOM     21  O   UNL     1      26.116  15.843  -5.051  0.00  0.00    -0.219 OA
BRANCH  20  22
ATOM     22  C   UNL     1      24.789  14.201  -3.989  0.00  0.00    +0.212 C 
ATOM     23  O   UNL     1      25.696  13.213  -4.504  0.00  0.00    -0.218 OA
BRANCH  22  24
ATOM     24  C   UNL     1      24.117  13.634  -2.681  0.00  0.00    +0.171 C 
ATOM     25  O   UNL     1      24.641  12.366  -2.301  0.00  0.00    -0.343 OA
ATOM     26  C   UNL     1      24.068  11.533  -1.337  0.00  0.00    +0.220 C 
ATOM     27  C   UNL     1      22.565  11.319  -1.588  0.00  0.00    +0.076 C 
ATOM     28  C   UNL     1      21.915  12.707  -1.714  0.00  0.00    +0.177 C 
ATOM     29  O   UNL     1      20.514  12.567  -1.908  0.00  0.00    -0.221 OA
ATOM     30  C   UNL     1      22.572  13.504  -2.883  0.00  0.00    +0.155 C 
BRANCH  30  31
ATOM     31  N   UNL     1      21.952  14.821  -3.011  0.00  0.00    -0.202 NA
ATOM     32  C   UNL     1      21.359  15.400  -4.086  0.00  0.00    +0.242 C 
ATOM     33  C   UNL     1      20.540  16.646  -3.866  0.00  0.00    +0.096 C 
ATOM     34  O   UNL     1      21.501  14.901  -5.200  0.00  0.00    -0.273 OA
ENDBRANCH  30  31
BRANCH  26  35
ATOM     35  C   UNL     1      24.356  12.016   0.188  0.00  0.00    +0.391 C 
ATOM     36  O   UNL     1      23.355  11.483   0.916  0.00  0.00    -0.243 OA
ATOM     37  O   UNL     1      25.607  12.491   0.196  0.00  0.00    -0.243 OA
ENDBRANCH  26  35
ENDBRANCH  22  24
ENDBRANCH  20  22
ENDBRANCH   1  20
TORSDOF 14
