REMARK VINA RESULT:    -7.504      3.742      5.708
REMARK INTER + INTRA:         -15.401
REMARK INTER:                 -12.734
REMARK INTRA:                  -2.666
REMARK UNBOUND:                -1.975
REMARK  Name = lig_assembled_77.pdb
REMARK  14 active torsions:
REMARK  status: ('A' for Active; 'I' for Inactive)
REMARK    1  A    between atoms: _2  and  _9
REMARK    2  A    between atoms: _3  and  _16
REMARK    3  A    between atoms: _6  and  _7
REMARK    4  A    between atoms: _6  and  _22
REMARK    5  A    between atoms: _12  and  _50
REMARK    6  A    between atoms: _13  and  _50
REMARK    7  A    between atoms: _22  and  _24
REMARK    8  A    between atoms: _23  and  _28
REMARK    9  A    between atoms: _24  and  _27
REMARK   10  A    between atoms: _32  and  _42
REMARK   11  A    between atoms: _34  and  _35
REMARK   12  A    between atoms: _36  and  _38
REMARK   13  A    between atoms: _38  and  _40
REMARK   14  A    between atoms: _40  and  _42
REMARK                            x       y       z     vdW  Elec       q    Type
REMARK                         _______ _______ _______ _____ _____    ______ ____
ROOT
ATOM      1  C   UNL     1      30.486  16.806   0.253  0.00  0.00    +0.240 C 
ENDROOT
BRANCH   1   2
ATOM      2  C   UNL     1      31.490  15.776  -0.299  0.00  0.00    +0.100 C 
BRANCH   2   4
ATOM      3  N   UNL     1      31.406  13.306  -0.239  0.00  0.00    -0.134 NA
ATOM      4  C   UNL     1      31.367  14.496   0.425  0.00  0.00    +0.086 A 
ATOM      5  C   UNL     1      31.209  14.256   1.771  0.00  0.00    +0.139 A 
ATOM      6  N   UNL     1      31.165  12.885   1.885  0.00  0.00    -0.220 N 
ATOM      7  N   UNL     1      31.274  12.332   0.652  0.00  0.00    -0.061 NA
BRANCH   6   8
ATOM      8  C   UNL     1      31.092  12.090   3.059  0.00  0.00    +0.067 A 
ATOM      9  C   UNL     1      30.250  12.452   4.123  0.00  0.00    +0.030 A 
ATOM     10  C   UNL     1      30.280  11.727   5.317  0.00  0.00    +0.029 A 
ATOM     11  C   UNL     1      31.148  10.641   5.447  0.00  0.00    +0.094 A 
ATOM     12  C   UNL     1      31.923  10.217   4.364  0.00  0.00    +0.029 A 
ATOM     13  C   UNL     1      31.904  10.949   3.175  0.00  0.00    +0.030 A 
BRANCH  11  14
ATOM     14  S   UNL     1      31.236   9.762   6.994  0.00  0.00    +0.025 S 
ATOM     15  O   UNL     1      29.889   9.290   7.268  0.00  0.00    -0.164 OA
ATOM     16  O   UNL     1      32.342   8.828   6.900  0.00  0.00    -0.164 OA
BRANCH  14  17
ATOM     17  C   UNL     1      31.658  10.911   8.287  0.00  0.00    +0.094 A 
ATOM     18  C   UNL     1      30.667  11.542   9.040  0.00  0.00    +0.029 A 
ATOM     19  C   UNL     1      31.032  12.486  10.006  0.00  0.00    +0.024 A 
ATOM     20  C   UNL     1      32.379  12.776  10.261  0.00  0.00    +0.025 A 
ATOM     21  C   UNL     1      33.356  12.158   9.476  0.00  0.00    +0.024 A 
ATOM     22  C   UNL     1      33.005  11.213   8.507  0.00  0.00    +0.029 A 
BRANCH  20  23
ATOM     23  N   UNL     1      32.724  13.838  11.102  0.00  0.00    -0.358 N 
ATOM     24  H   UNL     1      31.964  14.476  11.315  0.00  0.00    +0.142 HD
ATOM     25  H   UNL     1      33.246  13.566  11.928  0.00  0.00    +0.142 HD
ENDBRANCH  20  23
ENDBRANCH  14  17
ENDBRANCH  11  14
ENDBRANCH   6   8
ENDBRANCH   2   4
ENDBRANCH   1   2
BRANCH   1  26
ATOM     26  O   UNL     1      29.505  17.297  -0.631  0.00  0.00    -0.450 OA
BRANCH  26  27
ATOM     27  C   UNL     1      28.228  17.487  -0.669  0.00  0.00    +0.400 C 
ATOM     28  N   UNL     1      27.492  16.476  -1.240  0.00  0.00    -0.278 N 
ATOM     29  H   UNL     1      26.484  16.735  -0.996  0.00  0.00    +0.152 HD
ATOM     30  O   UNL     1      27.626  18.460  -0.222  0.00  0.00    -0.226 OA
BRANCH  28  31
ATOM     31  C   UNL     1      27.469  15.243  -2.024  0.00  0.00    +0.152 C 
BRANCH  31  32
ATOM     32  C   UNL     1      27.994  13.978  -1.315  0.00  0.00    +0.193 C 
ATOM     33  O   UNL     1      27.912  14.232   0.104  0.00  0.00    -0.219 OA
BRANCH  32  34
ATOM     34  C   UNL     1      27.206  12.665  -1.518  0.00  0.00    +0.212 C 
ATOM     35  O   UNL     1      28.100  11.540  -1.535  0.00  0.00    -0.218 OA
BRANCH  34  36
ATOM     36  C   UNL     1      26.108  12.420  -0.413  0.00  0.00    +0.171 C 
ATOM     37  O   UNL     1      26.301  11.195   0.287  0.00  0.00    -0.343 OA
ATOM     38  C   UNL     1      25.355  10.616   1.137  0.00  0.00    +0.220 C 
ATOM     39  C   UNL     1      23.973  10.514   0.468  0.00  0.00    +0.076 C 
ATOM     40  C   UNL     1      23.606  11.914  -0.051  0.00  0.00    +0.177 C 
ATOM     41  O   UNL     1      22.317  11.885  -0.646  0.00  0.00    -0.221 OA
ATOM     42  C   UNL     1      24.685  12.413  -1.062  0.00  0.00    +0.155 C 
BRANCH  42  43
ATOM     43  N   UNL     1      24.337  13.740  -1.563  0.00  0.00    -0.202 NA
ATOM     44  C   UNL     1      24.027  14.139  -2.823  0.00  0.00    +0.242 C 
ATOM     45  C   UNL     1      23.419  15.504  -3.012  0.00  0.00    +0.096 C 
ATOM     46  O   UNL     1      24.245  13.385  -3.769  0.00  0.00    -0.273 OA
ENDBRANCH  42  43
BRANCH  38  47
ATOM     47  C   UNL     1      25.263  11.337   2.590  0.00  0.00    +0.391 C 
ATOM     48  O   UNL     1      24.263  10.701   3.231  0.00  0.00    -0.243 OA
ATOM     49  O   UNL     1      26.381  12.063   2.714  0.00  0.00    -0.243 OA
ENDBRANCH  38  47
ENDBRANCH  34  36
ENDBRANCH  32  34
ENDBRANCH  31  32
ENDBRANCH  28  31
ENDBRANCH  26  27
ENDBRANCH   1  26
TORSDOF 14
