REMARK VINA RESULT:    -7.515      1.153      1.398
REMARK INTER + INTRA:         -14.539
REMARK INTER:                 -12.944
REMARK INTRA:                  -1.595
REMARK UNBOUND:                -2.191
REMARK  Name = lig_assembled_93.pdb
REMARK  11 active torsions:
REMARK  status: ('A' for Active; 'I' for Inactive)
REMARK    1  A    between atoms: _2  and  _8
REMARK    2  A    between atoms: _5  and  _6
REMARK    3  A    between atoms: _5  and  _13
REMARK    4  A    between atoms: _13  and  _15
REMARK    5  A    between atoms: _14  and  _19
REMARK    6  A    between atoms: _15  and  _18
REMARK    7  A    between atoms: _23  and  _33
REMARK    8  A    between atoms: _25  and  _26
REMARK    9  A    between atoms: _27  and  _29
REMARK   10  A    between atoms: _29  and  _31
REMARK   11  A    between atoms: _31  and  _33
REMARK                            x       y       z     vdW  Elec       q    Type
REMARK                         _______ _______ _______ _____ _____    ______ ____
ROOT
ATOM      1  C   UNL     1      27.933  17.296  -0.862  0.00  0.00    +0.400 C 
ATOM      2  N   UNL     1      28.385  16.214  -0.143  0.00  0.00    -0.278 N 
ATOM      3  H   UNL     1      28.716  16.649   0.775  0.00  0.00    +0.152 HD
ATOM      4  O   UNL     1      27.838  18.376  -0.285  0.00  0.00    -0.226 OA
ENDROOT
BRANCH   1   5
ATOM      5  O   UNL     1      27.677  17.072  -2.109  0.00  0.00    -0.450 OA
BRANCH   5   6
ATOM      6  C   UNL     1      26.732  17.438  -3.088  0.00  0.00    +0.240 C 
BRANCH   6   7
ATOM      7  C   UNL     1      26.481  16.445  -4.239  0.00  0.00    +0.100 C 
BRANCH   7   9
ATOM      8  N   UNL     1      24.920  14.614  -4.786  0.00  0.00    -0.134 NA
ATOM      9  C   UNL     1      25.381  15.528  -3.892  0.00  0.00    +0.086 A 
ATOM     10  C   UNL     1      24.665  15.405  -2.723  0.00  0.00    +0.139 A 
ATOM     11  N   UNL     1      23.770  14.370  -2.941  0.00  0.00    -0.219 N 
ATOM     12  N   UNL     1      23.949  13.927  -4.205  0.00  0.00    -0.061 NA
BRANCH  11  13
ATOM     13  C   UNL     1      22.817  13.819  -2.028  0.00  0.00    +0.080 A 
ATOM     14  C   UNL     1      21.493  14.315  -2.085  0.00  0.00    +0.029 A 
ATOM     15  C   UNL     1      20.495  13.854  -1.221  0.00  0.00    +0.002 A 
ATOM     16  C   UNL     1      20.792  12.885  -0.277  0.00  0.00    +0.001 A 
ATOM     17  C   UNL     1      22.085  12.374  -0.202  0.00  0.00    +0.016 A 
ATOM     18  C   UNL     1      23.104  12.827  -1.067  0.00  0.00    +0.039 A 
ATOM     19  I   UNL     1      24.952  11.858  -0.710  0.00  0.00    -0.042 I 
ENDBRANCH  11  13
ENDBRANCH   7   9
ENDBRANCH   6   7
ENDBRANCH   5   6
ENDBRANCH   1   5
BRANCH   2  20
ATOM     20  C   UNL     1      28.596  14.771  -0.068  0.00  0.00    +0.152 C 
BRANCH  20  21
ATOM     21  C   UNL     1      29.646  14.291   0.955  0.00  0.00    +0.193 C 
ATOM     22  O   UNL     1      29.822  12.874   0.736  0.00  0.00    -0.219 OA
BRANCH  21  23
ATOM     23  C   UNL     1      31.071  14.877   0.847  0.00  0.00    +0.212 C 
ATOM     24  O   UNL     1      31.102  16.218   1.363  0.00  0.00    -0.218 OA
BRANCH  23  25
ATOM     25  C   UNL     1      32.157  14.021   1.604  0.00  0.00    +0.171 C 
ATOM     26  O   UNL     1      32.536  14.596   2.850  0.00  0.00    -0.343 OA
ATOM     27  C   UNL     1      33.639  14.186   3.604  0.00  0.00    +0.220 C 
ATOM     28  C   UNL     1      34.920  14.123   2.754  0.00  0.00    +0.076 C 
ATOM     29  C   UNL     1      34.616  13.251   1.524  0.00  0.00    +0.177 C 
ATOM     30  O   UNL     1      35.782  13.127   0.722  0.00  0.00    -0.221 OA
ATOM     31  C   UNL     1      33.432  13.862   0.712  0.00  0.00    +0.155 C 
BRANCH  31  32
ATOM     32  N   UNL     1      33.145  13.040  -0.462  0.00  0.00    -0.202 NA
ATOM     33  C   UNL     1      33.108  13.385  -1.774  0.00  0.00    +0.242 C 
ATOM     34  C   UNL     1      33.078  12.283  -2.802  0.00  0.00    +0.096 C 
ATOM     35  O   UNL     1      33.102  14.572  -2.091  0.00  0.00    -0.273 OA
ENDBRANCH  31  32
BRANCH  27  36
ATOM     36  C   UNL     1      33.390  12.799   4.412  0.00  0.00    +0.391 C 
ATOM     37  O   UNL     1      34.607  12.438   4.865  0.00  0.00    -0.243 OA
ATOM     38  O   UNL     1      32.066  12.700   4.580  0.00  0.00    -0.243 OA
ENDBRANCH  27  36
ENDBRANCH  23  25
ENDBRANCH  21  23
ENDBRANCH  20  21
ENDBRANCH   2  20
TORSDOF 11
