REMARK VINA RESULT:    -6.719      2.140      3.232
REMARK INTER + INTRA:         -13.191
REMARK INTER:                 -11.482
REMARK INTRA:                  -1.709
REMARK UNBOUND:                -2.544
REMARK  Name = lig_assembled_65.pdb
REMARK  11 active torsions:
REMARK  status: ('A' for Active; 'I' for Inactive)
REMARK    1  A    between atoms: _8  and  _14
REMARK    2  A    between atoms: _9  and  _10
REMARK    3  A    between atoms: _9  and  _15
REMARK    4  A    between atoms: _15  and  _17
REMARK    5  A    between atoms: _16  and  _21
REMARK    6  A    between atoms: _17  and  _20
REMARK    7  A    between atoms: _25  and  _35
REMARK    8  A    between atoms: _27  and  _28
REMARK    9  A    between atoms: _29  and  _31
REMARK   10  A    between atoms: _31  and  _33
REMARK   11  A    between atoms: _33  and  _35
REMARK                            x       y       z     vdW  Elec       q    Type
REMARK                         _______ _______ _______ _____ _____    ______ ____
ROOT
ATOM      1  C   UNL     1      29.032  16.163  -0.410  0.00  0.00    +0.400 C 
ATOM      2  N   UNL     1      30.237  16.315   0.234  0.00  0.00    -0.278 N 
ATOM      3  H   UNL     1      30.678  17.153  -0.262  0.00  0.00    +0.152 HD
ATOM      4  O   UNL     1      28.679  17.040  -1.193  0.00  0.00    -0.226 OA
ENDROOT
BRANCH   1   5
ATOM      5  O   UNL     1      28.390  15.073  -0.145  0.00  0.00    -0.450 OA
BRANCH   5   6
ATOM      6  C   UNL     1      28.294  13.748  -0.615  0.00  0.00    +0.240 C 
BRANCH   6   7
ATOM      7  C   UNL     1      28.049  13.545  -2.122  0.00  0.00    +0.100 C 
BRANCH   7   9
ATOM      8  N   UNL     1      26.628  15.053  -3.477  0.00  0.00    -0.134 NA
ATOM      9  C   UNL     1      26.736  14.094  -2.509  0.00  0.00    +0.087 A 
ATOM     10  C   UNL     1      25.482  13.795  -2.032  0.00  0.00    +0.146 A 
ATOM     11  N   UNL     1      24.629  14.612  -2.741  0.00  0.00    -0.155 N 
ATOM     12  C   UNL     1      23.212  14.701  -2.607  0.00  0.00    +0.416 C 
ATOM     13  N   UNL     1      22.546  15.558  -3.391  0.00  0.00    +0.041 NA
ATOM     14  C   UNL     1      21.229  15.594  -3.196  0.00  0.00    +0.339 C 
ATOM     15  C   UNL     1      20.431  16.544  -4.033  0.00  0.00    +0.149 C 
ATOM     16  N   UNL     1      20.577  14.853  -2.300  0.00  0.00    +0.007 NA
ATOM     17  C   UNL     1      21.330  14.049  -1.567  0.00  0.00    +0.386 C 
ATOM     18  N   UNL     1      20.695  13.273  -0.620  0.00  0.00    -0.296 N 
ATOM     19  H   UNL     1      19.718  13.156  -0.849  0.00  0.00    +0.148 HD
ATOM     20  H   UNL     1      21.228  12.441  -0.409  0.00  0.00    +0.148 HD
ATOM     21  N   UNL     1      22.639  13.912  -1.687  0.00  0.00    -0.290 NA
ATOM     22  N   UNL     1      25.344  15.363  -3.618  0.00  0.00    -0.056 NA
ENDBRANCH   7   9
ENDBRANCH   6   7
ENDBRANCH   5   6
ENDBRANCH   1   5
BRANCH   2  23
ATOM     23  C   UNL     1      31.156  15.866   1.277  0.00  0.00    +0.152 C 
BRANCH  23  24
ATOM     24  C   UNL     1      31.914  14.552   0.994  0.00  0.00    +0.193 C 
ATOM     25  O   UNL     1      31.030  13.473   1.372  0.00  0.00    -0.219 OA
BRANCH  24  26
ATOM     26  C   UNL     1      32.292  14.245  -0.471  0.00  0.00    +0.212 C 
ATOM     27  O   UNL     1      32.624  15.457  -1.168  0.00  0.00    -0.218 OA
BRANCH  26  28
ATOM     28  C   UNL     1      33.498  13.239  -0.608  0.00  0.00    +0.171 C 
ATOM     29  O   UNL     1      34.473  13.410   0.415  0.00  0.00    -0.343 OA
ATOM     30  C   UNL     1      35.743  12.829   0.399  0.00  0.00    +0.220 C 
ATOM     31  C   UNL     1      36.470  13.083  -0.933  0.00  0.00    +0.076 C 
ATOM     32  C   UNL     1      35.534  12.627  -2.065  0.00  0.00    +0.177 C 
ATOM     33  O   UNL     1      36.175  12.803  -3.320  0.00  0.00    -0.221 OA
ATOM     34  C   UNL     1      34.188  13.414  -2.000  0.00  0.00    +0.155 C 
BRANCH  34  35
ATOM     35  N   UNL     1      33.299  12.988  -3.078  0.00  0.00    -0.202 NA
ATOM     36  C   UNL     1      33.135  13.505  -4.322  0.00  0.00    +0.242 C 
ATOM     37  C   UNL     1      32.369  12.697  -5.337  0.00  0.00    +0.096 C 
ATOM     38  O   UNL     1      33.610  14.607  -4.590  0.00  0.00    -0.273 OA
ENDBRANCH  34  35
BRANCH  30  39
ATOM     39  C   UNL     1      35.737  11.250   0.784  0.00  0.00    +0.391 C 
ATOM     40  O   UNL     1      36.945  10.795   0.400  0.00  0.00    -0.243 OA
ATOM     41  O   UNL     1      34.684  11.071   1.591  0.00  0.00    -0.243 OA
ENDBRANCH  30  39
ENDBRANCH  26  28
ENDBRANCH  24  26
ENDBRANCH  23  24
ENDBRANCH   2  23
TORSDOF 10
