REMARK VINA RESULT:    -6.070      1.912      3.343
REMARK INTER + INTRA:         -12.985
REMARK INTER:                 -11.998
REMARK INTRA:                  -0.987
REMARK UNBOUND:                -2.657
REMARK  Name = lig_assembled_46.pdb
REMARK  12 active torsions:
REMARK  status: ('A' for Active; 'I' for Inactive)
REMARK    1  A    between atoms: _2  and  _8
REMARK    2  A    between atoms: _5  and  _6
REMARK    3  A    between atoms: _5  and  _14
REMARK    4  A    between atoms: _8  and  _9
REMARK    5  A    between atoms: _14  and  _16
REMARK    6  A    between atoms: _15  and  _20
REMARK    7  A    between atoms: _16  and  _19
REMARK    8  A    between atoms: _24  and  _34
REMARK    9  A    between atoms: _26  and  _27
REMARK   10  A    between atoms: _28  and  _30
REMARK   11  A    between atoms: _30  and  _32
REMARK   12  A    between atoms: _32  and  _34
REMARK                            x       y       z     vdW  Elec       q    Type
REMARK                         _______ _______ _______ _____ _____    ______ ____
ROOT
ATOM      1  C   UNL     1      28.246  17.733  -0.617  0.00  0.00    +0.400 C 
ATOM      2  N   UNL     1      29.380  17.382   0.076  0.00  0.00    -0.278 N 
ATOM      3  H   UNL     1      29.398  18.074   0.890  0.00  0.00    +0.152 HD
ATOM      4  O   UNL     1      27.481  18.545  -0.101  0.00  0.00    -0.226 OA
ENDROOT
BRANCH   2   5
ATOM      5  C   UNL     1      30.537  16.499   0.202  0.00  0.00    +0.152 C 
BRANCH   5   6
ATOM      6  C   UNL     1      30.265  15.103   0.799  0.00  0.00    +0.193 C 
ATOM      7  O   UNL     1      29.100  14.582   0.121  0.00  0.00    -0.219 OA
BRANCH   6   8
ATOM      8  C   UNL     1      31.345  14.017   0.601  0.00  0.00    +0.212 C 
ATOM      9  O   UNL     1      32.355  14.476  -0.312  0.00  0.00    -0.218 OA
BRANCH   8  10
ATOM     10  C   UNL     1      32.042  13.577   1.944  0.00  0.00    +0.171 C 
ATOM     11  O   UNL     1      33.380  13.132   1.747  0.00  0.00    -0.343 OA
ATOM     12  C   UNL     1      34.139  12.465   2.711  0.00  0.00    +0.220 C 
ATOM     13  C   UNL     1      33.376  11.273   3.314  0.00  0.00    +0.076 C 
ATOM     14  C   UNL     1      32.017  11.796   3.808  0.00  0.00    +0.177 C 
ATOM     15  O   UNL     1      31.284  10.739   4.412  0.00  0.00    -0.221 OA
ATOM     16  C   UNL     1      31.223  12.432   2.624  0.00  0.00    +0.155 C 
BRANCH  16  17
ATOM     17  N   UNL     1      29.928  12.923   3.088  0.00  0.00    -0.202 NA
ATOM     18  C   UNL     1      28.677  12.489   2.789  0.00  0.00    +0.242 C 
ATOM     19  C   UNL     1      27.529  12.980   3.632  0.00  0.00    +0.096 C 
ATOM     20  O   UNL     1      28.511  11.713   1.850  0.00  0.00    -0.273 OA
ENDBRANCH  16  17
BRANCH  12  21
ATOM     21  C   UNL     1      34.723  13.446   3.867  0.00  0.00    +0.391 C 
ATOM     22  O   UNL     1      34.468  14.693   3.426  0.00  0.00    -0.243 OA
ATOM     23  O   UNL     1      34.955  12.667   4.931  0.00  0.00    -0.243 OA
ENDBRANCH  12  21
ENDBRANCH   8  10
ENDBRANCH   6   8
ENDBRANCH   5   6
ENDBRANCH   2   5
BRANCH   1  24
ATOM     24  O   UNL     1      28.107  17.187  -1.780  0.00  0.00    -0.450 OA
BRANCH  24  25
ATOM     25  C   UNL     1      27.081  16.798  -2.662  0.00  0.00    +0.240 C 
BRANCH  25  26
ATOM     26  C   UNL     1      26.714  15.303  -2.712  0.00  0.00    +0.100 C 
BRANCH  26  28
ATOM     27  N   UNL     1      24.962  14.980  -4.432  0.00  0.00    -0.134 NA
ATOM     28  C   UNL     1      25.305  15.133  -3.115  0.00  0.00    +0.086 A 
ATOM     29  C   UNL     1      24.167  15.054  -2.342  0.00  0.00    +0.134 A 
ATOM     30  N   UNL     1      23.173  14.796  -3.241  0.00  0.00    -0.247 N 
ATOM     31  N   UNL     1      23.655  14.766  -4.499  0.00  0.00    -0.065 NA
BRANCH  30  32
ATOM     32  C   UNL     1      21.826  14.328  -2.961  0.00  0.00    +0.180 C 
BRANCH  32  33
ATOM     33  C   UNL     1      21.768  13.219  -1.940  0.00  0.00    -0.026 A 
ATOM     34  C   UNL     1      21.158  13.419  -0.692  0.00  0.00    +0.005 A 
ATOM     35  C   UNL     1      21.024  12.360   0.210  0.00  0.00    +0.000 A 
ATOM     36  C   UNL     1      21.495  11.092  -0.126  0.00  0.00    +0.000 A 
ATOM     37  C   UNL     1      22.110  10.882  -1.358  0.00  0.00    +0.000 A 
ATOM     38  C   UNL     1      22.245  11.939  -2.261  0.00  0.00    +0.005 A 
ENDBRANCH  32  33
ENDBRANCH  30  32
ENDBRANCH  26  28
ENDBRANCH  25  26
ENDBRANCH  24  25
ENDBRANCH   1  24
TORSDOF 12
