REMARK VINA RESULT:    -7.075      1.673      2.335
REMARK INTER + INTRA:         -13.445
REMARK INTER:                 -11.618
REMARK INTRA:                  -1.828
REMARK UNBOUND:                -1.407
REMARK  Name = lig_assembled_82.pdb
REMARK  14 active torsions:
REMARK  status: ('A' for Active; 'I' for Inactive)
REMARK    1  A    between atoms: _2  and  _8
REMARK    2  A    between atoms: _4  and  _15
REMARK    3  A    between atoms: _5  and  _6
REMARK    4  A    between atoms: _5  and  _17
REMARK    5  A    between atoms: _8  and  _9
REMARK    6  A    between atoms: _15  and  _16
REMARK    7  A    between atoms: _17  and  _19
REMARK    8  A    between atoms: _18  and  _23
REMARK    9  A    between atoms: _19  and  _22
REMARK   10  A    between atoms: _27  and  _37
REMARK   11  A    between atoms: _29  and  _30
REMARK   12  A    between atoms: _31  and  _33
REMARK   13  A    between atoms: _33  and  _35
REMARK   14  A    between atoms: _35  and  _37
REMARK                            x       y       z     vdW  Elec       q    Type
REMARK                         _______ _______ _______ _____ _____    ______ ____
ROOT
ATOM      1  C   UNL     1      26.767  16.519  -2.778  0.00  0.00    +0.400 C 
ATOM      2  N   UNL     1      27.272  15.493  -2.015  0.00  0.00    -0.278 N 
ATOM      3  H   UNL     1      27.997  15.978  -1.397  0.00  0.00    +0.152 HD
ATOM      4  O   UNL     1      27.081  17.670  -2.482  0.00  0.00    -0.226 OA
ENDROOT
BRANCH   2   5
ATOM      5  C   UNL     1      27.254  14.074  -1.669  0.00  0.00    +0.152 C 
BRANCH   5   6
ATOM      6  C   UNL     1      28.586  13.479  -1.170  0.00  0.00    +0.193 C 
ATOM      7  O   UNL     1      29.272  12.963  -2.333  0.00  0.00    -0.219 OA
BRANCH   6   8
ATOM      8  C   UNL     1      29.602  14.444  -0.521  0.00  0.00    +0.212 C 
ATOM      9  O   UNL     1      28.918  15.504   0.166  0.00  0.00    -0.218 OA
BRANCH   8  10
ATOM     10  C   UNL     1      30.577  13.733   0.494  0.00  0.00    +0.171 C 
ATOM     11  O   UNL     1      30.455  14.242   1.818  0.00  0.00    -0.343 OA
ATOM     12  C   UNL     1      31.354  13.971   2.853  0.00  0.00    +0.220 C 
ATOM     13  C   UNL     1      32.810  14.231   2.426  0.00  0.00    +0.076 C 
ATOM     14  C   UNL     1      33.059  13.444   1.129  0.00  0.00    +0.177 C 
ATOM     15  O   UNL     1      34.406  13.618   0.711  0.00  0.00    -0.221 OA
ATOM     16  C   UNL     1      32.059  13.902   0.022  0.00  0.00    +0.155 C 
BRANCH  16  17
ATOM     17  N   UNL     1      32.297  13.161  -1.215  0.00  0.00    -0.202 NA
ATOM     18  C   UNL     1      32.971  13.533  -2.333  0.00  0.00    +0.242 C 
ATOM     19  C   UNL     1      33.319  12.473  -3.344  0.00  0.00    +0.096 C 
ATOM     20  O   UNL     1      33.279  14.713  -2.492  0.00  0.00    -0.273 OA
ENDBRANCH  16  17
BRANCH  12  21
ATOM     21  C   UNL     1      31.176  12.489   3.493  0.00  0.00    +0.391 C 
ATOM     22  O   UNL     1      32.316  12.265   4.175  0.00  0.00    -0.243 OA
ATOM     23  O   UNL     1      29.879  12.183   3.362  0.00  0.00    -0.243 OA
ENDBRANCH  12  21
ENDBRANCH   8  10
ENDBRANCH   6   8
ENDBRANCH   5   6
ENDBRANCH   2   5
BRANCH   1  24
ATOM     24  O   UNL     1      26.020  16.164  -3.771  0.00  0.00    -0.450 OA
BRANCH  24  25
ATOM     25  C   UNL     1      26.143  15.563  -5.039  0.00  0.00    +0.240 C 
BRANCH  25  26
ATOM     26  C   UNL     1      25.270  14.327  -5.328  0.00  0.00    +0.100 C 
BRANCH  26  28
ATOM     27  N   UNL     1      22.939  14.882  -4.713  0.00  0.00    -0.134 NA
ATOM     28  C   UNL     1      24.130  14.265  -4.409  0.00  0.00    +0.086 A 
ATOM     29  C   UNL     1      24.005  13.658  -3.173  0.00  0.00    +0.134 A 
ATOM     30  N   UNL     1      22.774  14.053  -2.729  0.00  0.00    -0.247 N 
ATOM     31  N   UNL     1      22.107  14.711  -3.695  0.00  0.00    -0.065 NA
BRANCH  30  32
ATOM     32  C   UNL     1      22.204  13.924  -1.386  0.00  0.00    +0.176 C 
BRANCH  32  33
ATOM     33  C   UNL     1      22.213  12.500  -0.886  0.00  0.00    -0.049 C 
ATOM     34  C   UNL     1      23.393  12.050  -0.084  0.00  0.00    +0.023 C 
ATOM     35  C   UNL     1      23.148  11.030   1.117  0.00  0.00    -0.025 C 
ATOM     36  C   UNL     1      21.963  10.866   2.077  0.00  0.00    +0.012 C 
ATOM     37  C   UNL     1      23.002   9.988  -0.088  0.00  0.00    -0.000 C 
ATOM     38  C   UNL     1      21.651  10.077  -0.864  0.00  0.00    +0.031 C 
ATOM     39  C   UNL     1      24.400  11.205   2.014  0.00  0.00    +0.012 C 
ATOM     40  C   UNL     1      24.084  10.830  -0.814  0.00  0.00    +0.012 C 
ATOM     41  C   UNL     1      21.354  11.522  -1.232  0.00  0.00    -0.025 C 
ENDBRANCH  32  33
ENDBRANCH  30  32
ENDBRANCH  26  28
ENDBRANCH  25  26
ENDBRANCH  24  25
ENDBRANCH   1  24
TORSDOF 12
