REMARK VINA RESULT:    -6.490      3.592      9.496
REMARK INTER + INTRA:         -12.472
REMARK INTER:                 -10.268
REMARK INTRA:                  -2.204
REMARK UNBOUND:                -1.808
REMARK  Name = lig_assembled_8.pdb
REMARK  11 active torsions:
REMARK  status: ('A' for Active; 'I' for Inactive)
REMARK    1  A    between atoms: _2  and  _8
REMARK    2  A    between atoms: _5  and  _6
REMARK    3  A    between atoms: _5  and  _13
REMARK    4  A    between atoms: _13  and  _15
REMARK    5  A    between atoms: _14  and  _19
REMARK    6  A    between atoms: _15  and  _18
REMARK    7  A    between atoms: _23  and  _33
REMARK    8  A    between atoms: _25  and  _26
REMARK    9  A    between atoms: _27  and  _29
REMARK   10  A    between atoms: _29  and  _31
REMARK   11  A    between atoms: _31  and  _33
REMARK                            x       y       z     vdW  Elec       q    Type
REMARK                         _______ _______ _______ _____ _____    ______ ____
ROOT
ATOM      1  C   UNL     1      31.598  14.592   1.742  0.00  0.00    +0.400 C 
ATOM      2  N   UNL     1      30.834  15.657   1.326  0.00  0.00    -0.278 N 
ATOM      3  H   UNL     1      30.288  15.927   2.204  0.00  0.00    +0.152 HD
ATOM      4  O   UNL     1      31.629  14.335   2.943  0.00  0.00    -0.226 OA
ENDROOT
BRANCH   1   5
ATOM      5  O   UNL     1      32.196  13.932   0.805  0.00  0.00    -0.450 OA
BRANCH   5   6
ATOM      6  C   UNL     1      33.409  13.957   0.088  0.00  0.00    +0.240 C 
BRANCH   6   7
ATOM      7  C   UNL     1      34.531  13.012   0.558  0.00  0.00    +0.100 C 
BRANCH   7   9
ATOM      8  N   UNL     1      35.174  14.071   2.692  0.00  0.00    -0.134 NA
ATOM      9  C   UNL     1      34.624  13.019   2.029  0.00  0.00    +0.086 A 
ATOM     10  C   UNL     1      34.213  12.080   2.947  0.00  0.00    +0.139 A 
ATOM     11  N   UNL     1      34.518  12.616   4.187  0.00  0.00    -0.219 N 
ATOM     12  N   UNL     1      35.111  13.814   3.990  0.00  0.00    -0.061 NA
BRANCH  11  13
ATOM     13  C   UNL     1      34.261  12.056   5.476  0.00  0.00    +0.081 A 
ATOM     14  C   UNL     1      33.253  12.651   6.269  0.00  0.00    +0.029 A 
ATOM     15  C   UNL     1      32.957  12.177   7.551  0.00  0.00    +0.002 A 
ATOM     16  C   UNL     1      33.657  11.101   8.071  0.00  0.00    +0.001 A 
ATOM     17  C   UNL     1      34.648  10.493   7.305  0.00  0.00    +0.017 A 
ATOM     18  C   UNL     1      34.960  10.955   6.012  0.00  0.00    +0.043 A 
ATOM     19 BR   UNL     1      36.345   9.962   5.162  0.00  0.00    -0.048 Br
ENDBRANCH  11  13
ENDBRANCH   7   9
ENDBRANCH   6   7
ENDBRANCH   5   6
ENDBRANCH   1   5
BRANCH   2  20
ATOM     20  C   UNL     1      30.454  16.571   0.252  0.00  0.00    +0.152 C 
BRANCH  20  21
ATOM     21  C   UNL     1      29.038  16.385  -0.330  0.00  0.00    +0.193 C 
ATOM     22  O   UNL     1      28.911  17.322  -1.423  0.00  0.00    -0.219 OA
BRANCH  21  23
ATOM     23  C   UNL     1      28.697  15.015  -0.956  0.00  0.00    +0.212 C 
ATOM     24  O   UNL     1      29.899  14.310  -1.306  0.00  0.00    -0.218 OA
BRANCH  23  25
ATOM     25  C   UNL     1      27.830  14.096  -0.013  0.00  0.00    +0.171 C 
ATOM     26  O   UNL     1      28.627  13.297   0.856  0.00  0.00    -0.343 OA
ATOM     27  C   UNL     1      28.139  12.231   1.615  0.00  0.00    +0.220 C 
ATOM     28  C   UNL     1      27.323  11.247   0.757  0.00  0.00    +0.076 C 
ATOM     29  C   UNL     1      26.248  12.061   0.017  0.00  0.00    +0.177 C 
ATOM     30  O   UNL     1      25.437  11.192  -0.761  0.00  0.00    -0.221 OA
ATOM     31  C   UNL     1      26.918  13.157  -0.868  0.00  0.00    +0.155 C 
BRANCH  31  32
ATOM     32  N   UNL     1      25.900  13.927  -1.579  0.00  0.00    -0.202 NA
ATOM     33  C   UNL     1      25.762  14.164  -2.908  0.00  0.00    +0.242 C 
ATOM     34  C   UNL     1      24.460  14.742  -3.400  0.00  0.00    +0.096 C 
ATOM     35  O   UNL     1      26.689  13.904  -3.671  0.00  0.00    -0.273 OA
ENDBRANCH  31  32
BRANCH  27  36
ATOM     36  C   UNL     1      27.314  12.698   2.934  0.00  0.00    +0.391 C 
ATOM     37  O   UNL     1      26.634  11.603   3.325  0.00  0.00    -0.243 OA
ATOM     38  O   UNL     1      27.843  13.872   3.304  0.00  0.00    -0.243 OA
ENDBRANCH  27  36
ENDBRANCH  23  25
ENDBRANCH  21  23
ENDBRANCH  20  21
ENDBRANCH   2  20
TORSDOF 11
