REMARK VINA RESULT:    -5.888      3.483      8.543
REMARK INTER + INTRA:         -12.701
REMARK INTER:                 -10.932
REMARK INTRA:                  -1.769
REMARK UNBOUND:                -2.511
REMARK  Name = lig_assembled_1.pdb
REMARK  13 active torsions:
REMARK  status: ('A' for Active; 'I' for Inactive)
REMARK    1  A    between atoms: _2  and  _8
REMARK    2  A    between atoms: _4  and  _8
REMARK    3  A    between atoms: _4  and  _9
REMARK    4  A    between atoms: _5  and  _6
REMARK    5  A    between atoms: _5  and  _10
REMARK    6  A    between atoms: _10  and  _12
REMARK    7  A    between atoms: _11  and  _16
REMARK    8  A    between atoms: _12  and  _15
REMARK    9  A    between atoms: _20  and  _30
REMARK   10  A    between atoms: _22  and  _23
REMARK   11  A    between atoms: _24  and  _26
REMARK   12  A    between atoms: _26  and  _28
REMARK   13  A    between atoms: _28  and  _30
REMARK                            x       y       z     vdW  Elec       q    Type
REMARK                         _______ _______ _______ _____ _____    ______ ____
ROOT
ATOM      1  C   UNL     1      25.805  14.939  -2.768  0.00  0.00    +0.193 C 
ATOM      2  O   UNL     1      25.645  15.138  -4.190  0.00  0.00    -0.219 OA
ENDROOT
BRANCH   1   3
ATOM      3  C   UNL     1      25.352  13.482  -2.530  0.00  0.00    +0.212 C 
ATOM      4  O   UNL     1      26.173  12.572  -3.281  0.00  0.00    -0.218 OA
BRANCH   3   5
ATOM      5  C   UNL     1      25.387  13.057  -1.013  0.00  0.00    +0.171 C 
ATOM      6  O   UNL     1      26.554  12.313  -0.679  0.00  0.00    -0.343 OA
ATOM      7  C   UNL     1      26.726  11.612   0.517  0.00  0.00    +0.220 C 
ATOM      8  C   UNL     1      25.530  10.690   0.815  0.00  0.00    +0.076 C 
ATOM      9  C   UNL     1      24.256  11.549   0.746  0.00  0.00    +0.177 C 
ATOM     10  O   UNL     1      23.121  10.752   1.054  0.00  0.00    -0.221 OA
ATOM     11  C   UNL     1      24.124  12.202  -0.665  0.00  0.00    +0.155 C 
BRANCH  11  12
ATOM     12  N   UNL     1      22.912  13.013  -0.737  0.00  0.00    -0.202 NA
ATOM     13  C   UNL     1      21.784  12.823  -1.468  0.00  0.00    +0.242 C 
ATOM     14  C   UNL     1      20.568  13.648  -1.134  0.00  0.00    +0.096 C 
ATOM     15  O   UNL     1      21.779  11.992  -2.374  0.00  0.00    -0.273 OA
ENDBRANCH  11  12
BRANCH   7  16
ATOM     16  C   UNL     1      27.073  12.568   1.784  0.00  0.00    +0.391 C 
ATOM     17  O   UNL     1      26.742  11.841   2.869  0.00  0.00    -0.243 OA
ATOM     18  O   UNL     1      27.821  13.567   1.299  0.00  0.00    -0.243 OA
ENDBRANCH   7  16
ENDBRANCH   3   5
ENDBRANCH   1   3
BRANCH   1  19
ATOM     19  C   UNL     1      27.268  15.296  -2.432  0.00  0.00    +0.152 C 
BRANCH  19  21
ATOM     20  C   UNL     1      28.329  17.105  -0.687  0.00  0.00    +0.400 C 
ATOM     21  N   UNL     1      27.461  16.354  -1.444  0.00  0.00    -0.278 N 
ATOM     22  H   UNL     1      26.502  16.745  -1.182  0.00  0.00    +0.152 HD
ATOM     23  O   UNL     1      27.882  18.081  -0.090  0.00  0.00    -0.226 OA
BRANCH  20  24
ATOM     24  O   UNL     1      29.551  16.684  -0.653  0.00  0.00    -0.450 OA
BRANCH  24  25
ATOM     25  C   UNL     1      30.595  16.510   0.276  0.00  0.00    +0.240 C 
BRANCH  25  26
ATOM     26  C   UNL     1      31.072  15.071   0.548  0.00  0.00    +0.100 C 
BRANCH  26  28
ATOM     27  N   UNL     1      32.827  15.198  -1.195  0.00  0.00    -0.134 NA
ATOM     28  C   UNL     1      31.772  14.530  -0.631  0.00  0.00    +0.086 A 
ATOM     29  C   UNL     1      31.543  13.372  -1.340  0.00  0.00    +0.133 A 
ATOM     30  N   UNL     1      32.486  13.397  -2.323  0.00  0.00    -0.249 N 
ATOM     31  N   UNL     1      33.253  14.496  -2.237  0.00  0.00    -0.065 NA
BRANCH  30  32
ATOM     32  C   UNL     1      32.718  12.417  -3.361  0.00  0.00    +0.173 C 
BRANCH  32  33
ATOM     33  C   UNL     1      32.229  12.881  -4.727  0.00  0.00    +0.179 C 
BRANCH  33  34
ATOM     34  O   UNL     1      33.040  13.943  -5.230  0.00  0.00    -0.393 OA
ATOM     35  H   UNL     1      32.865  14.003  -6.189  0.00  0.00    +0.209 HD
ENDBRANCH  33  34
ENDBRANCH  32  33
ENDBRANCH  30  32
ENDBRANCH  26  28
ENDBRANCH  25  26
ENDBRANCH  24  25
ENDBRANCH  20  24
ENDBRANCH  19  21
ENDBRANCH   1  19
TORSDOF 13
