REMARK VINA RESULT:    -6.958      2.287      7.921
REMARK INTER + INTRA:         -13.265
REMARK INTER:                 -11.260
REMARK INTRA:                  -2.005
REMARK UNBOUND:                -1.427
REMARK  Name = lig_assembled_6.pdb
REMARK  12 active torsions:
REMARK  status: ('A' for Active; 'I' for Inactive)
REMARK    1  A    between atoms: _2  and  _9
REMARK    2  A    between atoms: _3  and  _12
REMARK    3  A    between atoms: _6  and  _7
REMARK    4  A    between atoms: _6  and  _16
REMARK    5  A    between atoms: _16  and  _18
REMARK    6  A    between atoms: _17  and  _22
REMARK    7  A    between atoms: _18  and  _21
REMARK    8  A    between atoms: _26  and  _36
REMARK    9  A    between atoms: _28  and  _29
REMARK   10  A    between atoms: _30  and  _32
REMARK   11  A    between atoms: _32  and  _34
REMARK   12  A    between atoms: _34  and  _36
REMARK                            x       y       z     vdW  Elec       q    Type
REMARK                         _______ _______ _______ _____ _____    ______ ____
ROOT
ATOM      1  C   UNL     1      26.314  15.334  -4.731  0.00  0.00    +0.400 C 
ATOM      2  N   UNL     1      26.294  14.144  -4.042  0.00  0.00    -0.278 N 
ATOM      3  H   UNL     1      25.495  13.605  -4.504  0.00  0.00    +0.152 HD
ATOM      4  O   UNL     1      25.620  15.432  -5.739  0.00  0.00    -0.226 OA
ENDROOT
BRANCH   2   5
ATOM      5  C   UNL     1      26.869  13.302  -2.997  0.00  0.00    +0.152 C 
BRANCH   5   6
ATOM      6  C   UNL     1      26.086  13.235  -1.670  0.00  0.00    +0.193 C 
ATOM      7  O   UNL     1      24.733  13.645  -1.965  0.00  0.00    -0.219 OA
BRANCH   6   8
ATOM      8  C   UNL     1      25.932  11.852  -0.999  0.00  0.00    +0.212 C 
ATOM      9  O   UNL     1      26.982  10.968  -1.425  0.00  0.00    -0.218 OA
BRANCH   8  10
ATOM     10  C   UNL     1      25.937  11.917   0.576  0.00  0.00    +0.171 C 
ATOM     11  O   UNL     1      27.130  11.385   1.142  0.00  0.00    -0.343 OA
ATOM     12  C   UNL     1      27.298  11.097   2.499  0.00  0.00    +0.220 C 
ATOM     13  C   UNL     1      26.144  10.241   3.047  0.00  0.00    +0.076 C 
ATOM     14  C   UNL     1      24.829  10.956   2.695  0.00  0.00    +0.177 C 
ATOM     15  O   UNL     1      23.728  10.224   3.216  0.00  0.00    -0.221 OA
ATOM     16  C   UNL     1      24.711  11.134   1.150  0.00  0.00    +0.155 C 
BRANCH  16  17
ATOM     17  N   UNL     1      23.460  11.807   0.811  0.00  0.00    -0.202 NA
ATOM     18  C   UNL     1      22.425  11.380   0.044  0.00  0.00    +0.242 C 
ATOM     19  C   UNL     1      21.130  12.148   0.097  0.00  0.00    +0.096 C 
ATOM     20  O   UNL     1      22.565  10.387  -0.668  0.00  0.00    -0.273 OA
ENDBRANCH  16  17
BRANCH  12  21
ATOM     21  C   UNL     1      27.550  12.416   3.414  0.00  0.00    +0.391 C 
ATOM     22  O   UNL     1      28.008  11.941   4.589  0.00  0.00    -0.243 OA
ATOM     23  O   UNL     1      27.500  13.461   2.578  0.00  0.00    -0.243 OA
ENDBRANCH  12  21
ENDBRANCH   8  10
ENDBRANCH   6   8
ENDBRANCH   5   6
ENDBRANCH   2   5
BRANCH   1  24
ATOM     24  O   UNL     1      27.055  16.263  -4.221  0.00  0.00    -0.450 OA
BRANCH  24  25
ATOM     25  C   UNL     1      26.970  17.291  -3.262  0.00  0.00    +0.240 C 
BRANCH  25  26
ATOM     26  C   UNL     1      26.810  16.876  -1.787  0.00  0.00    +0.100 C 
BRANCH  26  28
ATOM     27  N   UNL     1      28.990  17.702  -0.952  0.00  0.00    -0.134 NA
ATOM     28  C   UNL     1      28.132  16.662  -1.169  0.00  0.00    +0.086 A 
ATOM     29  C   UNL     1      28.713  15.499  -0.720  0.00  0.00    +0.139 A 
ATOM     30  N   UNL     1      29.927  15.886  -0.199  0.00  0.00    -0.220 N 
ATOM     31  N   UNL     1      30.080  17.221  -0.370  0.00  0.00    -0.061 NA
BRANCH  30  32
ATOM     32  C   UNL     1      30.902  15.094   0.464  0.00  0.00    +0.067 A 
ATOM     33  C   UNL     1      31.930  14.469  -0.260  0.00  0.00    +0.034 A 
ATOM     34  C   UNL     1      32.848  13.642   0.395  0.00  0.00    +0.086 A 
ATOM     35  C   UNL     1      32.742  13.442   1.777  0.00  0.00    +0.273 A 
ATOM     36  C   UNL     1      31.737  14.082   2.512  0.00  0.00    +0.086 A 
ATOM     37  C   UNL     1      30.820  14.909   1.854  0.00  0.00    +0.034 A 
BRANCH  35  38
ATOM     38  N   UNL     1      33.682  12.539   2.453  0.00  0.00    +0.080 N 
ATOM     39  O   UNL     1      33.810  12.656   3.681  0.00  0.00    +0.041 OA
ATOM     40  O   UNL     1      34.297  11.719   1.758  0.00  0.00    -0.576 OA
ENDBRANCH  35  38
ENDBRANCH  30  32
ENDBRANCH  26  28
ENDBRANCH  25  26
ENDBRANCH  24  25
ENDBRANCH   1  24
TORSDOF 12
