REMARK VINA RESULT:    -6.811      1.908      3.316
REMARK INTER + INTRA:         -14.181
REMARK INTER:                 -12.105
REMARK INTRA:                  -2.076
REMARK UNBOUND:                -1.794
REMARK  Name = lig_assembled_18.pdb
REMARK  14 active torsions:
REMARK  status: ('A' for Active; 'I' for Inactive)
REMARK    1  A    between atoms: _2  and  _9
REMARK    2  A    between atoms: _3  and  _11
REMARK    3  A    between atoms: _6  and  _7
REMARK    4  A    between atoms: _6  and  _16
REMARK    5  A    between atoms: _9  and  _10
REMARK    6  A    between atoms: _11  and  _12
REMARK    7  A    between atoms: _16  and  _18
REMARK    8  A    between atoms: _17  and  _22
REMARK    9  A    between atoms: _18  and  _21
REMARK   10  A    between atoms: _26  and  _36
REMARK   11  A    between atoms: _28  and  _29
REMARK   12  A    between atoms: _30  and  _32
REMARK   13  A    between atoms: _32  and  _34
REMARK   14  A    between atoms: _34  and  _36
REMARK                            x       y       z     vdW  Elec       q    Type
REMARK                         _______ _______ _______ _____ _____    ______ ____
ROOT
ATOM      1  C   UNL     1      27.964  17.107  -1.021  0.00  0.00    +0.400 C 
ATOM      2  N   UNL     1      28.441  16.211  -0.093  0.00  0.00    -0.278 N 
ATOM      3  H   UNL     1      28.926  16.835   0.627  0.00  0.00    +0.152 HD
ATOM      4  O   UNL     1      28.022  18.305  -0.752  0.00  0.00    -0.226 OA
ENDROOT
BRANCH   2   5
ATOM      5  C   UNL     1      28.567  14.824   0.347  0.00  0.00    +0.152 C 
BRANCH   5   6
ATOM      6  C   UNL     1      29.908  14.130   0.030  0.00  0.00    +0.193 C 
ATOM      7  O   UNL     1      29.982  14.008  -1.408  0.00  0.00    -0.219 OA
BRANCH   6   8
ATOM      8  C   UNL     1      31.206  14.868   0.422  0.00  0.00    +0.212 C 
ATOM      9  O   UNL     1      30.905  16.022   1.224  0.00  0.00    -0.218 OA
BRANCH   8  10
ATOM     10  C   UNL     1      32.228  13.961   1.208  0.00  0.00    +0.171 C 
ATOM     11  O   UNL     1      32.548  14.484   2.493  0.00  0.00    -0.343 OA
ATOM     12  C   UNL     1      33.595  14.022   3.294  0.00  0.00    +0.220 C 
ATOM     13  C   UNL     1      34.921  13.956   2.515  0.00  0.00    +0.076 C 
ATOM     14  C   UNL     1      34.669  13.133   1.241  0.00  0.00    +0.177 C 
ATOM     15  O   UNL     1      35.876  13.007   0.502  0.00  0.00    -0.221 OA
ATOM     16  C   UNL     1      33.547  13.799   0.385  0.00  0.00    +0.155 C 
BRANCH  16  17
ATOM     17  N   UNL     1      33.309  13.025  -0.831  0.00  0.00    -0.202 NA
ATOM     18  C   UNL     1      33.339  13.418  -2.130  0.00  0.00    +0.242 C 
ATOM     19  C   UNL     1      33.348  12.355  -3.198  0.00  0.00    +0.096 C 
ATOM     20  O   UNL     1      33.358  14.616  -2.402  0.00  0.00    -0.273 OA
ENDBRANCH  16  17
BRANCH  12  21
ATOM     21  C   UNL     1      33.269  12.615   4.038  0.00  0.00    +0.391 C 
ATOM     22  O   UNL     1      34.458  12.184   4.503  0.00  0.00    -0.243 OA
ATOM     23  O   UNL     1      31.938  12.567   4.172  0.00  0.00    -0.243 OA
ENDBRANCH  12  21
ENDBRANCH   8  10
ENDBRANCH   6   8
ENDBRANCH   5   6
ENDBRANCH   2   5
BRANCH   1  24
ATOM     24  O   UNL     1      27.520  16.592  -2.120  0.00  0.00    -0.450 OA
BRANCH  24  25
ATOM     25  C   UNL     1      26.645  16.917  -3.175  0.00  0.00    +0.240 C 
BRANCH  25  26
ATOM     26  C   UNL     1      26.520  15.906  -4.331  0.00  0.00    +0.100 C 
BRANCH  26  28
ATOM     27  N   UNL     1      24.442  14.749  -5.029  0.00  0.00    -0.134 NA
ATOM     28  C   UNL     1      25.404  14.975  -4.080  0.00  0.00    +0.086 A 
ATOM     29  C   UNL     1      25.119  14.222  -2.964  0.00  0.00    +0.134 A 
ATOM     30  N   UNL     1      23.992  13.537  -3.305  0.00  0.00    -0.243 N 
ATOM     31  N   UNL     1      23.574  13.873  -4.539  0.00  0.00    -0.065 NA
BRANCH  30  32
ATOM     32  C   UNL     1      23.192  12.653  -2.490  0.00  0.00    +0.240 C 
BRANCH  32  33
ATOM     33  C   UNL     1      21.916  13.309  -2.017  0.00  0.00    +0.235 C 
ATOM     34  O   UNL     1      21.770  13.703  -0.861  0.00  0.00    -0.274 OA
ATOM     35  N   UNL     1      20.951  13.486  -2.990  0.00  0.00    -0.309 N 
ATOM     36  H   UNL     1      21.030  13.009  -3.877  0.00  0.00    +0.149 HD
BRANCH  35  37
ATOM     37  C   UNL     1      19.681  14.115  -2.689  0.00  0.00    +0.146 C 
BRANCH  37  38
ATOM     38  C   UNL     1      19.501  15.321  -3.554  0.00  0.00    +0.007 A 
ATOM     39  S   UNL     1      20.838  16.313  -3.960  0.00  0.00    -0.100 S 
ATOM     40  C   UNL     1      19.847  17.402  -4.830  0.00  0.00    +0.045 A 
ATOM     41  C   UNL     1      18.525  17.015  -4.828  0.00  0.00    +0.008 A 
ATOM     42  C   UNL     1      18.327  15.808  -4.097  0.00  0.00    +0.013 A 
ENDBRANCH  37  38
ENDBRANCH  35  37
ENDBRANCH  32  33
ENDBRANCH  30  32
ENDBRANCH  26  28
ENDBRANCH  25  26
ENDBRANCH  24  25
ENDBRANCH   1  24
TORSDOF 14
