REMARK VINA RESULT:    -6.931      2.311      3.572
REMARK INTER + INTRA:         -14.092
REMARK INTER:                 -12.195
REMARK INTRA:                  -1.897
REMARK UNBOUND:                -2.096
REMARK  Name = lig_assembled_88.pdb
REMARK  13 active torsions:
REMARK  status: ('A' for Active; 'I' for Inactive)
REMARK    1  A    between atoms: _2  and  _8
REMARK    2  A    between atoms: _4  and  _14
REMARK    3  A    between atoms: _5  and  _6
REMARK    4  A    between atoms: _5  and  _15
REMARK    5  A    between atoms: _8  and  _9
REMARK    6  A    between atoms: _15  and  _17
REMARK    7  A    between atoms: _16  and  _21
REMARK    8  A    between atoms: _17  and  _20
REMARK    9  A    between atoms: _25  and  _35
REMARK   10  A    between atoms: _27  and  _28
REMARK   11  A    between atoms: _29  and  _31
REMARK   12  A    between atoms: _31  and  _33
REMARK   13  A    between atoms: _33  and  _35
REMARK                            x       y       z     vdW  Elec       q    Type
REMARK                         _______ _______ _______ _____ _____    ______ ____
ROOT
ATOM      1  C   UNL     1      30.428  15.768  -0.181  0.00  0.00    +0.400 C 
ATOM      2  N   UNL     1      29.823  14.820   0.612  0.00  0.00    -0.278 N 
ATOM      3  H   UNL     1      30.604  14.113   0.791  0.00  0.00    +0.152 HD
ATOM      4  O   UNL     1      31.645  15.705  -0.332  0.00  0.00    -0.226 OA
ENDROOT
BRANCH   1   5
ATOM      5  O   UNL     1      29.634  16.631  -0.725  0.00  0.00    -0.450 OA
BRANCH   5   6
ATOM      6  C   UNL     1      28.486  17.380  -0.400  0.00  0.00    +0.240 C 
BRANCH   6   7
ATOM      7  C   UNL     1      27.735  18.067  -1.557  0.00  0.00    +0.100 C 
BRANCH   7   9
ATOM      8  N   UNL     1      26.738  17.350  -3.707  0.00  0.00    -0.134 NA
ATOM      9  C   UNL     1      27.070  17.063  -2.409  0.00  0.00    +0.086 A 
ATOM     10  C   UNL     1      26.667  15.780  -2.114  0.00  0.00    +0.134 A 
ATOM     11  N   UNL     1      26.029  15.369  -3.248  0.00  0.00    -0.247 N 
ATOM     12  N   UNL     1      26.120  16.296  -4.221  0.00  0.00    -0.065 NA
BRANCH  11  13
ATOM     13  C   UNL     1      25.261  14.152  -3.455  0.00  0.00    +0.184 C 
BRANCH  13  14
ATOM     14  C   UNL     1      23.822  14.268  -2.991  0.00  0.00    +0.017 A 
ATOM     15  C   UNL     1      22.895  15.127  -3.613  0.00  0.00    +0.024 A 
ATOM     16  C   UNL     1      21.577  15.208  -3.158  0.00  0.00    +0.019 A 
ATOM     17 BR   UNL     1      20.374  16.411  -3.985  0.00  0.00    -0.050 Br
ATOM     18  C   UNL     1      21.138  14.418  -2.100  0.00  0.00    +0.034 A 
ATOM     19  C   UNL     1      22.030  13.529  -1.507  0.00  0.00    +0.061 A 
ATOM     20 BR   UNL     1      21.417  12.428  -0.090  0.00  0.00    -0.046 Br
ATOM     21  C   UNL     1      23.357  13.451  -1.951  0.00  0.00    +0.136 A 
BRANCH  21  22
ATOM     22  O   UNL     1      24.238  12.569  -1.384  0.00  0.00    -0.505 OA
ATOM     23  H   UNL     1      25.079  13.043  -1.241  0.00  0.00    +0.292 HD
ENDBRANCH  21  22
ENDBRANCH  13  14
ENDBRANCH  11  13
ENDBRANCH   7   9
ENDBRANCH   6   7
ENDBRANCH   5   6
ENDBRANCH   1   5
BRANCH   2  24
ATOM     24  C   UNL     1      28.626  14.365   1.313  0.00  0.00    +0.152 C 
BRANCH  24  25
ATOM     25  C   UNL     1      28.861  13.556   2.605  0.00  0.00    +0.193 C 
ATOM     26  O   UNL     1      27.660  13.681   3.398  0.00  0.00    -0.219 OA
BRANCH  25  27
ATOM     27  C   UNL     1      29.075  12.033   2.466  0.00  0.00    +0.212 C 
ATOM     28  O   UNL     1      29.683  11.725   1.201  0.00  0.00    -0.218 OA
BRANCH  27  29
ATOM     29  C   UNL     1      29.962  11.419   3.615  0.00  0.00    +0.171 C 
ATOM     30  O   UNL     1      29.205  11.089   4.775  0.00  0.00    -0.343 OA
ATOM     31  C   UNL     1      29.763  10.762   6.013  0.00  0.00    +0.220 C 
ATOM     32  C   UNL     1      30.804  11.802   6.463  0.00  0.00    +0.076 C 
ATOM     33  C   UNL     1      31.818  11.965   5.319  0.00  0.00    +0.177 C 
ATOM     34  O   UNL     1      32.828  12.889   5.699  0.00  0.00    -0.221 OA
ATOM     35  C   UNL     1      31.091  12.424   4.017  0.00  0.00    +0.155 C 
BRANCH  35  36
ATOM     36  N   UNL     1      32.052  12.587   2.929  0.00  0.00    -0.202 NA
ATOM     37  C   UNL     1      32.627  13.716   2.441  0.00  0.00    +0.242 C 
ATOM     38  C   UNL     1      33.806  13.574   1.513  0.00  0.00    +0.096 C 
ATOM     39  O   UNL     1      32.179  14.814   2.763  0.00  0.00    -0.273 OA
ENDBRANCH  35  36
BRANCH  31  40
ATOM     40  C   UNL     1      30.361   9.253   6.075  0.00  0.00    +0.391 C 
ATOM     41  O   UNL     1      31.167   9.243   7.155  0.00  0.00    -0.243 OA
ATOM     42  O   UNL     1      29.614   8.524   5.237  0.00  0.00    -0.243 OA
ENDBRANCH  31  40
ENDBRANCH  27  29
ENDBRANCH  25  27
ENDBRANCH  24  25
ENDBRANCH   2  24
TORSDOF 13
