REMARK VINA RESULT:    -6.457     23.336     25.794
REMARK INTER + INTRA:         -15.811
REMARK INTER:                 -12.562
REMARK INTRA:                  -3.248
REMARK UNBOUND:                -3.125
REMARK  Name = lig_assembled_47.pdb
REMARK  17 active torsions:
REMARK  status: ('A' for Active; 'I' for Inactive)
REMARK    1  A    between atoms: _2  and  _8
REMARK    2  A    between atoms: _5  and  _6
REMARK    3  A    between atoms: _5  and  _25
REMARK    4  A    between atoms: _8  and  _9
REMARK    5  A    between atoms: _9  and  _10
REMARK    6  A    between atoms: _9  and  _11
REMARK    7  A    between atoms: _10  and  _23
REMARK    8  A    between atoms: _11  and  _12
REMARK    9  A    between atoms: _11  and  _18
REMARK   10  A    between atoms: _25  and  _27
REMARK   11  A    between atoms: _26  and  _31
REMARK   12  A    between atoms: _27  and  _30
REMARK   13  A    between atoms: _35  and  _45
REMARK   14  A    between atoms: _37  and  _38
REMARK   15  A    between atoms: _39  and  _41
REMARK   16  A    between atoms: _41  and  _43
REMARK   17  A    between atoms: _43  and  _45
REMARK                            x       y       z     vdW  Elec       q    Type
REMARK                         _______ _______ _______ _____ _____    ______ ____
ROOT
ATOM      1  C   UNL     1      24.073  37.513  11.193  0.00  0.00    +0.100 C 
ENDROOT
BRANCH   1   3
ATOM      2  N   UNL     1      23.807  38.017   8.776  0.00  0.00    -0.134 NA
ATOM      3  C   UNL     1      24.575  38.048   9.911  0.00  0.00    +0.086 A 
ATOM      4  C   UNL     1      25.799  38.602   9.606  0.00  0.00    +0.133 A 
ATOM      5  N   UNL     1      25.730  38.842   8.265  0.00  0.00    -0.251 N 
ATOM      6  N   UNL     1      24.526  38.507   7.773  0.00  0.00    -0.065 NA
BRANCH   5   7
ATOM      7  C   UNL     1      26.806  39.236   7.368  0.00  0.00    +0.160 C 
BRANCH   7   8
ATOM      8  C   UNL     1      27.305  38.105   6.463  0.00  0.00    +0.131 C 
BRANCH   8   9
ATOM      9  C   UNL     1      27.501  38.687   5.070  0.00  0.00    +0.311 C 
ATOM     10  O   UNL     1      27.136  39.810   4.763  0.00  0.00    -0.251 OA
BRANCH   9  11
ATOM     11  O   UNL     1      28.204  37.941   4.193  0.00  0.00    -0.480 OA
ATOM     12  H   UNL     1      28.035  38.052   3.243  0.00  0.00    +0.295 HD
ENDBRANCH   9  11
ENDBRANCH   8   9
BRANCH   8  13
ATOM     13  C   UNL     1      28.587  37.377   6.977  0.00  0.00    +0.064 C 
BRANCH  13  14
ATOM     14  C   UNL     1      29.535  38.221   7.830  0.00  0.00    -0.039 A 
ATOM     15  C   UNL     1      30.519  39.013   7.205  0.00  0.00    +0.004 A 
ATOM     16  C   UNL     1      31.401  39.797   7.956  0.00  0.00    +0.000 A 
ATOM     17  C   UNL     1      31.330  39.793   9.345  0.00  0.00    +0.000 A 
ATOM     18  C   UNL     1      30.378  39.003   9.982  0.00  0.00    +0.000 A 
ATOM     19  C   UNL     1      29.483  38.232   9.232  0.00  0.00    +0.004 A 
ENDBRANCH  13  14
BRANCH  13  20
ATOM     20  C   UNL     1      28.209  36.046   7.642  0.00  0.00    -0.039 A 
ATOM     21  C   UNL     1      26.859  35.694   7.809  0.00  0.00    +0.004 A 
ATOM     22  C   UNL     1      26.507  34.570   8.563  0.00  0.00    +0.000 A 
ATOM     23  C   UNL     1      27.493  33.771   9.137  0.00  0.00    +0.000 A 
ATOM     24  C   UNL     1      28.834  34.084   8.948  0.00  0.00    +0.000 A 
ATOM     25  C   UNL     1      29.188  35.210   8.207  0.00  0.00    +0.004 A 
ENDBRANCH  13  20
ENDBRANCH   8  13
ENDBRANCH   7   8
ENDBRANCH   5   7
ENDBRANCH   1   3
BRANCH   1  26
ATOM     26  C   UNL     1      24.856  38.101  12.382  0.00  0.00    +0.240 C 
BRANCH  26  27
ATOM     27  O   UNL     1      25.864  37.302  12.955  0.00  0.00    -0.450 OA
BRANCH  27  28
ATOM     28  C   UNL     1      26.626  36.307  12.638  0.00  0.00    +0.400 C 
ATOM     29  N   UNL     1      26.597  35.236  13.500  0.00  0.00    -0.278 N 
ATOM     30  H   UNL     1      27.121  34.474  12.965  0.00  0.00    +0.152 HD
ATOM     31  O   UNL     1      27.334  36.227  11.637  0.00  0.00    -0.226 OA
BRANCH  29  32
ATOM     32  C   UNL     1      26.194  34.691  14.793  0.00  0.00    +0.152 C 
BRANCH  32  33
ATOM     33  C   UNL     1      25.525  33.301  14.766  0.00  0.00    +0.193 C 
ATOM     34  O   UNL     1      25.582  32.840  13.399  0.00  0.00    -0.219 OA
BRANCH  33  35
ATOM     35  C   UNL     1      26.191  32.172  15.583  0.00  0.00    +0.212 C 
ATOM     36  O   UNL     1      26.145  30.933  14.856  0.00  0.00    -0.218 OA
BRANCH  35  37
ATOM     37  C   UNL     1      27.689  32.477  15.964  0.00  0.00    +0.171 C 
ATOM     38  O   UNL     1      28.614  31.940  15.024  0.00  0.00    -0.343 OA
ATOM     39  C   UNL     1      29.992  31.850  15.237  0.00  0.00    +0.220 C 
ATOM     40  C   UNL     1      30.319  31.187  16.586  0.00  0.00    +0.076 C 
ATOM     41  C   UNL     1      29.544  31.947  17.675  0.00  0.00    +0.177 C 
ATOM     42  O   UNL     1      29.842  31.398  18.951  0.00  0.00    -0.221 OA
ATOM     43  C   UNL     1      28.012  31.896  17.380  0.00  0.00    +0.155 C 
BRANCH  43  44
ATOM     44  N   UNL     1      27.272  32.611  18.416  0.00  0.00    -0.202 NA
ATOM     45  C   UNL     1      26.360  32.147  19.308  0.00  0.00    +0.242 C 
ATOM     46  C   UNL     1      25.969  33.037  20.459  0.00  0.00    +0.096 C 
ATOM     47  O   UNL     1      25.882  31.025  19.160  0.00  0.00    -0.273 OA
ENDBRANCH  43  44
BRANCH  39  48
ATOM     48  C   UNL     1      30.767  33.268  15.065  0.00  0.00    +0.391 C 
ATOM     49  O   UNL     1      31.959  33.087  15.667  0.00  0.00    -0.243 OA
ATOM     50  O   UNL     1      30.074  33.960  14.152  0.00  0.00    -0.243 OA
ENDBRANCH  39  48
ENDBRANCH  35  37
ENDBRANCH  33  35
ENDBRANCH  32  33
ENDBRANCH  29  32
ENDBRANCH  27  28
ENDBRANCH  26  27
ENDBRANCH   1  26
TORSDOF 17
