REMARK VINA RESULT:    -7.008      1.428      3.605
REMARK INTER + INTRA:         -13.809
REMARK INTER:                 -12.116
REMARK INTRA:                  -1.694
REMARK UNBOUND:                -1.681
REMARK  Name = lig_assembled_59.pdb
REMARK  13 active torsions:
REMARK  status: ('A' for Active; 'I' for Inactive)
REMARK    1  A    between atoms: _2  and  _9
REMARK    2  A    between atoms: _6  and  _7
REMARK    3  A    between atoms: _6  and  _15
REMARK    4  A    between atoms: _12  and  _13
REMARK    5  A    between atoms: _13  and  _14
REMARK    6  A    between atoms: _15  and  _17
REMARK    7  A    between atoms: _16  and  _21
REMARK    8  A    between atoms: _17  and  _20
REMARK    9  A    between atoms: _25  and  _35
REMARK   10  A    between atoms: _27  and  _28
REMARK   11  A    between atoms: _29  and  _31
REMARK   12  A    between atoms: _31  and  _33
REMARK   13  A    between atoms: _33  and  _35
REMARK                            x       y       z     vdW  Elec       q    Type
REMARK                         _______ _______ _______ _____ _____    ______ ____
ROOT
ATOM      1  C   UNL     1      27.793  17.480  -0.782  0.00  0.00    +0.400 C 
ATOM      2  N   UNL     1      28.423  16.481  -0.078  0.00  0.00    -0.278 N 
ATOM      3  H   UNL     1      28.582  16.919   0.884  0.00  0.00    +0.152 HD
ATOM      4  O   UNL     1      27.418  18.474  -0.167  0.00  0.00    -0.226 OA
ENDROOT
BRANCH   1   5
ATOM      5  O   UNL     1      27.683  17.283  -2.055  0.00  0.00    -0.450 OA
BRANCH   5   6
ATOM      6  C   UNL     1      26.741  17.466  -3.087  0.00  0.00    +0.240 C 
BRANCH   6   7
ATOM      7  C   UNL     1      26.402  16.247  -3.965  0.00  0.00    +0.100 C 
BRANCH   7   9
ATOM      8  N   UNL     1      27.015  14.036  -3.043  0.00  0.00    -0.134 NA
ATOM      9  C   UNL     1      26.123  15.070  -3.119  0.00  0.00    +0.087 A 
ATOM     10  C   UNL     1      25.038  14.789  -2.324  0.00  0.00    +0.141 A 
ATOM     11  N   UNL     1      25.314  13.557  -1.774  0.00  0.00    -0.202 N 
ATOM     12  N   UNL     1      26.519  13.121  -2.220  0.00  0.00    -0.059 NA
BRANCH  11  13
ATOM     13  C   UNL     1      24.498  12.807  -0.885  0.00  0.00    +0.156 A 
ATOM     14  C   UNL     1      23.113  12.860  -1.029  0.00  0.00    +0.048 A 
ATOM     15  C   UNL     1      22.317  12.156  -0.127  0.00  0.00    +0.011 A 
ATOM     16  C   UNL     1      22.912  11.408   0.892  0.00  0.00    -0.004 A 
ATOM     17  C   UNL     1      24.301  11.413   0.957  0.00  0.00    +0.119 A 
ATOM     18  N   UNL     1      25.104  12.081   0.094  0.00  0.00    -0.236 NA
BRANCH  16  19
ATOM     19  C   UNL     1      22.073  10.718   1.928  0.00  0.00    +0.192 C 
BRANCH  19  20
ATOM     20  O   UNL     1      21.435  11.653   2.784  0.00  0.00    -0.390 OA
ATOM     21  H   UNL     1      21.305  11.210   3.640  0.00  0.00    +0.210 HD
ENDBRANCH  19  20
ENDBRANCH  16  19
ENDBRANCH  11  13
ENDBRANCH   7   9
ENDBRANCH   6   7
ENDBRANCH   5   6
ENDBRANCH   1   5
BRANCH   2  22
ATOM     22  C   UNL     1      28.946  15.117  -0.051  0.00  0.00    +0.152 C 
BRANCH  22  23
ATOM     23  C   UNL     1      30.364  14.922  -0.626  0.00  0.00    +0.193 C 
ATOM     24  O   UNL     1      31.040  16.193  -0.505  0.00  0.00    -0.219 OA
BRANCH  23  25
ATOM     25  C   UNL     1      31.295  13.920   0.092  0.00  0.00    +0.212 C 
ATOM     26  O   UNL     1      30.614  12.676   0.319  0.00  0.00    -0.218 OA
BRANCH  25  27
ATOM     27  C   UNL     1      32.627  13.628  -0.700  0.00  0.00    +0.171 C 
ATOM     28  O   UNL     1      32.400  12.902  -1.904  0.00  0.00    -0.343 OA
ATOM     29  C   UNL     1      33.407  12.305  -2.665  0.00  0.00    +0.220 C 
ATOM     30  C   UNL     1      34.330  11.426  -1.803  0.00  0.00    +0.076 C 
ATOM     31  C   UNL     1      34.829  12.290  -0.633  0.00  0.00    +0.177 C 
ATOM     32  O   UNL     1      35.721  11.536   0.177  0.00  0.00    -0.221 OA
ATOM     33  C   UNL     1      33.620  12.820   0.199  0.00  0.00    +0.155 C 
BRANCH  33  34
ATOM     34  N   UNL     1      34.090  13.636   1.315  0.00  0.00    -0.202 NA
ATOM     35  C   UNL     1      33.857  13.503   2.646  0.00  0.00    +0.242 C 
ATOM     36  C   UNL     1      34.702  14.302   3.604  0.00  0.00    +0.096 C 
ATOM     37  O   UNL     1      32.974  12.741   3.035  0.00  0.00    -0.273 OA
ENDBRANCH  33  34
BRANCH  29  38
ATOM     38  C   UNL     1      34.255  13.362  -3.560  0.00  0.00    +0.391 C 
ATOM     39  O   UNL     1      35.395  12.716  -3.875  0.00  0.00    -0.243 OA
ATOM     40  O   UNL     1      33.398  14.335  -3.895  0.00  0.00    -0.243 OA
ENDBRANCH  29  38
ENDBRANCH  25  27
ENDBRANCH  23  25
ENDBRANCH  22  23
ENDBRANCH   2  22
TORSDOF 13
