REMARK VINA RESULT:    -6.839      2.189      2.971
REMARK INTER + INTRA:         -13.428
REMARK INTER:                 -12.183
REMARK INTRA:                  -1.245
REMARK UNBOUND:                -2.191
REMARK  Name = lig_assembled_93.pdb
REMARK  11 active torsions:
REMARK  status: ('A' for Active; 'I' for Inactive)
REMARK    1  A    between atoms: _2  and  _8
REMARK    2  A    between atoms: _5  and  _6
REMARK    3  A    between atoms: _5  and  _13
REMARK    4  A    between atoms: _13  and  _15
REMARK    5  A    between atoms: _14  and  _19
REMARK    6  A    between atoms: _15  and  _18
REMARK    7  A    between atoms: _23  and  _33
REMARK    8  A    between atoms: _25  and  _26
REMARK    9  A    between atoms: _27  and  _29
REMARK   10  A    between atoms: _29  and  _31
REMARK   11  A    between atoms: _31  and  _33
REMARK                            x       y       z     vdW  Elec       q    Type
REMARK                         _______ _______ _______ _____ _____    ______ ____
ROOT
ATOM      1  C   UNL     1      27.849  17.444  -1.061  0.00  0.00    +0.400 C 
ATOM      2  N   UNL     1      28.495  16.487  -0.314  0.00  0.00    -0.278 N 
ATOM      3  H   UNL     1      28.692  16.986   0.610  0.00  0.00    +0.152 HD
ATOM      4  O   UNL     1      27.505  18.481  -0.501  0.00  0.00    -0.226 OA
ENDROOT
BRANCH   1   5
ATOM      5  O   UNL     1      27.692  17.165  -2.314  0.00  0.00    -0.450 OA
BRANCH   5   6
ATOM      6  C   UNL     1      26.773  17.405  -3.354  0.00  0.00    +0.240 C 
BRANCH   6   7
ATOM      7  C   UNL     1      26.574  16.289  -4.398  0.00  0.00    +0.100 C 
BRANCH   7   9
ATOM      8  N   UNL     1      25.555  14.042  -4.385  0.00  0.00    -0.134 NA
ATOM      9  C   UNL     1      25.569  15.320  -3.925  0.00  0.00    +0.086 A 
ATOM     10  C   UNL     1      24.548  15.476  -3.015  0.00  0.00    +0.139 A 
ATOM     11  N   UNL     1      23.931  14.238  -2.932  0.00  0.00    -0.219 N 
ATOM     12  N   UNL     1      24.563  13.402  -3.786  0.00  0.00    -0.061 NA
BRANCH  11  13
ATOM     13  C   UNL     1      22.832  13.852  -2.103  0.00  0.00    +0.080 A 
ATOM     14  C   UNL     1      23.083  12.906  -1.081  0.00  0.00    +0.029 A 
ATOM     15  C   UNL     1      22.069  12.452  -0.232  0.00  0.00    +0.002 A 
ATOM     16  C   UNL     1      20.778  12.930  -0.379  0.00  0.00    +0.001 A 
ATOM     17  C   UNL     1      20.503  13.867  -1.372  0.00  0.00    +0.016 A 
ATOM     18  C   UNL     1      21.514  14.337  -2.238  0.00  0.00    +0.039 A 
ATOM     19  I   UNL     1      20.785  15.754  -3.631  0.00  0.00    -0.042 I 
ENDBRANCH  11  13
ENDBRANCH   7   9
ENDBRANCH   6   7
ENDBRANCH   5   6
ENDBRANCH   1   5
BRANCH   2  20
ATOM     20  C   UNL     1      29.007  15.122  -0.215  0.00  0.00    +0.152 C 
BRANCH  20  21
ATOM     21  C   UNL     1      30.541  14.974  -0.174  0.00  0.00    +0.193 C 
ATOM     22  O   UNL     1      31.091  16.306  -0.281  0.00  0.00    -0.219 OA
BRANCH  21  23
ATOM     23  C   UNL     1      31.170  14.400   1.115  0.00  0.00    +0.212 C 
ATOM     24  O   UNL     1      31.344  15.438   2.094  0.00  0.00    -0.218 OA
BRANCH  23  25
ATOM     25  C   UNL     1      30.323  13.237   1.759  0.00  0.00    +0.171 C 
ATOM     26  O   UNL     1      30.102  13.428   3.153  0.00  0.00    -0.343 OA
ATOM     27  C   UNL     1      29.600  12.448   4.012  0.00  0.00    +0.220 C 
ATOM     28  C   UNL     1      30.370  11.123   3.878  0.00  0.00    +0.076 C 
ATOM     29  C   UNL     1      30.373  10.738   2.389  0.00  0.00    +0.177 C 
ATOM     30  O   UNL     1      31.040   9.496   2.214  0.00  0.00    -0.221 OA
ATOM     31  C   UNL     1      31.043  11.866   1.544  0.00  0.00    +0.155 C 
BRANCH  31  32
ATOM     32  N   UNL     1      31.054  11.501   0.130  0.00  0.00    -0.202 NA
ATOM     33  C   UNL     1      30.020  11.369  -0.740  0.00  0.00    +0.242 C 
ATOM     34  C   UNL     1      30.332  11.273  -2.211  0.00  0.00    +0.096 C 
ATOM     35  O   UNL     1      28.868  11.333  -0.314  0.00  0.00    -0.273 OA
ENDBRANCH  31  32
BRANCH  27  36
ATOM     36  C   UNL     1      27.997  12.224   3.872  0.00  0.00    +0.391 C 
ATOM     37  O   UNL     1      27.776  10.985   4.355  0.00  0.00    -0.243 OA
ATOM     38  O   UNL     1      27.475  13.431   3.624  0.00  0.00    -0.243 OA
ENDBRANCH  27  36
ENDBRANCH  23  25
ENDBRANCH  21  23
ENDBRANCH  20  21
ENDBRANCH   2  20
TORSDOF 11
