REMARK VINA RESULT:    -7.142      2.100      2.873
REMARK INTER + INTRA:         -13.559
REMARK INTER:                 -11.758
REMARK INTRA:                  -1.801
REMARK UNBOUND:                -1.407
REMARK  Name = lig_assembled_82.pdb
REMARK  14 active torsions:
REMARK  status: ('A' for Active; 'I' for Inactive)
REMARK    1  A    between atoms: _2  and  _8
REMARK    2  A    between atoms: _4  and  _15
REMARK    3  A    between atoms: _5  and  _6
REMARK    4  A    between atoms: _5  and  _17
REMARK    5  A    between atoms: _8  and  _9
REMARK    6  A    between atoms: _15  and  _16
REMARK    7  A    between atoms: _17  and  _19
REMARK    8  A    between atoms: _18  and  _23
REMARK    9  A    between atoms: _19  and  _22
REMARK   10  A    between atoms: _27  and  _37
REMARK   11  A    between atoms: _29  and  _30
REMARK   12  A    between atoms: _31  and  _33
REMARK   13  A    between atoms: _33  and  _35
REMARK   14  A    between atoms: _35  and  _37
REMARK                            x       y       z     vdW  Elec       q    Type
REMARK                         _______ _______ _______ _____ _____    ______ ____
ROOT
ATOM      1  C   UNL     1      28.014  17.062  -0.717  0.00  0.00    +0.400 C 
ATOM      2  N   UNL     1      28.460  15.982   0.007  0.00  0.00    -0.278 N 
ATOM      3  H   UNL     1      28.857  16.427   0.895  0.00  0.00    +0.152 HD
ATOM      4  O   UNL     1      27.994  18.161  -0.167  0.00  0.00    -0.226 OA
ENDROOT
BRANCH   2   5
ATOM      5  C   UNL     1      28.617  14.534   0.113  0.00  0.00    +0.152 C 
BRANCH   5   6
ATOM      6  C   UNL     1      30.040  14.026   0.426  0.00  0.00    +0.193 C 
ATOM      7  O   UNL     1      29.970  12.583   0.444  0.00  0.00    -0.219 OA
BRANCH   6   8
ATOM      8  C   UNL     1      31.154  14.346  -0.595  0.00  0.00    +0.212 C 
ATOM      9  O   UNL     1      31.509  15.736  -0.531  0.00  0.00    -0.218 OA
BRANCH   8  10
ATOM     10  C   UNL     1      32.457  13.483  -0.388  0.00  0.00    +0.171 C 
ATOM     11  O   UNL     1      33.238  13.926   0.717  0.00  0.00    -0.343 OA
ATOM     12  C   UNL     1      34.544  13.506   0.978  0.00  0.00    +0.220 C 
ATOM     13  C   UNL     1      35.444  13.637  -0.263  0.00  0.00    +0.076 C 
ATOM     14  C   UNL     1      34.747  12.902  -1.420  0.00  0.00    +0.177 C 
ATOM     15  O   UNL     1      35.557  12.958  -2.585  0.00  0.00    -0.221 OA
ATOM     16  C   UNL     1      33.338  13.522  -1.679  0.00  0.00    +0.155 C 
BRANCH  16  17
ATOM     17  N   UNL     1      32.675  12.831  -2.782  0.00  0.00    -0.202 NA
ATOM     18  C   UNL     1      32.684  13.108  -4.110  0.00  0.00    +0.242 C 
ATOM     19  C   UNL     1      32.159  12.065  -5.062  0.00  0.00    +0.096 C 
ATOM     20  O   UNL     1      33.117  14.189  -4.502  0.00  0.00    -0.273 OA
ENDBRANCH  16  17
BRANCH  12  21
ATOM     21  C   UNL     1      34.629  12.018   1.622  0.00  0.00    +0.391 C 
ATOM     22  O   UNL     1      35.935  11.690   1.571  0.00  0.00    -0.243 OA
ATOM     23  O   UNL     1      33.451  11.807   2.223  0.00  0.00    -0.243 OA
ENDBRANCH  12  21
ENDBRANCH   8  10
ENDBRANCH   6   8
ENDBRANCH   5   6
ENDBRANCH   2   5
BRANCH   1  24
ATOM     24  O   UNL     1      27.682  16.816  -1.942  0.00  0.00    -0.450 OA
BRANCH  24  25
ATOM     25  C   UNL     1      27.052  17.456  -3.027  0.00  0.00    +0.240 C 
BRANCH  25  26
ATOM     26  C   UNL     1      26.116  16.606  -3.907  0.00  0.00    +0.100 C 
BRANCH  26  28
ATOM     27  N   UNL     1      26.676  14.224  -3.543  0.00  0.00    -0.134 NA
ATOM     28  C   UNL     1      25.859  15.301  -3.291  0.00  0.00    +0.086 A 
ATOM     29  C   UNL     1      24.856  14.897  -2.429  0.00  0.00    +0.134 A 
ATOM     30  N   UNL     1      25.045  13.549  -2.305  0.00  0.00    -0.247 N 
ATOM     31  N   UNL     1      26.189  13.170  -2.904  0.00  0.00    -0.065 NA
BRANCH  30  32
ATOM     32  C   UNL     1      24.144  12.552  -1.719  0.00  0.00    +0.176 C 
BRANCH  32  33
ATOM     33  C   UNL     1      24.696  11.946  -0.452  0.00  0.00    -0.049 C 
ATOM     34  C   UNL     1      23.927  10.830   0.179  0.00  0.00    +0.023 C 
ATOM     35  C   UNL     1      24.741   9.649   0.878  0.00  0.00    -0.025 C 
ATOM     36  C   UNL     1      26.097   9.019   0.540  0.00  0.00    +0.012 C 
ATOM     37  C   UNL     1      24.939  10.756   2.016  0.00  0.00    -0.000 C 
ATOM     38  C   UNL     1      25.986  11.861   1.673  0.00  0.00    +0.031 C 
ATOM     39  C   UNL     1      23.727   8.477   0.924  0.00  0.00    +0.012 C 
ATOM     40  C   UNL     1      23.514  11.247   1.647  0.00  0.00    +0.012 C 
ATOM     41  C   UNL     1      25.723  12.417   0.283  0.00  0.00    -0.025 C 
ENDBRANCH  32  33
ENDBRANCH  30  32
ENDBRANCH  26  28
ENDBRANCH  25  26
ENDBRANCH  24  25
ENDBRANCH   1  24
TORSDOF 12
