REMARK VINA RESULT:    -7.342      2.105      2.684
REMARK INTER + INTRA:         -15.115
REMARK INTER:                 -12.346
REMARK INTRA:                  -2.769
REMARK UNBOUND:                -1.120
REMARK  Name = lig_assembled_76.pdb
REMARK  16 active torsions:
REMARK  status: ('A' for Active; 'I' for Inactive)
REMARK    1  A    between atoms: _2  and  _8
REMARK    2  A    between atoms: _5  and  _6
REMARK    3  A    between atoms: _5  and  _18
REMARK    4  A    between atoms: _8  and  _9
REMARK    5  A    between atoms: _9  and  _10
REMARK    6  A    between atoms: _9  and  _17
REMARK    7  A    between atoms: _10  and  _11
REMARK    8  A    between atoms: _11  and  _12
REMARK    9  A    between atoms: _18  and  _20
REMARK   10  A    between atoms: _19  and  _24
REMARK   11  A    between atoms: _20  and  _23
REMARK   12  A    between atoms: _28  and  _38
REMARK   13  A    between atoms: _30  and  _31
REMARK   14  A    between atoms: _32  and  _34
REMARK   15  A    between atoms: _34  and  _36
REMARK   16  A    between atoms: _36  and  _38
REMARK                            x       y       z     vdW  Elec       q    Type
REMARK                         _______ _______ _______ _____ _____    ______ ____
ROOT
ATOM      1  C   UNL     1      27.224  15.775  -1.900  0.00  0.00    +0.400 C 
ATOM      2  N   UNL     1      27.270  14.560  -1.260  0.00  0.00    -0.278 N 
ATOM      3  H   UNL     1      28.083  14.672  -0.574  0.00  0.00    +0.152 HD
ATOM      4  O   UNL     1      27.919  16.688  -1.461  0.00  0.00    -0.226 OA
ENDROOT
BRANCH   1   5
ATOM      5  O   UNL     1      26.461  15.831  -2.942  0.00  0.00    -0.450 OA
BRANCH   5   6
ATOM      6  C   UNL     1      26.475  16.355  -4.250  0.00  0.00    +0.240 C 
BRANCH   6   7
ATOM      7  C   UNL     1      25.962  15.448  -5.385  0.00  0.00    +0.100 C 
BRANCH   7   9
ATOM      8  N   UNL     1      25.308  13.258  -4.423  0.00  0.00    -0.134 NA
ATOM      9  C   UNL     1      24.955  14.504  -4.872  0.00  0.00    +0.086 A 
ATOM     10  C   UNL     1      23.590  14.653  -4.765  0.00  0.00    +0.133 A 
ATOM     11  N   UNL     1      23.175  13.468  -4.238  0.00  0.00    -0.249 N 
ATOM     12  N   UNL     1      24.204  12.627  -4.043  0.00  0.00    -0.065 NA
BRANCH  11  13
ATOM     13  C   UNL     1      21.816  13.024  -4.024  0.00  0.00    +0.176 C 
BRANCH  13  14
ATOM     14  C   UNL     1      20.961  14.056  -3.282  0.00  0.00    +0.136 C 
BRANCH  14  15
ATOM     15  O   UNL     1      19.590  13.632  -3.252  0.00  0.00    -0.390 OA
ATOM     16  H   UNL     1      19.124  14.114  -2.547  0.00  0.00    +0.210 HD
ENDBRANCH  14  15
BRANCH  14  17
ATOM     17  C   UNL     1      21.412  14.255  -1.826  0.00  0.00    +0.038 C 
BRANCH  17  18
ATOM     18  C   UNL     1      20.649  13.383  -0.828  0.00  0.00    +0.038 C 
BRANCH  18  19
ATOM     19  C   UNL     1      21.570  12.510  -0.016  0.00  0.00    -0.047 A 
ATOM     20  C   UNL     1      22.845  12.187  -0.499  0.00  0.00    +0.003 A 
ATOM     21  C   UNL     1      23.708  11.393   0.258  0.00  0.00    +0.000 A 
ATOM     22  C   UNL     1      23.300  10.912   1.500  0.00  0.00    +0.000 A 
ATOM     23  C   UNL     1      22.030  11.219   1.985  0.00  0.00    +0.000 A 
ATOM     24  C   UNL     1      21.165  12.012   1.229  0.00  0.00    +0.003 A 
ENDBRANCH  18  19
ENDBRANCH  17  18
ENDBRANCH  14  17
ENDBRANCH  13  14
ENDBRANCH  11  13
ENDBRANCH   7   9
ENDBRANCH   6   7
ENDBRANCH   5   6
ENDBRANCH   1   5
BRANCH   2  25
ATOM     25  C   UNL     1      26.711  13.221  -1.090  0.00  0.00    +0.152 C 
BRANCH  25  26
ATOM     26  C   UNL     1      27.713  12.109  -0.717  0.00  0.00    +0.193 C 
ATOM     27  O   UNL     1      27.153  10.867  -1.197  0.00  0.00    -0.219 OA
BRANCH  26  28
ATOM     28  C   UNL     1      29.119  12.169  -1.354  0.00  0.00    +0.212 C 
ATOM     29  O   UNL     1      29.057  12.792  -2.647  0.00  0.00    -0.218 OA
BRANCH  28  30
ATOM     30  C   UNL     1      30.172  12.942  -0.471  0.00  0.00    +0.171 C 
ATOM     31  O   UNL     1      29.583  13.992   0.290  0.00  0.00    -0.343 OA
ATOM     32  C   UNL     1      30.307  14.980   0.961  0.00  0.00    +0.220 C 
ATOM     33  C   UNL     1      31.347  15.647   0.044  0.00  0.00    +0.076 C 
ATOM     34  C   UNL     1      32.201  14.529  -0.577  0.00  0.00    +0.177 C 
ATOM     35  O   UNL     1      33.207  15.095  -1.405  0.00  0.00    -0.221 OA
ATOM     36  C   UNL     1      31.295  13.544  -1.379  0.00  0.00    +0.155 C 
BRANCH  36  37
ATOM     37  N   UNL     1      32.103  12.484  -1.976  0.00  0.00    -0.202 NA
ATOM     38  C   UNL     1      32.520  12.329  -3.258  0.00  0.00    +0.242 C 
ATOM     39  C   UNL     1      33.587  11.305  -3.545  0.00  0.00    +0.096 C 
ATOM     40  O   UNL     1      32.025  13.020  -4.146  0.00  0.00    -0.273 OA
ENDBRANCH  36  37
BRANCH  32  41
ATOM     41  C   UNL     1      30.977  14.463   2.347  0.00  0.00    +0.391 C 
ATOM     42  O   UNL     1      31.964  15.343   2.606  0.00  0.00    -0.243 OA
ATOM     43  O   UNL     1      30.127  13.563   2.856  0.00  0.00    -0.243 OA
ENDBRANCH  32  41
ENDBRANCH  28  30
ENDBRANCH  26  28
ENDBRANCH  25  26
ENDBRANCH   2  25
TORSDOF 16
