REMARK VINA RESULT:    -6.180      1.754      3.447
REMARK INTER + INTRA:         -16.306
REMARK INTER:                 -13.547
REMARK INTRA:                  -2.760
REMARK UNBOUND:                -2.358
REMARK  Name = lig_assembled_30.pdb
REMARK  22 active torsions:
REMARK  status: ('A' for Active; 'I' for Inactive)
REMARK    1  A    between atoms: _2  and  _8
REMARK    2  A    between atoms: _4  and  _17
REMARK    3  A    between atoms: _4  and  _18
REMARK    4  A    between atoms: _5  and  _6
REMARK    5  A    between atoms: _5  and  _20
REMARK    6  A    between atoms: _8  and  _9
REMARK    7  A    between atoms: _9  and  _10
REMARK    8  A    between atoms: _10  and  _11
REMARK    9  A    between atoms: _11  and  _12
REMARK   10  A    between atoms: _12  and  _13
REMARK   11  A    between atoms: _13  and  _14
REMARK   12  A    between atoms: _14  and  _15
REMARK   13  A    between atoms: _15  and  _16
REMARK   14  A    between atoms: _16  and  _17
REMARK   15  A    between atoms: _20  and  _22
REMARK   16  A    between atoms: _21  and  _26
REMARK   17  A    between atoms: _22  and  _25
REMARK   18  A    between atoms: _30  and  _40
REMARK   19  A    between atoms: _32  and  _33
REMARK   20  A    between atoms: _34  and  _36
REMARK   21  A    between atoms: _36  and  _38
REMARK   22  A    between atoms: _38  and  _40
REMARK                            x       y       z     vdW  Elec       q    Type
REMARK                         _______ _______ _______ _____ _____    ______ ____
ROOT
ATOM      1  C   UNL     1      30.960  16.114   0.292  0.00  0.00    +0.400 C 
ATOM      2  N   UNL     1      32.001  15.374  -0.216  0.00  0.00    -0.278 N 
ATOM      3  H   UNL     1      32.797  15.562   0.472  0.00  0.00    +0.152 HD
ATOM      4  O   UNL     1      31.096  16.618   1.404  0.00  0.00    -0.226 OA
ENDROOT
BRANCH   1   5
ATOM      5  O   UNL     1      29.930  16.236  -0.479  0.00  0.00    -0.450 OA
BRANCH   5   6
ATOM      6  C   UNL     1      28.626  16.766  -0.444  0.00  0.00    +0.240 C 
BRANCH   6   7
ATOM      7  C   UNL     1      28.179  17.636  -1.635  0.00  0.00    +0.100 C 
BRANCH   7   9
ATOM      8  N   UNL     1      26.873  17.309  -3.712  0.00  0.00    -0.134 NA
ATOM      9  C   UNL     1      27.151  16.934  -2.424  0.00  0.00    +0.086 A 
ATOM     10  C   UNL     1      26.338  15.877  -2.077  0.00  0.00    +0.133 A 
ATOM     11  N   UNL     1      25.593  15.659  -3.196  0.00  0.00    -0.251 N 
ATOM     12  N   UNL     1      25.913  16.520  -4.175  0.00  0.00    -0.065 NA
BRANCH  11  13
ATOM     13  C   UNL     1      24.539  14.687  -3.386  0.00  0.00    +0.145 C 
BRANCH  13  14
ATOM     14  C   UNL     1      23.257  15.118  -2.681  0.00  0.00    +0.023 C 
BRANCH  14  15
ATOM     15  C   UNL     1      22.762  14.059  -1.699  0.00  0.00    +0.002 C 
BRANCH  15  16
ATOM     16  C   UNL     1      21.239  14.126  -1.576  0.00  0.00    +0.000 C 
BRANCH  16  17
ATOM     17  C   UNL     1      20.716  13.174  -0.504  0.00  0.00    +0.000 C 
BRANCH  17  18
ATOM     18  C   UNL     1      21.668  11.992  -0.316  0.00  0.00    +0.000 C 
BRANCH  18  19
ATOM     19  C   UNL     1      21.523  11.391   1.079  0.00  0.00    +0.000 C 
BRANCH  19  20
ATOM     20  C   UNL     1      22.880  11.216   1.761  0.00  0.00    +0.001 C 
BRANCH  20  21
ATOM     21  C   UNL     1      24.011  11.590   0.804  0.00  0.00    +0.011 C 
BRANCH  21  22
ATOM     22  C   UNL     1      25.226  10.681   0.976  0.00  0.00    +0.120 C 
BRANCH  22  23
ATOM     23  C   UNL     1      25.961  10.981   2.264  0.00  0.00    +0.305 C 
ATOM     24  O   UNL     1      25.944  12.047   2.858  0.00  0.00    -0.251 OA
BRANCH  23  25
ATOM     25  O   UNL     1      26.666   9.918   2.713  0.00  0.00    -0.481 OA
ATOM     26  H   UNL     1      26.288   9.057   2.452  0.00  0.00    +0.295 HD
ENDBRANCH  23  25
ENDBRANCH  22  23
ENDBRANCH  21  22
ENDBRANCH  20  21
ENDBRANCH  19  20
ENDBRANCH  18  19
ENDBRANCH  17  18
ENDBRANCH  16  17
ENDBRANCH  15  16
ENDBRANCH  14  15
ENDBRANCH  13  14
ENDBRANCH  11  13
ENDBRANCH   7   9
ENDBRANCH   6   7
ENDBRANCH   5   6
ENDBRANCH   1   5
BRANCH   2  27
ATOM     27  C   UNL     1      32.491  14.456  -1.241  0.00  0.00    +0.152 C 
BRANCH  27  28
ATOM     28  C   UNL     1      33.455  13.352  -0.761  0.00  0.00    +0.193 C 
ATOM     29  O   UNL     1      34.516  14.014  -0.037  0.00  0.00    -0.219 OA
BRANCH  28  30
ATOM     30  C   UNL     1      32.906  12.305   0.232  0.00  0.00    +0.212 C 
ATOM     31  O   UNL     1      33.747  11.140   0.249  0.00  0.00    -0.218 OA
BRANCH  30  32
ATOM     32  C   UNL     1      32.772  12.851   1.705  0.00  0.00    +0.171 C 
ATOM     33  O   UNL     1      33.802  12.371   2.563  0.00  0.00    -0.343 OA
ATOM     34  C   UNL     1      33.791  12.496   3.954  0.00  0.00    +0.220 C 
ATOM     35  C   UNL     1      32.464  12.005   4.560  0.00  0.00    +0.076 C 
ATOM     36  C   UNL     1      31.324  12.739   3.835  0.00  0.00    +0.177 C 
ATOM     37  O   UNL     1      30.074  12.350   4.386  0.00  0.00    -0.221 OA
ATOM     38  C   UNL     1      31.385  12.446   2.304  0.00  0.00    +0.155 C 
BRANCH  38  39
ATOM     39  N   UNL     1      30.299  13.136   1.612  0.00  0.00    -0.202 NA
ATOM     40  C   UNL     1      29.217  12.627   0.971  0.00  0.00    +0.242 C 
ATOM     41  C   UNL     1      28.099  13.566   0.599  0.00  0.00    +0.096 C 
ATOM     42  O   UNL     1      29.173  11.426   0.712  0.00  0.00    -0.273 OA
ENDBRANCH  38  39
BRANCH  34  43
ATOM     43  C   UNL     1      34.167  13.989   4.473  0.00  0.00    +0.391 C 
ATOM     44  O   UNL     1      33.852  13.991   5.783  0.00  0.00    -0.243 OA
ATOM     45  O   UNL     1      34.912  14.539   3.506  0.00  0.00    -0.243 OA
ENDBRANCH  34  43
ENDBRANCH  30  32
ENDBRANCH  28  30
ENDBRANCH  27  28
ENDBRANCH   2  27
TORSDOF 22
