REMARK VINA RESULT:    -7.755      1.804      3.192
REMARK INTER + INTRA:         -13.820
REMARK INTER:                 -11.927
REMARK INTRA:                  -1.893
REMARK UNBOUND:                -0.626
REMARK  Name = lig_assembled_5.pdb
REMARK  13 active torsions:
REMARK  status: ('A' for Active; 'I' for Inactive)
REMARK    1  A    between atoms: _2  and  _8
REMARK    2  A    between atoms: _5  and  _6
REMARK    3  A    between atoms: _5  and  _15
REMARK    4  A    between atoms: _11  and  _14
REMARK    5  A    between atoms: _12  and  _14
REMARK    6  A    between atoms: _15  and  _17
REMARK    7  A    between atoms: _16  and  _21
REMARK    8  A    between atoms: _17  and  _20
REMARK    9  A    between atoms: _25  and  _35
REMARK   10  A    between atoms: _27  and  _28
REMARK   11  A    between atoms: _29  and  _31
REMARK   12  A    between atoms: _31  and  _33
REMARK   13  A    between atoms: _33  and  _35
REMARK                            x       y       z     vdW  Elec       q    Type
REMARK                         _______ _______ _______ _____ _____    ______ ____
ROOT
ATOM      1  C   UNL     1      27.891  17.249  -0.737  0.00  0.00    +0.400 C 
ATOM      2  N   UNL     1      28.486  16.253   0.001  0.00  0.00    -0.278 N 
ATOM      3  H   UNL     1      28.617  16.702   0.962  0.00  0.00    +0.152 HD
ATOM      4  O   UNL     1      27.505  18.255  -0.147  0.00  0.00    -0.226 OA
ENDROOT
BRANCH   2   5
ATOM      5  C   UNL     1      28.994  14.885   0.063  0.00  0.00    +0.152 C 
BRANCH   5   6
ATOM      6  C   UNL     1      30.529  14.730   0.069  0.00  0.00    +0.193 C 
ATOM      7  O   UNL     1      31.038  15.671   1.040  0.00  0.00    -0.219 OA
BRANCH   6   8
ATOM      8  C   UNL     1      31.108  13.368   0.511  0.00  0.00    +0.212 C 
ATOM      9  O   UNL     1      32.255  13.028  -0.285  0.00  0.00    -0.218 OA
BRANCH   8  10
ATOM     10  C   UNL     1      31.521  13.330   2.032  0.00  0.00    +0.171 C 
ATOM     11  O   UNL     1      32.904  13.044   2.217  0.00  0.00    -0.343 OA
ATOM     12  C   UNL     1      33.483  12.713   3.445  0.00  0.00    +0.220 C 
ATOM     13  C   UNL     1      32.714  11.584   4.152  0.00  0.00    +0.076 C 
ATOM     14  C   UNL     1      31.237  12.007   4.226  0.00  0.00    +0.177 C 
ATOM     15  O   UNL     1      30.485  11.013   4.909  0.00  0.00    -0.221 OA
ATOM     16  C   UNL     1      30.676  12.255   2.791  0.00  0.00    +0.155 C 
BRANCH  16  17
ATOM     17  N   UNL     1      29.272  12.650   2.857  0.00  0.00    -0.202 NA
ATOM     18  C   UNL     1      28.167  12.005   2.401  0.00  0.00    +0.242 C 
ATOM     19  C   UNL     1      26.816  12.490   2.860  0.00  0.00    +0.096 C 
ATOM     20  O   UNL     1      28.292  11.051   1.636  0.00  0.00    -0.273 OA
ENDBRANCH  16  17
BRANCH  12  21
ATOM     21  C   UNL     1      33.701  13.992   4.423  0.00  0.00    +0.391 C 
ATOM     22  O   UNL     1      33.864  13.465   5.652  0.00  0.00    -0.243 OA
ATOM     23  O   UNL     1      33.936  15.036   3.619  0.00  0.00    -0.243 OA
ENDBRANCH  12  21
ENDBRANCH   8  10
ENDBRANCH   6   8
ENDBRANCH   5   6
ENDBRANCH   2   5
BRANCH   1  24
ATOM     24  O   UNL     1      27.821  17.038  -2.010  0.00  0.00    -0.450 OA
BRANCH  24  25
ATOM     25  C   UNL     1      26.894  17.155  -3.063  0.00  0.00    +0.240 C 
BRANCH  25  26
ATOM     26  C   UNL     1      26.432  15.857  -3.752  0.00  0.00    +0.100 C 
BRANCH  26  28
ATOM     27  N   UNL     1      24.050  15.718  -3.095  0.00  0.00    -0.134 NA
ATOM     28  C   UNL     1      25.326  15.242  -2.996  0.00  0.00    +0.086 A 
ATOM     29  C   UNL     1      25.339  14.171  -2.132  0.00  0.00    +0.139 A 
ATOM     30  N   UNL     1      24.027  14.010  -1.744  0.00  0.00    -0.220 N 
ATOM     31  N   UNL     1      23.269  14.972  -2.327  0.00  0.00    -0.061 NA
BRANCH  30  32
ATOM     32  C   UNL     1      23.466  13.013  -0.904  0.00  0.00    +0.067 A 
ATOM     33  C   UNL     1      22.079  12.851  -0.811  0.00  0.00    +0.031 A 
ATOM     34  C   UNL     1      21.545  11.906   0.069  0.00  0.00    +0.048 A 
ATOM     35  C   UNL     1      22.379  11.100   0.846  0.00  0.00    +0.120 A 
ATOM     36  C   UNL     1      23.761  11.245   0.742  0.00  0.00    +0.048 A 
ATOM     37  C   UNL     1      24.306  12.199  -0.129  0.00  0.00    +0.031 A 
BRANCH  35  38
ATOM     38  O   UNL     1      21.727  10.261   1.707  0.00  0.00    -0.495 OA
ATOM     39  C   UNL     1      22.473   9.803   2.827  0.00  0.00    +0.277 C 
ENDBRANCH  35  38
ENDBRANCH  30  32
ENDBRANCH  26  28
ENDBRANCH  25  26
ENDBRANCH  24  25
ENDBRANCH   1  24
TORSDOF 12
