REMARK VINA RESULT:    -7.497      2.512      3.690
REMARK INTER + INTRA:         -13.916
REMARK INTER:                 -12.680
REMARK INTRA:                  -1.235
REMARK UNBOUND:                -1.598
REMARK  Name = lig_assembled_80.pdb
REMARK  11 active torsions:
REMARK  status: ('A' for Active; 'I' for Inactive)
REMARK    1  A    between atoms: _2  and  _9
REMARK    2  A    between atoms: _6  and  _7
REMARK    3  A    between atoms: _6  and  _19
REMARK    4  A    between atoms: _19  and  _21
REMARK    5  A    between atoms: _20  and  _25
REMARK    6  A    between atoms: _21  and  _24
REMARK    7  A    between atoms: _29  and  _39
REMARK    8  A    between atoms: _31  and  _32
REMARK    9  A    between atoms: _33  and  _35
REMARK   10  A    between atoms: _35  and  _37
REMARK   11  A    between atoms: _37  and  _39
REMARK                            x       y       z     vdW  Elec       q    Type
REMARK                         _______ _______ _______ _____ _____    ______ ____
ROOT
ATOM      1  C   UNL     1      27.818  17.272  -0.813  0.00  0.00    +0.400 C 
ATOM      2  N   UNL     1      28.343  16.353   0.064  0.00  0.00    -0.278 N 
ATOM      3  H   UNL     1      28.852  16.959   0.782  0.00  0.00    +0.152 HD
ATOM      4  O   UNL     1      27.876  18.461  -0.510  0.00  0.00    -0.226 OA
ENDROOT
BRANCH   1   5
ATOM      5  O   UNL     1      27.334  16.787  -1.909  0.00  0.00    -0.450 OA
BRANCH   5   6
ATOM      6  C   UNL     1      26.996  17.212  -3.209  0.00  0.00    +0.240 C 
BRANCH   6   7
ATOM      7  C   UNL     1      26.604  16.130  -4.232  0.00  0.00    +0.100 C 
BRANCH   7   9
ATOM      8  N   UNL     1      26.232  14.100  -2.885  0.00  0.00    -0.134 NA
ATOM      9  C   UNL     1      25.707  15.134  -3.610  0.00  0.00    +0.086 A 
ATOM     10  C   UNL     1      24.333  15.043  -3.614  0.00  0.00    +0.134 A 
ATOM     11  N   UNL     1      24.083  13.890  -2.917  0.00  0.00    -0.240 N 
ATOM     12  N   UNL     1      25.229  13.349  -2.450  0.00  0.00    -0.065 NA
BRANCH  11  13
ATOM     13  C   UNL     1      22.804  13.312  -2.490  0.00  0.00    +0.195 C 
ATOM     14  C   UNL     1      21.862  14.448  -2.116  0.00  0.00    +0.041 C 
ATOM     15  C   UNL     1      20.637  13.927  -1.396  0.00  0.00    +0.039 C 
ATOM     16  C   UNL     1      19.607  13.491  -2.393  0.00  0.00    -0.026 A 
ATOM     17  C   UNL     1      19.816  12.428  -3.273  0.00  0.00    +0.037 A 
ATOM     18  C   UNL     1      18.759  12.001  -4.094  0.00  0.00    +0.023 A 
ATOM     19  C   UNL     1      17.550  12.694  -4.131  0.00  0.00    +0.002 A 
ATOM     20  C   UNL     1      17.368  13.799  -3.311  0.00  0.00    +0.000 A 
ATOM     21  N   UNL     1      21.038  11.767  -3.486  0.00  0.00    -0.284 N 
ATOM     22  H   UNL     1      20.994  10.997  -4.145  0.00  0.00    +0.155 HD
ATOM     23  C   UNL     1      18.379  14.178  -2.430  0.00  0.00    +0.005 A 
ATOM     24  C   UNL     1      22.311  12.261  -3.477  0.00  0.00    +0.242 C 
ATOM     25  O   UNL     1      23.084  11.707  -4.268  0.00  0.00    -0.273 OA
ENDBRANCH  11  13
ENDBRANCH   7   9
ENDBRANCH   6   7
ENDBRANCH   5   6
ENDBRANCH   1   5
BRANCH   2  26
ATOM     26  C   UNL     1      28.502  14.954   0.454  0.00  0.00    +0.152 C 
BRANCH  26  27
ATOM     27  C   UNL     1      29.707  14.210  -0.158  0.00  0.00    +0.193 C 
ATOM     28  O   UNL     1      29.520  14.224  -1.591  0.00  0.00    -0.219 OA
BRANCH  27  29
ATOM     29  C   UNL     1      31.108  14.824   0.054  0.00  0.00    +0.212 C 
ATOM     30  O   UNL     1      31.000  16.129   0.644  0.00  0.00    -0.218 OA
BRANCH  29  31
ATOM     31  C   UNL     1      32.048  13.938   0.958  0.00  0.00    +0.171 C 
ATOM     32  O   UNL     1      32.198  14.464   2.272  0.00  0.00    -0.343 OA
ATOM     33  C   UNL     1      33.152  14.024   3.193  0.00  0.00    +0.220 C 
ATOM     34  C   UNL     1      34.563  13.990   2.580  0.00  0.00    +0.076 C 
ATOM     35  C   UNL     1      34.485  13.165   1.285  0.00  0.00    +0.177 C 
ATOM     36  O   UNL     1      35.775  13.069   0.697  0.00  0.00    -0.221 OA
ATOM     37  C   UNL     1      33.460  13.808   0.299  0.00  0.00    +0.155 C 
BRANCH  37  38
ATOM     38  N   UNL     1      33.388  13.032  -0.936  0.00  0.00    -0.202 NA
ATOM     39  C   UNL     1      33.486  13.443  -2.226  0.00  0.00    +0.242 C 
ATOM     40  C   UNL     1      33.673  12.399  -3.296  0.00  0.00    +0.096 C 
ATOM     41  O   UNL     1      33.423  14.642  -2.488  0.00  0.00    -0.273 OA
ENDBRANCH  37  38
BRANCH  33  42
ATOM     42  C   UNL     1      32.771  12.608   3.893  0.00  0.00    +0.391 C 
ATOM     43  O   UNL     1      31.525  12.331   3.461  0.00  0.00    -0.243 OA
ATOM     44  O   UNL     1      33.917  12.113   4.375  0.00  0.00    -0.243 OA
ENDBRANCH  33  42
ENDBRANCH  29  31
ENDBRANCH  27  29
ENDBRANCH  26  27
ENDBRANCH   2  26
TORSDOF 11
