REMARK VINA RESULT:    -7.092      1.632      3.139
REMARK INTER + INTRA:         -14.663
REMARK INTER:                 -12.800
REMARK INTRA:                  -1.863
REMARK UNBOUND:                -2.596
REMARK  Name = lig_assembled_4.pdb
REMARK  14 active torsions:
REMARK  status: ('A' for Active; 'I' for Inactive)
REMARK    1  A    between atoms: _2  and  _8
REMARK    2  A    between atoms: _5  and  _6
REMARK    3  A    between atoms: _5  and  _16
REMARK    4  A    between atoms: _9  and  _10
REMARK    5  A    between atoms: _10  and  _11
REMARK    6  A    between atoms: _10  and  _12
REMARK    7  A    between atoms: _16  and  _18
REMARK    8  A    between atoms: _17  and  _22
REMARK    9  A    between atoms: _18  and  _21
REMARK   10  A    between atoms: _26  and  _36
REMARK   11  A    between atoms: _28  and  _29
REMARK   12  A    between atoms: _30  and  _32
REMARK   13  A    between atoms: _32  and  _34
REMARK   14  A    between atoms: _34  and  _36
REMARK                            x       y       z     vdW  Elec       q    Type
REMARK                         _______ _______ _______ _____ _____    ______ ____
ROOT
ATOM      1  C   UNL     1      28.172  17.187  -0.754  0.00  0.00    +0.400 C 
ATOM      2  N   UNL     1      28.950  16.204  -0.188  0.00  0.00    -0.278 N 
ATOM      3  H   UNL     1      29.229  16.623   0.755  0.00  0.00    +0.152 HD
ATOM      4  O   UNL     1      27.844  18.142  -0.055  0.00  0.00    -0.226 OA
ENDROOT
BRANCH   2   5
ATOM      5  C   UNL     1      29.539  14.872  -0.288  0.00  0.00    +0.152 C 
BRANCH   5   6
ATOM      6  C   UNL     1      31.069  14.790  -0.106  0.00  0.00    +0.193 C 
ATOM      7  O   UNL     1      31.614  16.031  -0.605  0.00  0.00    -0.219 OA
BRANCH   6   8
ATOM      8  C   UNL     1      31.613  14.682   1.336  0.00  0.00    +0.212 C 
ATOM      9  O   UNL     1      31.198  15.816   2.114  0.00  0.00    -0.218 OA
BRANCH   8  10
ATOM     10  C   UNL     1      31.159  13.368   2.078  0.00  0.00    +0.171 C 
ATOM     11  O   UNL     1      29.761  13.345   2.346  0.00  0.00    -0.343 OA
ATOM     12  C   UNL     1      29.136  12.429   3.195  0.00  0.00    +0.220 C 
ATOM     13  C   UNL     1      29.836  12.349   4.563  0.00  0.00    +0.076 C 
ATOM     14  C   UNL     1      31.327  12.079   4.304  0.00  0.00    +0.177 C 
ATOM     15  O   UNL     1      32.016  11.956   5.540  0.00  0.00    -0.221 OA
ATOM     16  C   UNL     1      31.936  13.217   3.427  0.00  0.00    +0.155 C 
BRANCH  16  17
ATOM     17  N   UNL     1      33.354  12.967   3.184  0.00  0.00    -0.202 NA
ATOM     18  C   UNL     1      34.435  13.723   3.504  0.00  0.00    +0.242 C 
ATOM     19  C   UNL     1      35.801  13.095   3.403  0.00  0.00    +0.096 C 
ATOM     20  O   UNL     1      34.277  14.887   3.866  0.00  0.00    -0.273 OA
ENDBRANCH  16  17
BRANCH  12  21
ATOM     21  C   UNL     1      28.948  10.957   2.534  0.00  0.00    +0.391 C 
ATOM     22  O   UNL     1      28.728  10.133   3.577  0.00  0.00    -0.243 OA
ATOM     23  O   UNL     1      28.783  11.160   1.221  0.00  0.00    -0.243 OA
ENDBRANCH  12  21
ENDBRANCH   8  10
ENDBRANCH   6   8
ENDBRANCH   5   6
ENDBRANCH   2   5
BRANCH   1  24
ATOM     24  O   UNL     1      27.882  17.021  -2.003  0.00  0.00    -0.450 OA
BRANCH  24  25
ATOM     25  C   UNL     1      26.867  17.361  -2.918  0.00  0.00    +0.240 C 
BRANCH  25  26
ATOM     26  C   UNL     1      26.608  16.389  -4.086  0.00  0.00    +0.100 C 
BRANCH  26  28
ATOM     27  N   UNL     1      25.213  14.417  -4.586  0.00  0.00    -0.134 NA
ATOM     28  C   UNL     1      25.648  15.343  -3.690  0.00  0.00    +0.086 A 
ATOM     29  C   UNL     1      25.026  15.129  -2.481  0.00  0.00    +0.139 A 
ATOM     30  N   UNL     1      24.108  14.127  -2.728  0.00  0.00    -0.220 N 
ATOM     31  N   UNL     1      24.297  13.668  -3.984  0.00  0.00    -0.061 NA
BRANCH  30  32
ATOM     32  C   UNL     1      23.093  13.642  -1.848  0.00  0.00    +0.070 A 
ATOM     33  C   UNL     1      23.275  12.527  -0.985  0.00  0.00    -0.019 A 
ATOM     34  C   UNL     1      22.176  12.134  -0.187  0.00  0.00    +0.006 A 
ATOM     35  C   UNL     1      20.947  12.794  -0.241  0.00  0.00    +0.000 A 
ATOM     36  C   UNL     1      20.784  13.884  -1.081  0.00  0.00    +0.002 A 
ATOM     37  C   UNL     1      21.846  14.305  -1.879  0.00  0.00    +0.028 A 
BRANCH  33  38
ATOM     38  C   UNL     1      24.574  11.726  -0.874  0.00  0.00    +0.015 C 
ATOM     39  C   UNL     1      24.390  10.213  -0.680  0.00  0.00    +0.012 C 
ATOM     40  C   UNL     1      25.442  12.292   0.253  0.00  0.00    +0.012 C 
ENDBRANCH  33  38
ENDBRANCH  30  32
ENDBRANCH  26  28
ENDBRANCH  25  26
ENDBRANCH  24  25
ENDBRANCH   1  24
TORSDOF 12
