REMARK VINA RESULT:    -7.086      1.519      2.016
REMARK INTER + INTRA:         -13.902
REMARK INTER:                 -12.526
REMARK INTRA:                  -1.376
REMARK UNBOUND:                -1.431
REMARK  Name = lig_assembled_36.pdb
REMARK  13 active torsions:
REMARK  status: ('A' for Active; 'I' for Inactive)
REMARK    1  A    between atoms: _2  and  _9
REMARK    2  A    between atoms: _6  and  _7
REMARK    3  A    between atoms: _6  and  _16
REMARK    4  A    between atoms: _9  and  _10
REMARK    5  A    between atoms: _13  and  _14
REMARK    6  A    between atoms: _16  and  _18
REMARK    7  A    between atoms: _17  and  _22
REMARK    8  A    between atoms: _18  and  _21
REMARK    9  A    between atoms: _26  and  _36
REMARK   10  A    between atoms: _28  and  _29
REMARK   11  A    between atoms: _30  and  _32
REMARK   12  A    between atoms: _32  and  _34
REMARK   13  A    between atoms: _34  and  _36
REMARK                            x       y       z     vdW  Elec       q    Type
REMARK                         _______ _______ _______ _____ _____    ______ ____
ROOT
ATOM      1  C   UNL     1      26.777  16.008  -2.907  0.00  0.00    +0.400 C 
ATOM      2  N   UNL     1      27.430  15.662  -1.747  0.00  0.00    -0.278 N 
ATOM      3  H   UNL     1      27.531  16.594  -1.233  0.00  0.00    +0.152 HD
ATOM      4  O   UNL     1      26.330  17.148  -3.002  0.00  0.00    -0.226 OA
ENDROOT
BRANCH   1   5
ATOM      5  O   UNL     1      26.723  15.089  -3.814  0.00  0.00    -0.450 OA
BRANCH   5   6
ATOM      6  C   UNL     1      25.819  14.131  -4.312  0.00  0.00    +0.240 C 
BRANCH   6   7
ATOM      7  C   UNL     1      24.433  14.629  -4.766  0.00  0.00    +0.100 C 
BRANCH   7   9
ATOM      8  N   UNL     1      23.014  15.248  -2.833  0.00  0.00    -0.134 NA
ATOM      9  C   UNL     1      23.416  14.311  -3.748  0.00  0.00    +0.086 A 
ATOM     10  C   UNL     1      22.713  13.145  -3.538  0.00  0.00    +0.134 A 
ATOM     11  N   UNL     1      21.836  13.470  -2.547  0.00  0.00    -0.247 N 
ATOM     12  N   UNL     1      22.056  14.715  -2.087  0.00  0.00    -0.065 NA
BRANCH  11  13
ATOM     13  C   UNL     1      20.762  12.661  -2.006  0.00  0.00    +0.180 C 
BRANCH  13  14
ATOM     14  C   UNL     1      21.196  11.940  -0.750  0.00  0.00    -0.026 A 
ATOM     15  C   UNL     1      21.033  12.530   0.513  0.00  0.00    +0.007 A 
ATOM     16  C   UNL     1      21.434  11.853   1.669  0.00  0.00    +0.019 A 
ATOM     17  C   UNL     1      22.007  10.582   1.579  0.00  0.00    +0.052 A 
ATOM     18  C   UNL     1      22.194   9.997   0.324  0.00  0.00    +0.019 A 
ATOM     19  C   UNL     1      21.796  10.673  -0.833  0.00  0.00    +0.007 A 
BRANCH  17  20
ATOM     20  C   UNL     1      22.397   9.880   2.769  0.00  0.00    +0.099 C 
ATOM     21  N   UNL     1      22.718   9.322   3.734  0.00  0.00    -0.191 NA
ENDBRANCH  17  20
ENDBRANCH  13  14
ENDBRANCH  11  13
ENDBRANCH   7   9
ENDBRANCH   6   7
ENDBRANCH   5   6
ENDBRANCH   1   5
BRANCH   2  22
ATOM     22  C   UNL     1      28.019  14.616  -0.916  0.00  0.00    +0.152 C 
BRANCH  22  23
ATOM     23  C   UNL     1      28.802  15.094   0.325  0.00  0.00    +0.193 C 
ATOM     24  O   UNL     1      28.679  14.054   1.320  0.00  0.00    -0.219 OA
BRANCH  23  25
ATOM     25  C   UNL     1      30.325  15.303   0.172  0.00  0.00    +0.212 C 
ATOM     26  O   UNL     1      30.688  16.640   0.553  0.00  0.00    -0.218 OA
BRANCH  25  27
ATOM     27  C   UNL     1      31.182  14.287   1.019  0.00  0.00    +0.171 C 
ATOM     28  O   UNL     1      31.547  14.808   2.294  0.00  0.00    -0.343 OA
ATOM     29  C   UNL     1      32.496  14.229   3.139  0.00  0.00    +0.220 C 
ATOM     30  C   UNL     1      33.815  13.937   2.402  0.00  0.00    +0.076 C 
ATOM     31  C   UNL     1      33.472  13.111   1.151  0.00  0.00    +0.177 C 
ATOM     32  O   UNL     1      34.664  12.779   0.452  0.00  0.00    -0.221 OA
ATOM     33  C   UNL     1      32.482  13.900   0.240  0.00  0.00    +0.155 C 
BRANCH  33  34
ATOM     34  N   UNL     1      32.159  13.121  -0.953  0.00  0.00    -0.202 NA
ATOM     35  C   UNL     1      32.543  13.308  -2.241  0.00  0.00    +0.242 C 
ATOM     36  C   UNL     1      32.311  12.192  -3.226  0.00  0.00    +0.096 C 
ATOM     37  O   UNL     1      33.067  14.371  -2.571  0.00  0.00    -0.273 OA
ENDBRANCH  33  34
BRANCH  29  38
ATOM     38  C   UNL     1      31.948  12.916   3.924  0.00  0.00    +0.391 C 
ATOM     39  O   UNL     1      33.001  12.473   4.638  0.00  0.00    -0.243 OA
ATOM     40  O   UNL     1      30.615  12.946   3.809  0.00  0.00    -0.243 OA
ENDBRANCH  29  38
ENDBRANCH  25  27
ENDBRANCH  23  25
ENDBRANCH  22  23
ENDBRANCH   2  22
TORSDOF 13
