REMARK VINA RESULT:    -6.520      2.397      4.937
REMARK INTER + INTRA:         -13.045
REMARK INTER:                 -11.388
REMARK INTRA:                  -1.656
REMARK UNBOUND:                -1.952
REMARK  Name = lig_assembled_44.pdb
REMARK  12 active torsions:
REMARK  status: ('A' for Active; 'I' for Inactive)
REMARK    1  A    between atoms: _2  and  _8
REMARK    2  A    between atoms: _5  and  _6
REMARK    3  A    between atoms: _5  and  _14
REMARK    4  A    between atoms: _8  and  _9
REMARK    5  A    between atoms: _14  and  _16
REMARK    6  A    between atoms: _15  and  _20
REMARK    7  A    between atoms: _16  and  _19
REMARK    8  A    between atoms: _24  and  _34
REMARK    9  A    between atoms: _26  and  _27
REMARK   10  A    between atoms: _28  and  _30
REMARK   11  A    between atoms: _30  and  _32
REMARK   12  A    between atoms: _32  and  _34
REMARK                            x       y       z     vdW  Elec       q    Type
REMARK                         _______ _______ _______ _____ _____    ______ ____
ROOT
ATOM      1  C   UNL     1      30.017  14.374   1.521  0.00  0.00    +0.400 C 
ATOM      2  N   UNL     1      30.711  13.754   2.533  0.00  0.00    -0.278 N 
ATOM      3  H   UNL     1      30.007  13.050   2.921  0.00  0.00    +0.152 HD
ATOM      4  O   UNL     1      28.930  13.906   1.193  0.00  0.00    -0.226 OA
ENDROOT
BRANCH   2   5
ATOM      5  C   UNL     1      31.955  13.618   3.287  0.00  0.00    +0.152 C 
BRANCH   5   6
ATOM      6  C   UNL     1      33.259  13.841   2.494  0.00  0.00    +0.193 C 
ATOM      7  O   UNL     1      34.288  14.137   3.463  0.00  0.00    -0.219 OA
BRANCH   6   8
ATOM      8  C   UNL     1      33.819  12.649   1.688  0.00  0.00    +0.212 C 
ATOM      9  O   UNL     1      32.859  11.580   1.640  0.00  0.00    -0.218 OA
BRANCH   8  10
ATOM     10  C   UNL     1      34.224  13.028   0.213  0.00  0.00    +0.171 C 
ATOM     11  O   UNL     1      33.170  12.808  -0.719  0.00  0.00    -0.343 OA
ATOM     12  C   UNL     1      33.329  12.826  -2.107  0.00  0.00    +0.220 C 
ATOM     13  C   UNL     1      34.495  11.931  -2.560  0.00  0.00    +0.076 C 
ATOM     14  C   UNL     1      35.740  12.353  -1.761  0.00  0.00    +0.177 C 
ATOM     15  O   UNL     1      36.860  11.582  -2.171  0.00  0.00    -0.221 OA
ATOM     16  C   UNL     1      35.474  12.199  -0.231  0.00  0.00    +0.155 C 
BRANCH  16  17
ATOM     17  N   UNL     1      36.656  12.592   0.532  0.00  0.00    -0.202 NA
ATOM     18  C   UNL     1      37.385  11.882   1.429  0.00  0.00    +0.242 C 
ATOM     19  C   UNL     1      38.728  12.424   1.848  0.00  0.00    +0.096 C 
ATOM     20  O   UNL     1      36.941  10.826   1.873  0.00  0.00    -0.273 OA
ENDBRANCH  16  17
BRANCH  12  21
ATOM     21  C   UNL     1      33.450  14.324  -2.724  0.00  0.00    +0.391 C 
ATOM     22  O   UNL     1      33.301  14.165  -4.054  0.00  0.00    -0.243 OA
ATOM     23  O   UNL     1      33.349  15.162  -1.685  0.00  0.00    -0.243 OA
ENDBRANCH  12  21
ENDBRANCH   8  10
ENDBRANCH   6   8
ENDBRANCH   5   6
ENDBRANCH   2   5
BRANCH   1  24
ATOM     24  O   UNL     1      30.574  15.430   1.026  0.00  0.00    -0.450 OA
BRANCH  24  25
ATOM     25  C   UNL     1      30.464  16.267  -0.102  0.00  0.00    +0.240 C 
BRANCH  25  26
ATOM     26  C   UNL     1      29.339  17.320  -0.099  0.00  0.00    +0.100 C 
BRANCH  26  28
ATOM     27  N   UNL     1      27.582  17.922  -1.740  0.00  0.00    -0.134 NA
ATOM     28  C   UNL     1      28.292  16.958  -1.073  0.00  0.00    +0.086 A 
ATOM     29  C   UNL     1      27.867  15.718  -1.488  0.00  0.00    +0.134 A 
ATOM     30  N   UNL     1      26.955  15.993  -2.464  0.00  0.00    -0.247 N 
ATOM     31  N   UNL     1      26.755  17.319  -2.583  0.00  0.00    -0.065 NA
BRANCH  30  32
ATOM     32  C   UNL     1      26.240  15.061  -3.314  0.00  0.00    +0.180 C 
BRANCH  32  33
ATOM     33  C   UNL     1      24.882  14.724  -2.743  0.00  0.00    -0.026 A 
ATOM     34  C   UNL     1      24.738  13.692  -1.803  0.00  0.00    +0.006 A 
ATOM     35  C   UNL     1      23.479  13.373  -1.288  0.00  0.00    +0.015 A 
ATOM     36  C   UNL     1      22.358  14.084  -1.710  0.00  0.00    +0.018 A 
ATOM     37 BR   UNL     1      20.658  13.663  -1.000  0.00  0.00    -0.050 Br
ATOM     38  C   UNL     1      22.481  15.103  -2.652  0.00  0.00    +0.015 A 
ATOM     39  C   UNL     1      23.740  15.418  -3.171  0.00  0.00    +0.006 A 
ENDBRANCH  32  33
ENDBRANCH  30  32
ENDBRANCH  26  28
ENDBRANCH  25  26
ENDBRANCH  24  25
ENDBRANCH   1  24
TORSDOF 12
