REMARK VINA RESULT:    -6.726      1.955      2.503
REMARK INTER + INTRA:         -14.346
REMARK INTER:                 -11.959
REMARK INTRA:                  -2.387
REMARK UNBOUND:                -2.115
REMARK  Name = lig_assembled_26.pdb
REMARK  15 active torsions:
REMARK  status: ('A' for Active; 'I' for Inactive)
REMARK    1  A    between atoms: _2  and  _8
REMARK    2  A    between atoms: _5  and  _6
REMARK    3  A    between atoms: _5  and  _18
REMARK    4  A    between atoms: _8  and  _9
REMARK    5  A    between atoms: _8  and  _10
REMARK    6  A    between atoms: _10  and  _11
REMARK    7  A    between atoms: _11  and  _12
REMARK    8  A    between atoms: _18  and  _20
REMARK    9  A    between atoms: _19  and  _24
REMARK   10  A    between atoms: _20  and  _23
REMARK   11  A    between atoms: _28  and  _38
REMARK   12  A    between atoms: _30  and  _31
REMARK   13  A    between atoms: _32  and  _34
REMARK   14  A    between atoms: _34  and  _36
REMARK   15  A    between atoms: _36  and  _38
REMARK                            x       y       z     vdW  Elec       q    Type
REMARK                         _______ _______ _______ _____ _____    ______ ____
ROOT
ATOM      1  C   UNL     1      27.637  13.247  -3.018  0.00  0.00    +0.400 C 
ATOM      2  N   UNL     1      28.038  14.012  -1.948  0.00  0.00    -0.278 N 
ATOM      3  H   UNL     1      28.769  13.399  -1.466  0.00  0.00    +0.152 HD
ATOM      4  O   UNL     1      28.272  12.226  -3.270  0.00  0.00    -0.226 OA
ENDROOT
BRANCH   2   5
ATOM      5  C   UNL     1      27.926  15.263  -1.201  0.00  0.00    +0.152 C 
BRANCH   5   6
ATOM      6  C   UNL     1      28.800  15.378   0.065  0.00  0.00    +0.193 C 
ATOM      7  O   UNL     1      28.546  14.195   0.853  0.00  0.00    -0.219 OA
BRANCH   6   8
ATOM      8  C   UNL     1      30.333  15.395  -0.123  0.00  0.00    +0.212 C 
ATOM      9  O   UNL     1      30.863  16.691   0.199  0.00  0.00    -0.218 OA
BRANCH   8  10
ATOM     10  C   UNL     1      31.080  14.314   0.747  0.00  0.00    +0.171 C 
ATOM     11  O   UNL     1      31.461  14.809   2.027  0.00  0.00    -0.343 OA
ATOM     12  C   UNL     1      32.338  14.156   2.896  0.00  0.00    +0.220 C 
ATOM     13  C   UNL     1      33.642  13.747   2.189  0.00  0.00    +0.076 C 
ATOM     14  C   UNL     1      33.257  12.945   0.935  0.00  0.00    +0.177 C 
ATOM     15  O   UNL     1      34.430  12.508   0.264  0.00  0.00    -0.221 OA
ATOM     16  C   UNL     1      32.358  13.812  -0.001  0.00  0.00    +0.155 C 
BRANCH  16  17
ATOM     17  N   UNL     1      31.996  13.057  -1.198  0.00  0.00    -0.202 NA
ATOM     18  C   UNL     1      32.415  13.208  -2.480  0.00  0.00    +0.242 C 
ATOM     19  C   UNL     1      32.113  12.110  -3.466  0.00  0.00    +0.096 C 
ATOM     20  O   UNL     1      33.027  14.224  -2.803  0.00  0.00    -0.273 OA
ENDBRANCH  16  17
BRANCH  12  21
ATOM     21  C   UNL     1      31.661  12.900   3.674  0.00  0.00    +0.391 C 
ATOM     22  O   UNL     1      32.690  12.265   4.269  0.00  0.00    -0.243 OA
ATOM     23  O   UNL     1      30.344  13.138   3.685  0.00  0.00    -0.243 OA
ENDBRANCH  12  21
ENDBRANCH   8  10
ENDBRANCH   6   8
ENDBRANCH   5   6
ENDBRANCH   2   5
BRANCH   1  24
ATOM     24  O   UNL     1      26.591  13.670  -3.648  0.00  0.00    -0.450 OA
BRANCH  24  25
ATOM     25  C   UNL     1      26.180  14.780  -4.411  0.00  0.00    +0.240 C 
BRANCH  25  26
ATOM     26  C   UNL     1      25.258  15.810  -3.729  0.00  0.00    +0.100 C 
BRANCH  26  28
ATOM     27  N   UNL     1      22.988  14.909  -4.168  0.00  0.00    -0.134 NA
ATOM     28  C   UNL     1      24.007  15.168  -3.290  0.00  0.00    +0.086 A 
ATOM     29  C   UNL     1      23.643  14.736  -2.037  0.00  0.00    +0.134 A 
ATOM     30  N   UNL     1      22.382  14.247  -2.204  0.00  0.00    -0.248 N 
ATOM     31  N   UNL     1      22.002  14.327  -3.495  0.00  0.00    -0.065 NA
BRANCH  30  32
ATOM     32  C   UNL     1      21.495  13.624  -1.234  0.00  0.00    +0.113 C 
ATOM     33  C   UNL     1      20.000  13.843  -1.509  0.00  0.00    +0.033 C 
BRANCH  32  34
ATOM     34  C   UNL     1      21.819  12.137  -1.000  0.00  0.00    +0.106 C 
BRANCH  34  35
ATOM     35  C   UNL     1      22.149  11.797   0.443  0.00  0.00    +0.165 C 
ATOM     36  O   UNL     1      21.279  11.664   1.301  0.00  0.00    -0.292 OA
BRANCH  35  37
ATOM     37  C   UNL     1      23.581  11.660   0.840  0.00  0.00    +0.017 A 
ATOM     38  C   UNL     1      24.636  11.972  -0.027  0.00  0.00    +0.011 A 
ATOM     39  C   UNL     1      25.958  11.865   0.412  0.00  0.00    +0.001 A 
ATOM     40  C   UNL     1      26.234  11.440   1.712  0.00  0.00    +0.000 A 
ATOM     41  C   UNL     1      25.191  11.117   2.575  0.00  0.00    +0.001 A 
ATOM     42  C   UNL     1      23.869  11.225   2.143  0.00  0.00    +0.011 A 
ENDBRANCH  35  37
ENDBRANCH  34  35
ENDBRANCH  32  34
ENDBRANCH  30  32
ENDBRANCH  26  28
ENDBRANCH  25  26
ENDBRANCH  24  25
ENDBRANCH   1  24
TORSDOF 14
