REMARK VINA RESULT:    -5.715      3.821      9.083
REMARK INTER + INTRA:         -12.252
REMARK INTER:                 -10.272
REMARK INTRA:                  -1.980
REMARK UNBOUND:                -2.194
REMARK  Name = lig_assembled_14.pdb
REMARK  13 active torsions:
REMARK  status: ('A' for Active; 'I' for Inactive)
REMARK    1  A    between atoms: _2  and  _9
REMARK    2  A    between atoms: _3  and  _10
REMARK    3  A    between atoms: _6  and  _7
REMARK    4  A    between atoms: _6  and  _14
REMARK    5  A    between atoms: _9  and  _10
REMARK    6  A    between atoms: _14  and  _16
REMARK    7  A    between atoms: _15  and  _20
REMARK    8  A    between atoms: _16  and  _19
REMARK    9  A    between atoms: _24  and  _34
REMARK   10  A    between atoms: _26  and  _27
REMARK   11  A    between atoms: _28  and  _30
REMARK   12  A    between atoms: _30  and  _32
REMARK   13  A    between atoms: _32  and  _34
REMARK                            x       y       z     vdW  Elec       q    Type
REMARK                         _______ _______ _______ _____ _____    ______ ____
ROOT
ATOM      1  C   UNL     1      27.771  17.244  -1.258  0.00  0.00    +0.400 C 
ATOM      2  N   UNL     1      26.655  16.939  -2.002  0.00  0.00    -0.278 N 
ATOM      3  H   UNL     1      25.985  17.742  -1.782  0.00  0.00    +0.152 HD
ATOM      4  O   UNL     1      27.824  18.346  -0.718  0.00  0.00    -0.226 OA
ENDROOT
BRANCH   2   5
ATOM      5  C   UNL     1      25.996  16.039  -2.945  0.00  0.00    +0.152 C 
BRANCH   5   6
ATOM      6  C   UNL     1      24.843  15.185  -2.378  0.00  0.00    +0.193 C 
ATOM      7  O   UNL     1      23.697  15.420  -3.225  0.00  0.00    -0.219 OA
BRANCH   6   8
ATOM      8  C   UNL     1      25.020  13.651  -2.384  0.00  0.00    +0.212 C 
ATOM      9  O   UNL     1      26.295  13.295  -2.942  0.00  0.00    -0.218 OA
BRANCH   8  10
ATOM     10  C   UNL     1      24.897  13.002  -0.953  0.00  0.00    +0.171 C 
ATOM     11  O   UNL     1      26.000  12.159  -0.637  0.00  0.00    -0.343 OA
ATOM     12  C   UNL     1      26.034  11.278   0.447  0.00  0.00    +0.220 C 
ATOM     13  C   UNL     1      24.783  10.384   0.494  0.00  0.00    +0.076 C 
ATOM     14  C   UNL     1      23.553  11.305   0.448  0.00  0.00    +0.177 C 
ATOM     15  O   UNL     1      22.366  10.529   0.529  0.00  0.00    -0.221 OA
ATOM     16  C   UNL     1      23.577  12.169  -0.852  0.00  0.00    +0.155 C 
BRANCH  16  17
ATOM     17  N   UNL     1      22.407  13.041  -0.904  0.00  0.00    -0.202 NA
ATOM     18  C   UNL     1      21.411  13.102  -1.823  0.00  0.00    +0.242 C 
ATOM     19  C   UNL     1      20.171  13.888  -1.484  0.00  0.00    +0.096 C 
ATOM     20  O   UNL     1      21.540  12.521  -2.899  0.00  0.00    -0.273 OA
ENDBRANCH  16  17
BRANCH  12  21
ATOM     21  C   UNL     1      26.296  12.015   1.871  0.00  0.00    +0.391 C 
ATOM     22  O   UNL     1      25.786  11.177   2.794  0.00  0.00    -0.243 OA
ATOM     23  O   UNL     1      27.166  13.002   1.623  0.00  0.00    -0.243 OA
ENDBRANCH  12  21
ENDBRANCH   8  10
ENDBRANCH   6   8
ENDBRANCH   5   6
ENDBRANCH   2   5
BRANCH   1  24
ATOM     24  O   UNL     1      28.659  16.309  -1.173  0.00  0.00    -0.450 OA
BRANCH  24  25
ATOM     25  C   UNL     1      29.209  15.442  -0.209  0.00  0.00    +0.240 C 
BRANCH  25  26
ATOM     26  C   UNL     1      30.577  15.821   0.390  0.00  0.00    +0.100 C 
BRANCH  26  28
ATOM     27  N   UNL     1      31.987  15.109   2.294  0.00  0.00    -0.134 NA
ATOM     28  C   UNL     1      30.991  14.827   1.398  0.00  0.00    +0.086 A 
ATOM     29  C   UNL     1      30.529  13.549   1.624  0.00  0.00    +0.133 A 
ATOM     30  N   UNL     1      31.295  13.104   2.657  0.00  0.00    -0.250 N 
ATOM     31  N   UNL     1      32.163  14.046   3.066  0.00  0.00    -0.065 NA
BRANCH  30  32
ATOM     32  C   UNL     1      31.298  11.794   3.269  0.00  0.00    +0.160 C 
BRANCH  32  33
ATOM     33  C   UNL     1      30.070  10.971   2.866  0.00  0.00    +0.107 C 
BRANCH  33  34
ATOM     34  N   UNL     1      29.389  10.350   4.015  0.00  0.00    -0.301 NA
ATOM     35  C   UNL     1      30.307   9.653   4.921  0.00  0.00    +0.084 C 
ATOM     36  C   UNL     1      29.469   9.484   6.172  0.00  0.00    +0.017 C 
ATOM     37  C   UNL     1      28.679  10.777   6.255  0.00  0.00    +0.017 C 
ATOM     38  C   UNL     1      28.693  11.348   4.840  0.00  0.00    +0.084 C 
ENDBRANCH  33  34
ENDBRANCH  32  33
ENDBRANCH  30  32
ENDBRANCH  26  28
ENDBRANCH  25  26
ENDBRANCH  24  25
ENDBRANCH   1  24
TORSDOF 13
