REMARK VINA RESULT:    -6.148      3.258      4.302
REMARK INTER + INTRA:         -12.716
REMARK INTER:                 -10.256
REMARK INTRA:                  -2.460
REMARK UNBOUND:                -1.716
REMARK  Name = lig_assembled_32.pdb
REMARK  14 active torsions:
REMARK  status: ('A' for Active; 'I' for Inactive)
REMARK    1  A    between atoms: _2  and  _8
REMARK    2  A    between atoms: _4  and  _9
REMARK    3  A    between atoms: _4  and  _10
REMARK    4  A    between atoms: _5  and  _6
REMARK    5  A    between atoms: _5  and  _12
REMARK    6  A    between atoms: _8  and  _9
REMARK    7  A    between atoms: _12  and  _14
REMARK    8  A    between atoms: _13  and  _18
REMARK    9  A    between atoms: _14  and  _17
REMARK   10  A    between atoms: _22  and  _32
REMARK   11  A    between atoms: _24  and  _25
REMARK   12  A    between atoms: _26  and  _28
REMARK   13  A    between atoms: _28  and  _30
REMARK   14  A    between atoms: _30  and  _32
REMARK                            x       y       z     vdW  Elec       q    Type
REMARK                         _______ _______ _______ _____ _____    ______ ____
ROOT
ATOM      1  C   UNL     1      29.127  15.363  -0.104  0.00  0.00    +0.152 C 
ENDROOT
BRANCH   1   3
ATOM      2  C   UNL     1      27.796  17.588  -0.954  0.00  0.00    +0.400 C 
ATOM      3  N   UNL     1      28.512  16.684  -0.206  0.00  0.00    -0.278 N 
ATOM      4  H   UNL     1      28.669  17.197   0.718  0.00  0.00    +0.152 HD
ATOM      5  O   UNL     1      27.372  18.596  -0.395  0.00  0.00    -0.226 OA
BRANCH   2   6
ATOM      6  O   UNL     1      27.662  17.296  -2.207  0.00  0.00    -0.450 OA
BRANCH   6   7
ATOM      7  C   UNL     1      26.735  17.475  -3.252  0.00  0.00    +0.240 C 
BRANCH   7   8
ATOM      8  C   UNL     1      26.427  16.257  -4.145  0.00  0.00    +0.100 C 
BRANCH   8  10
ATOM      9  N   UNL     1      24.521  15.533  -2.743  0.00  0.00    -0.134 NA
ATOM     10  C   UNL     1      25.696  15.231  -3.378  0.00  0.00    +0.086 A 
ATOM     11  C   UNL     1      26.001  13.906  -3.156  0.00  0.00    +0.133 A 
ATOM     12  N   UNL     1      24.980  13.465  -2.371  0.00  0.00    -0.251 N 
ATOM     13  N   UNL     1      24.091  14.442  -2.125  0.00  0.00    -0.065 NA
BRANCH  12  14
ATOM     14  C   UNL     1      24.778  12.141  -1.824  0.00  0.00    +0.156 C 
BRANCH  14  15
ATOM     15  C   UNL     1      24.271  12.190  -0.389  0.00  0.00    +0.143 C 
BRANCH  15  16
ATOM     16  C   UNL     1      25.408  11.977   0.569  0.00  0.00    +0.306 C 
ATOM     17  O   UNL     1      26.567  12.296   0.357  0.00  0.00    -0.251 OA
BRANCH  16  18
ATOM     18  O   UNL     1      25.019  11.369   1.712  0.00  0.00    -0.481 OA
ATOM     19  H   UNL     1      25.211  11.878   2.524  0.00  0.00    +0.295 HD
ENDBRANCH  16  18
ENDBRANCH  15  16
ENDBRANCH  14  15
ENDBRANCH  12  14
ENDBRANCH   8  10
ENDBRANCH   7   8
ENDBRANCH   6   7
ENDBRANCH   2   6
ENDBRANCH   1   3
BRANCH   1  20
ATOM     20  C   UNL     1      30.638  15.340   0.207  0.00  0.00    +0.193 C 
ATOM     21  O   UNL     1      30.984  16.658   0.685  0.00  0.00    -0.219 OA
BRANCH  20  22
ATOM     22  C   UNL     1      31.124  14.386   1.320  0.00  0.00    +0.212 C 
ATOM     23  O   UNL     1      31.483  15.129   2.496  0.00  0.00    -0.218 OA
BRANCH  22  24
ATOM     24  C   UNL     1      30.057  13.296   1.719  0.00  0.00    +0.171 C 
ATOM     25  O   UNL     1      29.892  13.182   3.129  0.00  0.00    -0.343 OA
ATOM     26  C   UNL     1      29.202  12.144   3.760  0.00  0.00    +0.220 C 
ATOM     27  C   UNL     1      29.677  10.764   3.270  0.00  0.00    +0.076 C 
ATOM     28  C   UNL     1      29.587  10.762   1.735  0.00  0.00    +0.177 C 
ATOM     29  O   UNL     1      29.977   9.492   1.232  0.00  0.00    -0.221 OA
ATOM     30  C   UNL     1      30.472  11.903   1.143  0.00  0.00    +0.155 C 
BRANCH  30  31
ATOM     31  N   UNL     1      30.395  11.899  -0.315  0.00  0.00    -0.202 NA
ATOM     32  C   UNL     1      31.388  11.817  -1.236  0.00  0.00    +0.242 C 
ATOM     33  C   UNL     1      31.014  11.538  -2.669  0.00  0.00    +0.096 C 
ATOM     34  O   UNL     1      32.556  11.970  -0.885  0.00  0.00    -0.273 OA
ENDBRANCH  30  31
BRANCH  26  35
ATOM     35  C   UNL     1      27.587  12.288   3.665  0.00  0.00    +0.391 C 
ATOM     36  O   UNL     1      27.114  11.045   3.876  0.00  0.00    -0.243 OA
ATOM     37  O   UNL     1      27.329  13.601   3.716  0.00  0.00    -0.243 OA
ENDBRANCH  26  35
ENDBRANCH  22  24
ENDBRANCH  20  22
ENDBRANCH   1  20
TORSDOF 14
