REMARK VINA RESULT:    -6.413      3.507      8.327
REMARK INTER + INTRA:         -14.200
REMARK INTER:                 -11.219
REMARK INTRA:                  -2.981
REMARK UNBOUND:                -2.913
REMARK  Name = lig_assembled_92.pdb
REMARK  13 active torsions:
REMARK  status: ('A' for Active; 'I' for Inactive)
REMARK    1  A    between atoms: _2  and  _10
REMARK    2  A    between atoms: _3  and  _49
REMARK    3  A    between atoms: _7  and  _8
REMARK    4  A    between atoms: _7  and  _20
REMARK    5  A    between atoms: _13  and  _49
REMARK    6  A    between atoms: _20  and  _22
REMARK    7  A    between atoms: _21  and  _26
REMARK    8  A    between atoms: _22  and  _25
REMARK    9  A    between atoms: _30  and  _40
REMARK   10  A    between atoms: _32  and  _33
REMARK   11  A    between atoms: _34  and  _36
REMARK   12  A    between atoms: _36  and  _38
REMARK   13  A    between atoms: _38  and  _40
REMARK                            x       y       z     vdW  Elec       q    Type
REMARK                         _______ _______ _______ _____ _____    ______ ____
ROOT
ATOM      1  O   UNL     1      25.408  15.693  -3.088  0.00  0.00    -0.450 OA
ENDROOT
BRANCH   1   2
ATOM      2  C   UNL     1      24.423  14.959  -2.686  0.00  0.00    +0.400 C 
ATOM      3  N   UNL     1      24.515  13.621  -2.992  0.00  0.00    -0.278 N 
ATOM      4  H   UNL     1      23.730  13.181  -2.415  0.00  0.00    +0.152 HD
ATOM      5  O   UNL     1      23.449  15.340  -2.043  0.00  0.00    -0.226 OA
BRANCH   3   6
ATOM      6  C   UNL     1      25.178  12.559  -3.744  0.00  0.00    +0.152 C 
BRANCH   6   7
ATOM      7  C   UNL     1      26.236  11.741  -2.975  0.00  0.00    +0.193 C 
ATOM      8  O   UNL     1      27.045  12.690  -2.245  0.00  0.00    -0.219 OA
BRANCH   7   9
ATOM      9  C   UNL     1      25.734  10.754  -1.899  0.00  0.00    +0.212 C 
ATOM     10  O   UNL     1      26.530   9.558  -1.903  0.00  0.00    -0.218 OA
BRANCH   9  11
ATOM     11  C   UNL     1      25.743  11.360  -0.443  0.00  0.00    +0.171 C 
ATOM     12  O   UNL     1      26.744  10.779   0.386  0.00  0.00    -0.343 OA
ATOM     13  C   UNL     1      26.817  10.949   1.770  0.00  0.00    +0.220 C 
ATOM     14  C   UNL     1      25.470  10.653   2.453  0.00  0.00    +0.076 C 
ATOM     15  C   UNL     1      24.399  11.505   1.752  0.00  0.00    +0.177 C 
ATOM     16  O   UNL     1      23.138  11.299   2.372  0.00  0.00    -0.221 OA
ATOM     17  C   UNL     1      24.346  11.158   0.231  0.00  0.00    +0.155 C 
BRANCH  17  18
ATOM     18  N   UNL     1      23.325  11.960  -0.437  0.00  0.00    -0.202 NA
ATOM     19  C   UNL     1      22.245  11.565  -1.157  0.00  0.00    +0.242 C 
ATOM     20  C   UNL     1      21.191  12.589  -1.487  0.00  0.00    +0.096 C 
ATOM     21  O   UNL     1      22.150  10.393  -1.518  0.00  0.00    -0.273 OA
ENDBRANCH  17  18
BRANCH  13  22
ATOM     22  C   UNL     1      27.406  12.396   2.214  0.00  0.00    +0.391 C 
ATOM     23  O   UNL     1      26.931  12.598   3.459  0.00  0.00    -0.243 OA
ATOM     24  O   UNL     1      28.362  12.695   1.326  0.00  0.00    -0.243 OA
ENDBRANCH  13  22
ENDBRANCH   9  11
ENDBRANCH   7   9
ENDBRANCH   6   7
ENDBRANCH   3   6
ENDBRANCH   1   2
BRANCH   1  25
ATOM     25  C   UNL     1      26.768  15.912  -2.792  0.00  0.00    +0.240 C 
BRANCH  25  26
ATOM     26  C   UNL     1      27.109  17.066  -1.830  0.00  0.00    +0.100 C 
BRANCH  26  28
ATOM     27  N   UNL     1      29.279  17.771  -0.859  0.00  0.00    -0.134 NA
ATOM     28  C   UNL     1      28.371  16.786  -1.121  0.00  0.00    +0.086 A 
ATOM     29  C   UNL     1      28.842  15.596  -0.616  0.00  0.00    +0.139 A 
ATOM     30  N   UNL     1      30.042  15.912  -0.022  0.00  0.00    -0.220 N 
ATOM     31  N   UNL     1      30.294  17.232  -0.197  0.00  0.00    -0.061 NA
BRANCH  30  32
ATOM     32  C   UNL     1      30.914  15.063   0.708  0.00  0.00    +0.067 A 
ATOM     33  C   UNL     1      31.275  15.382   2.026  0.00  0.00    +0.030 A 
ATOM     34  C   UNL     1      32.178  14.578   2.719  0.00  0.00    +0.031 A 
ATOM     35  C   UNL     1      32.716  13.446   2.104  0.00  0.00    +0.109 A 
ATOM     36  C   UNL     1      32.359  13.110   0.796  0.00  0.00    +0.031 A 
ATOM     37  C   UNL     1      31.449  13.914   0.100  0.00  0.00    +0.030 A 
BRANCH  35  38
ATOM     38  S   UNL     1      33.974  12.535   2.959  0.00  0.00    +0.074 S 
ATOM     39  O   UNL     1      34.776  11.855   1.962  0.00  0.00    -0.150 OA
ATOM     40  O   UNL     1      34.604  13.410   3.922  0.00  0.00    -0.150 OA
BRANCH  38  41
ATOM     41  N   UNL     1      33.113  11.310   3.739  0.00  0.00    -0.194 N 
ATOM     42  H   UNL     1      33.660  10.460   3.623  0.00  0.00    +0.176 HD
ATOM     43  C   UNL     1      32.844  11.624   5.087  0.00  0.00    +0.177 A 
ATOM     44  S   UNL     1      33.803  11.048   6.379  0.00  0.00    -0.059 S 
ATOM     45  C   UNL     1      32.708  11.772   7.485  0.00  0.00    +0.068 A 
ATOM     46  C   UNL     1      31.655  12.330   6.789  0.00  0.00    +0.120 A 
ATOM     47  N   UNL     1      31.752  12.271   5.411  0.00  0.00    -0.232 NA
ENDBRANCH  38  41
ENDBRANCH  35  38
ENDBRANCH  30  32
ENDBRANCH  26  28
ENDBRANCH  25  26
ENDBRANCH   1  25
TORSDOF 13
