REMARK VINA RESULT:    -6.235      3.147      9.460
REMARK INTER + INTRA:         -13.728
REMARK INTER:                 -11.703
REMARK INTRA:                  -2.025
REMARK UNBOUND:                -2.025
REMARK  Name = lig_assembled_10.pdb
REMARK  16 active torsions:
REMARK  status: ('A' for Active; 'I' for Inactive)
REMARK    1  A    between atoms: _2  and  _8
REMARK    2  A    between atoms: _4  and  _8
REMARK    3  A    between atoms: _4  and  _11
REMARK    4  A    between atoms: _5  and  _6
REMARK    5  A    between atoms: _5  and  _15
REMARK    6  A    between atoms: _8  and  _9
REMARK    7  A    between atoms: _9  and  _10
REMARK    8  A    between atoms: _10  and  _13
REMARK    9  A    between atoms: _15  and  _17
REMARK   10  A    between atoms: _16  and  _21
REMARK   11  A    between atoms: _17  and  _20
REMARK   12  A    between atoms: _25  and  _35
REMARK   13  A    between atoms: _27  and  _28
REMARK   14  A    between atoms: _29  and  _31
REMARK   15  A    between atoms: _31  and  _33
REMARK   16  A    between atoms: _33  and  _35
REMARK                            x       y       z     vdW  Elec       q    Type
REMARK                         _______ _______ _______ _____ _____    ______ ____
ROOT
ATOM      1  C   UNL     1      25.574  10.627   1.976  0.00  0.00    +0.400 C 
ATOM      2  N   UNL     1      25.802  11.242   0.767  0.00  0.00    -0.278 N 
ATOM      3  H   UNL     1      25.335  10.586   0.064  0.00  0.00    +0.152 HD
ATOM      4  O   UNL     1      24.805   9.670   2.003  0.00  0.00    -0.226 OA
ENDROOT
BRANCH   2   5
ATOM      5  C   UNL     1      26.370  12.369   0.032  0.00  0.00    +0.152 C 
BRANCH   5   6
ATOM      6  C   UNL     1      26.910  12.058  -1.379  0.00  0.00    +0.193 C 
ATOM      7  O   UNL     1      27.041  10.622  -1.466  0.00  0.00    -0.219 OA
BRANCH   6   8
ATOM      8  C   UNL     1      26.021  12.438  -2.584  0.00  0.00    +0.212 C 
ATOM      9  O   UNL     1      25.845  11.307  -3.454  0.00  0.00    -0.218 OA
BRANCH   8  10
ATOM     10  C   UNL     1      24.600  12.977  -2.166  0.00  0.00    +0.171 C 
ATOM     11  O   UNL     1      23.603  11.960  -2.175  0.00  0.00    -0.343 OA
ATOM     12  C   UNL     1      22.230  12.201  -2.086  0.00  0.00    +0.220 C 
ATOM     13  C   UNL     1      21.770  13.262  -3.101  0.00  0.00    +0.076 C 
ATOM     14  C   UNL     1      22.659  14.502  -2.910  0.00  0.00    +0.177 C 
ATOM     15  O   UNL     1      22.248  15.531  -3.799  0.00  0.00    -0.221 OA
ATOM     16  C   UNL     1      24.158  14.128  -3.128  0.00  0.00    +0.155 C 
BRANCH  16  17
ATOM     17  N   UNL     1      25.005  15.305  -2.954  0.00  0.00    -0.202 NA
ATOM     18  C   UNL     1      25.711  16.010  -3.874  0.00  0.00    +0.242 C 
ATOM     19  C   UNL     1      26.263  17.354  -3.477  0.00  0.00    +0.096 C 
ATOM     20  O   UNL     1      25.881  15.541  -4.998  0.00  0.00    -0.273 OA
ENDBRANCH  16  17
BRANCH  12  21
ATOM     21  C   UNL     1      21.733  12.559  -0.581  0.00  0.00    +0.391 C 
ATOM     22  O   UNL     1      22.702  12.087   0.227  0.00  0.00    -0.243 OA
ATOM     23  O   UNL     1      20.728  13.433  -0.722  0.00  0.00    -0.243 OA
ENDBRANCH  12  21
ENDBRANCH   8  10
ENDBRANCH   6   8
ENDBRANCH   5   6
ENDBRANCH   2   5
BRANCH   1  24
ATOM     24  O   UNL     1      26.230  11.108   2.981  0.00  0.00    -0.450 OA
BRANCH  24  25
ATOM     25  C   UNL     1      27.504  11.003   3.573  0.00  0.00    +0.240 C 
BRANCH  25  26
ATOM     26  C   UNL     1      28.211  12.312   3.974  0.00  0.00    +0.100 C 
BRANCH  26  28
ATOM     27  N   UNL     1      30.104  12.325   2.377  0.00  0.00    -0.134 NA
ATOM     28  C   UNL     1      28.932  12.876   2.818  0.00  0.00    +0.086 A 
ATOM     29  C   UNL     1      28.613  13.951   2.020  0.00  0.00    +0.134 A 
ATOM     30  N   UNL     1      29.602  13.979   1.085  0.00  0.00    -0.237 N 
ATOM     31  N   UNL     1      30.512  13.012   1.322  0.00  0.00    -0.065 NA
BRANCH  30  32
ATOM     32  C   UNL     1      29.805  14.849  -0.061  0.00  0.00    +0.227 C 
BRANCH  32  33
ATOM     33  C   UNL     1      30.947  15.831   0.089  0.00  0.00    +0.330 C 
ATOM     34  O   UNL     1      31.866  15.879  -0.721  0.00  0.00    -0.249 OA
BRANCH  33  35
ATOM     35  O   UNL     1      30.897  16.690   1.128  0.00  0.00    -0.479 OA
ATOM     36  H   UNL     1      30.343  17.504   1.006  0.00  0.00    +0.295 HD
ENDBRANCH  33  35
ENDBRANCH  32  33
BRANCH  32  37
ATOM     37  C   UNL     1      28.525  15.520  -0.580  0.00  0.00    +0.158 C 
BRANCH  37  38
ATOM     38  C   UNL     1      28.603  17.019  -0.507  0.00  0.00    +0.307 C 
ATOM     39  O   UNL     1      29.199  17.709  -1.324  0.00  0.00    -0.251 OA
BRANCH  38  40
ATOM     40  O   UNL     1      27.884  17.549   0.499  0.00  0.00    -0.481 OA
ATOM     41  H   UNL     1      26.915  17.546   0.367  0.00  0.00    +0.295 HD
ENDBRANCH  38  40
ENDBRANCH  37  38
ENDBRANCH  32  37
ENDBRANCH  30  32
ENDBRANCH  26  28
ENDBRANCH  25  26
ENDBRANCH  24  25
ENDBRANCH   1  24
TORSDOF 16
