REMARK VINA RESULT:    -7.166      2.995      4.100
REMARK INTER + INTRA:         -13.395
REMARK INTER:                 -12.546
REMARK INTRA:                  -0.849
REMARK UNBOUND:                -1.202
REMARK  Name = lig_assembled_38.pdb
REMARK  12 active torsions:
REMARK  status: ('A' for Active; 'I' for Inactive)
REMARK    1  A    between atoms: _2  and  _8
REMARK    2  A    between atoms: _5  and  _6
REMARK    3  A    between atoms: _5  and  _14
REMARK    4  A    between atoms: _8  and  _9
REMARK    5  A    between atoms: _14  and  _16
REMARK    6  A    between atoms: _15  and  _20
REMARK    7  A    between atoms: _16  and  _19
REMARK    8  A    between atoms: _24  and  _34
REMARK    9  A    between atoms: _26  and  _27
REMARK   10  A    between atoms: _28  and  _30
REMARK   11  A    between atoms: _30  and  _32
REMARK   12  A    between atoms: _32  and  _34
REMARK                            x       y       z     vdW  Elec       q    Type
REMARK                         _______ _______ _______ _____ _____    ______ ____
ROOT
ATOM      1  C   UNL     1      27.879  17.390  -0.893  0.00  0.00    +0.400 C 
ATOM      2  N   UNL     1      28.554  16.498  -0.093  0.00  0.00    -0.278 N 
ATOM      3  H   UNL     1      28.715  17.049   0.809  0.00  0.00    +0.152 HD
ATOM      4  O   UNL     1      27.483  18.437  -0.388  0.00  0.00    -0.226 OA
ENDROOT
BRANCH   2   5
ATOM      5  C   UNL     1      29.122  15.163   0.079  0.00  0.00    +0.152 C 
BRANCH   5   6
ATOM      6  C   UNL     1      30.655  15.055  -0.054  0.00  0.00    +0.193 C 
ATOM      7  O   UNL     1      31.124  16.342  -0.512  0.00  0.00    -0.219 OA
BRANCH   6   8
ATOM      8  C   UNL     1      31.467  14.784   1.232  0.00  0.00    +0.212 C 
ATOM      9  O   UNL     1      31.329  15.879   2.152  0.00  0.00    -0.218 OA
BRANCH   8  10
ATOM     10  C   UNL     1      31.049  13.453   1.966  0.00  0.00    +0.171 C 
ATOM     11  O   UNL     1      29.919  13.628   2.815  0.00  0.00    -0.343 OA
ATOM     12  C   UNL     1      29.489  12.691   3.758  0.00  0.00    +0.220 C 
ATOM     13  C   UNL     1      30.641  12.228   4.667  0.00  0.00    +0.076 C 
ATOM     14  C   UNL     1      31.786  11.753   3.757  0.00  0.00    +0.177 C 
ATOM     15  O   UNL     1      32.864  11.275   4.550  0.00  0.00    -0.221 OA
ATOM     16  C   UNL     1      32.243  12.912   2.818  0.00  0.00    +0.155 C 
BRANCH  16  17
ATOM     17  N   UNL     1      33.335  12.467   1.957  0.00  0.00    -0.202 NA
ATOM     18  C   UNL     1      34.594  12.959   1.827  0.00  0.00    +0.242 C 
ATOM     19  C   UNL     1      35.612  12.133   1.086  0.00  0.00    +0.096 C 
ATOM     20  O   UNL     1      34.871  14.055   2.312  0.00  0.00    -0.273 OA
ENDBRANCH  16  17
BRANCH  12  21
ATOM     21  C   UNL     1      28.700  11.430   3.104  0.00  0.00    +0.391 C 
ATOM     22  O   UNL     1      28.796  11.612   1.773  0.00  0.00    -0.243 OA
ATOM     23  O   UNL     1      28.522  10.550   4.097  0.00  0.00    -0.243 OA
ENDBRANCH  12  21
ENDBRANCH   8  10
ENDBRANCH   6   8
ENDBRANCH   5   6
ENDBRANCH   2   5
BRANCH   1  24
ATOM     24  O   UNL     1      27.753  17.045  -2.133  0.00  0.00    -0.450 OA
BRANCH  24  25
ATOM     25  C   UNL     1      26.936  17.331  -3.244  0.00  0.00    +0.240 C 
BRANCH  25  26
ATOM     26  C   UNL     1      26.643  16.181  -4.226  0.00  0.00    +0.100 C 
BRANCH  26  28
ATOM     27  N   UNL     1      24.826  14.569  -4.712  0.00  0.00    -0.134 NA
ATOM     28  C   UNL     1      25.330  15.573  -3.928  0.00  0.00    +0.086 A 
ATOM     29  C   UNL     1      24.453  15.825  -2.898  0.00  0.00    +0.134 A 
ATOM     30  N   UNL     1      23.461  14.904  -3.077  0.00  0.00    -0.247 N 
ATOM     31  N   UNL     1      23.684  14.161  -4.177  0.00  0.00    -0.065 NA
BRANCH  30  32
ATOM     32  C   UNL     1      22.423  14.526  -2.135  0.00  0.00    +0.180 C 
BRANCH  32  33
ATOM     33  C   UNL     1      21.026  14.738  -2.662  0.00  0.00    -0.025 A 
ATOM     34  C   UNL     1      19.957  13.950  -2.209  0.00  0.00    +0.005 A 
ATOM     35  C   UNL     1      18.650  14.211  -2.632  0.00  0.00    +0.001 A 
ATOM     36  C   UNL     1      18.396  15.260  -3.514  0.00  0.00    +0.015 A 
ATOM     37  C   UNL     1      19.453  16.039  -3.978  0.00  0.00    +0.018 A 
ATOM     38 BR   UNL     1      19.113  17.470  -5.166  0.00  0.00    -0.050 Br
ATOM     39  C   UNL     1      20.760  15.787  -3.558  0.00  0.00    +0.020 A 
ENDBRANCH  32  33
ENDBRANCH  30  32
ENDBRANCH  26  28
ENDBRANCH  25  26
ENDBRANCH  24  25
ENDBRANCH   1  24
TORSDOF 12
