REMARK VINA RESULT:    -6.625     21.743     25.464
REMARK INTER + INTRA:         -16.140
REMARK INTER:                 -12.814
REMARK INTRA:                  -3.326
REMARK UNBOUND:                -3.125
REMARK  Name = lig_assembled_47.pdb
REMARK  17 active torsions:
REMARK  status: ('A' for Active; 'I' for Inactive)
REMARK    1  A    between atoms: _2  and  _8
REMARK    2  A    between atoms: _5  and  _6
REMARK    3  A    between atoms: _5  and  _25
REMARK    4  A    between atoms: _8  and  _9
REMARK    5  A    between atoms: _9  and  _10
REMARK    6  A    between atoms: _9  and  _11
REMARK    7  A    between atoms: _10  and  _23
REMARK    8  A    between atoms: _11  and  _12
REMARK    9  A    between atoms: _11  and  _18
REMARK   10  A    between atoms: _25  and  _27
REMARK   11  A    between atoms: _26  and  _31
REMARK   12  A    between atoms: _27  and  _30
REMARK   13  A    between atoms: _35  and  _45
REMARK   14  A    between atoms: _37  and  _38
REMARK   15  A    between atoms: _39  and  _41
REMARK   16  A    between atoms: _41  and  _43
REMARK   17  A    between atoms: _43  and  _45
REMARK                            x       y       z     vdW  Elec       q    Type
REMARK                         _______ _______ _______ _____ _____    ______ ____
ROOT
ATOM      1  C   UNL     1      23.485  39.375   9.842  0.00  0.00    +0.100 C 
ENDROOT
BRANCH   1   3
ATOM      2  N   UNL     1      24.194  39.643   7.477  0.00  0.00    -0.134 NA
ATOM      3  C   UNL     1      24.523  39.531   8.804  0.00  0.00    +0.086 A 
ATOM      4  C   UNL     1      25.895  39.561   8.926  0.00  0.00    +0.133 A 
ATOM      5  N   UNL     1      26.342  39.644   7.640  0.00  0.00    -0.251 N 
ATOM      6  N   UNL     1      25.318  39.713   6.774  0.00  0.00    -0.065 NA
BRANCH   5   7
ATOM      7  C   UNL     1      27.707  39.508   7.155  0.00  0.00    +0.160 C 
BRANCH   7   8
ATOM      8  C   UNL     1      28.059  38.095   6.682  0.00  0.00    +0.131 C 
BRANCH   8   9
ATOM      9  C   UNL     1      28.549  38.202   5.244  0.00  0.00    +0.311 C 
ATOM     10  O   UNL     1      29.720  38.062   4.930  0.00  0.00    -0.251 OA
BRANCH   9  11
ATOM     11  O   UNL     1      27.606  38.354   4.290  0.00  0.00    -0.480 OA
ATOM     12  H   UNL     1      27.800  38.926   3.528  0.00  0.00    +0.295 HD
ENDBRANCH   9  11
ENDBRANCH   8   9
BRANCH   8  13
ATOM     13  C   UNL     1      29.079  37.338   7.591  0.00  0.00    +0.064 C 
BRANCH  13  14
ATOM     14  C   UNL     1      29.874  38.209   8.564  0.00  0.00    -0.039 A 
ATOM     15  C   UNL     1      29.319  38.545   9.815  0.00  0.00    +0.004 A 
ATOM     16  C   UNL     1      30.020  39.340  10.728  0.00  0.00    +0.000 A 
ATOM     17  C   UNL     1      31.282  39.828  10.405  0.00  0.00    +0.000 A 
ATOM     18  C   UNL     1      31.840  39.523   9.167  0.00  0.00    +0.000 A 
ATOM     19  C   UNL     1      31.147  38.713   8.259  0.00  0.00    +0.004 A 
ENDBRANCH  13  14
BRANCH  13  20
ATOM     20  C   UNL     1      28.395  36.146   8.275  0.00  0.00    -0.039 A 
ATOM     21  C   UNL     1      29.157  35.064   8.745  0.00  0.00    +0.004 A 
ATOM     22  C   UNL     1      28.530  33.904   9.211  0.00  0.00    +0.000 A 
ATOM     23  C   UNL     1      27.140  33.819   9.240  0.00  0.00    +0.000 A 
ATOM     24  C   UNL     1      26.372  34.897   8.816  0.00  0.00    +0.000 A 
ATOM     25  C   UNL     1      26.994  36.050   8.339  0.00  0.00    +0.004 A 
ENDBRANCH  13  20
ENDBRANCH   8  13
ENDBRANCH   7   8
ENDBRANCH   5   7
ENDBRANCH   1   3
BRANCH   1  26
ATOM     26  C   UNL     1      22.557  38.188   9.522  0.00  0.00    +0.240 C 
BRANCH  26  27
ATOM     27  O   UNL     1      23.150  36.917   9.390  0.00  0.00    -0.450 OA
BRANCH  27  28
ATOM     28  C   UNL     1      22.839  35.670   9.534  0.00  0.00    +0.400 C 
ATOM     29  N   UNL     1      23.266  35.081  10.701  0.00  0.00    -0.278 N 
ATOM     30  H   UNL     1      22.749  34.146  10.708  0.00  0.00    +0.152 HD
ATOM     31  O   UNL     1      22.184  34.991   8.747  0.00  0.00    -0.226 OA
BRANCH  29  32
ATOM     32  C   UNL     1      24.099  35.153  11.898  0.00  0.00    +0.152 C 
BRANCH  32  33
ATOM     33  C   UNL     1      24.601  33.806  12.458  0.00  0.00    +0.193 C 
ATOM     34  O   UNL     1      26.044  33.869  12.458  0.00  0.00    -0.219 OA
BRANCH  33  35
ATOM     35  C   UNL     1      24.230  33.455  13.916  0.00  0.00    +0.212 C 
ATOM     36  O   UNL     1      23.403  34.482  14.485  0.00  0.00    -0.218 OA
BRANCH  35  37
ATOM     37  C   UNL     1      23.485  32.073  14.055  0.00  0.00    +0.171 C 
ATOM     38  O   UNL     1      24.346  30.961  13.833  0.00  0.00    -0.343 OA
ATOM     39  C   UNL     1      23.907  29.647  13.655  0.00  0.00    +0.220 C 
ATOM     40  C   UNL     1      22.804  29.554  12.586  0.00  0.00    +0.076 C 
ATOM     41  C   UNL     1      21.704  30.558  12.968  0.00  0.00    +0.177 C 
ATOM     42  O   UNL     1      20.638  30.485  12.032  0.00  0.00    -0.221 OA
ATOM     43  C   UNL     1      22.295  32.001  13.043  0.00  0.00    +0.155 C 
BRANCH  43  44
ATOM     44  N   UNL     1      21.251  32.959  13.399  0.00  0.00    -0.202 NA
ATOM     45  C   UNL     1      20.422  33.675  12.598  0.00  0.00    +0.242 C 
ATOM     46  C   UNL     1      19.240  34.367  13.228  0.00  0.00    +0.096 C 
ATOM     47  O   UNL     1      20.649  33.743  11.392  0.00  0.00    -0.273 OA
ENDBRANCH  43  44
BRANCH  39  48
ATOM     48  C   UNL     1      23.460  28.921  15.038  0.00  0.00    +0.391 C 
ATOM     49  O   UNL     1      22.651  27.913  14.656  0.00  0.00    -0.243 OA
ATOM     50  O   UNL     1      24.282  29.391  15.985  0.00  0.00    -0.243 OA
ENDBRANCH  39  48
ENDBRANCH  35  37
ENDBRANCH  33  35
ENDBRANCH  32  33
ENDBRANCH  29  32
ENDBRANCH  27  28
ENDBRANCH  26  27
ENDBRANCH   1  26
TORSDOF 17
