REMARK VINA RESULT:    -7.470      2.537      4.180
REMARK INTER + INTRA:         -13.871
REMARK INTER:                 -11.792
REMARK INTRA:                  -2.079
REMARK UNBOUND:                -1.598
REMARK  Name = lig_assembled_80.pdb
REMARK  11 active torsions:
REMARK  status: ('A' for Active; 'I' for Inactive)
REMARK    1  A    between atoms: _2  and  _9
REMARK    2  A    between atoms: _6  and  _7
REMARK    3  A    between atoms: _6  and  _19
REMARK    4  A    between atoms: _19  and  _21
REMARK    5  A    between atoms: _20  and  _25
REMARK    6  A    between atoms: _21  and  _24
REMARK    7  A    between atoms: _29  and  _39
REMARK    8  A    between atoms: _31  and  _32
REMARK    9  A    between atoms: _33  and  _35
REMARK   10  A    between atoms: _35  and  _37
REMARK   11  A    between atoms: _37  and  _39
REMARK                            x       y       z     vdW  Elec       q    Type
REMARK                         _______ _______ _______ _____ _____    ______ ____
ROOT
ATOM      1  C   UNL     1      28.820  17.077  -0.514  0.00  0.00    +0.400 C 
ATOM      2  N   UNL     1      28.949  15.897   0.179  0.00  0.00    -0.278 N 
ATOM      3  H   UNL     1      29.653  16.137   0.947  0.00  0.00    +0.152 HD
ATOM      4  O   UNL     1      29.332  18.087  -0.039  0.00  0.00    -0.226 OA
ENDROOT
BRANCH   1   5
ATOM      5  O   UNL     1      28.184  17.000  -1.637  0.00  0.00    -0.450 OA
BRANCH   5   6
ATOM      6  C   UNL     1      27.165  17.676  -2.337  0.00  0.00    +0.240 C 
BRANCH   6   7
ATOM      7  C   UNL     1      26.872  17.222  -3.779  0.00  0.00    +0.100 C 
BRANCH   7   9
ATOM      8  N   UNL     1      25.552  15.511  -4.963  0.00  0.00    -0.134 NA
ATOM      9  C   UNL     1      25.948  16.069  -3.779  0.00  0.00    +0.086 A 
ATOM     10  C   UNL     1      25.369  15.388  -2.732  0.00  0.00    +0.134 A 
ATOM     11  N   UNL     1      24.578  14.456  -3.350  0.00  0.00    -0.240 N 
ATOM     12  N   UNL     1      24.723  14.512  -4.692  0.00  0.00    -0.065 NA
BRANCH  11  13
ATOM     13  C   UNL     1      23.791  13.362  -2.770  0.00  0.00    +0.195 C 
ATOM     14  C   UNL     1      24.699  12.544  -1.862  0.00  0.00    +0.041 C 
ATOM     15  C   UNL     1      24.040  11.241  -1.461  0.00  0.00    +0.039 C 
ATOM     16  C   UNL     1      23.159  11.462  -0.270  0.00  0.00    -0.026 A 
ATOM     17  C   UNL     1      22.027  12.278  -0.313  0.00  0.00    +0.037 A 
ATOM     18  C   UNL     1      21.184  12.339   0.810  0.00  0.00    +0.023 A 
ATOM     19  C   UNL     1      21.521  11.696   1.999  0.00  0.00    +0.002 A 
ATOM     20  C   UNL     1      22.686  10.945   2.067  0.00  0.00    +0.000 A 
ATOM     21  N   UNL     1      21.674  13.135  -1.368  0.00  0.00    -0.284 N 
ATOM     22  H   UNL     1      20.800  13.633  -1.236  0.00  0.00    +0.155 HD
ATOM     23  C   UNL     1      23.484  10.807   0.933  0.00  0.00    +0.005 A 
ATOM     24  C   UNL     1      22.469  13.866  -2.204  0.00  0.00    +0.242 C 
ATOM     25  O   UNL     1      21.982  14.944  -2.567  0.00  0.00    -0.273 OA
ENDBRANCH  11  13
ENDBRANCH   7   9
ENDBRANCH   6   7
ENDBRANCH   5   6
ENDBRANCH   1   5
BRANCH   2  26
ATOM     26  C   UNL     1      28.554  14.500   0.342  0.00  0.00    +0.152 C 
BRANCH  26  27
ATOM     27  C   UNL     1      29.669  13.525   0.773  0.00  0.00    +0.193 C 
ATOM     28  O   UNL     1      29.391  13.156   2.143  0.00  0.00    -0.219 OA
BRANCH  27  29
ATOM     29  C   UNL     1      29.770  12.177   0.025  0.00  0.00    +0.212 C 
ATOM     30  O   UNL     1      28.608  11.372   0.282  0.00  0.00    -0.218 OA
BRANCH  29  31
ATOM     31  C   UNL     1      29.935  12.341  -1.534  0.00  0.00    +0.171 C 
ATOM     32  O   UNL     1      29.104  11.448  -2.270  0.00  0.00    -0.343 OA
ATOM     33  C   UNL     1      29.223  11.209  -3.641  0.00  0.00    +0.220 C 
ATOM     34  C   UNL     1      30.670  10.871  -4.037  0.00  0.00    +0.076 C 
ATOM     35  C   UNL     1      31.573  11.992  -3.495  0.00  0.00    +0.177 C 
ATOM     36  O   UNL     1      32.921  11.748  -3.869  0.00  0.00    -0.221 OA
ATOM     37  C   UNL     1      31.425  12.099  -1.945  0.00  0.00    +0.155 C 
BRANCH  37  38
ATOM     38  N   UNL     1      32.285  13.158  -1.425  0.00  0.00    -0.202 NA
ATOM     39  C   UNL     1      33.589  13.111  -1.049  0.00  0.00    +0.242 C 
ATOM     40  C   UNL     1      34.317  14.411  -0.829  0.00  0.00    +0.096 C 
ATOM     41  O   UNL     1      34.139  12.021  -0.901  0.00  0.00    -0.273 OA
ENDBRANCH  37  38
BRANCH  33  42
ATOM     42  C   UNL     1      28.615  12.403  -4.561  0.00  0.00    +0.391 C 
ATOM     43  O   UNL     1      29.260  12.296  -5.739  0.00  0.00    -0.243 OA
ATOM     44  O   UNL     1      27.518  12.836  -3.927  0.00  0.00    -0.243 OA
ENDBRANCH  33  42
ENDBRANCH  29  31
ENDBRANCH  27  29
ENDBRANCH  26  27
ENDBRANCH   2  26
TORSDOF 11
