REMARK VINA RESULT:    -6.834      2.995      9.277
REMARK INTER + INTRA:         -13.732
REMARK INTER:                 -11.894
REMARK INTRA:                  -1.838
REMARK UNBOUND:                -1.904
REMARK  Name = lig_assembled_73.pdb
REMARK  13 active torsions:
REMARK  status: ('A' for Active; 'I' for Inactive)
REMARK    1  A    between atoms: _2  and  _9
REMARK    2  A    between atoms: _3  and  _13
REMARK    3  A    between atoms: _6  and  _7
REMARK    4  A    between atoms: _6  and  _17
REMARK    5  A    between atoms: _12  and  _15
REMARK    6  A    between atoms: _17  and  _19
REMARK    7  A    between atoms: _18  and  _23
REMARK    8  A    between atoms: _19  and  _22
REMARK    9  A    between atoms: _27  and  _37
REMARK   10  A    between atoms: _29  and  _30
REMARK   11  A    between atoms: _31  and  _33
REMARK   12  A    between atoms: _33  and  _35
REMARK   13  A    between atoms: _35  and  _37
REMARK                            x       y       z     vdW  Elec       q    Type
REMARK                         _______ _______ _______ _____ _____    ______ ____
ROOT
ATOM      1  C   UNL     1      27.927  17.734  -1.120  0.00  0.00    +0.400 C 
ATOM      2  N   UNL     1      27.190  17.585  -2.272  0.00  0.00    -0.278 N 
ATOM      3  H   UNL     1      26.254  18.037  -2.026  0.00  0.00    +0.152 HD
ATOM      4  O   UNL     1      27.471  18.445  -0.228  0.00  0.00    -0.226 OA
ENDROOT
BRANCH   2   5
ATOM      5  C   UNL     1      27.120  17.110  -3.651  0.00  0.00    +0.152 C 
BRANCH   5   6
ATOM      6  C   UNL     1      26.009  16.087  -3.962  0.00  0.00    +0.193 C 
ATOM      7  O   UNL     1      26.050  15.850  -5.387  0.00  0.00    -0.219 OA
BRANCH   6   8
ATOM      8  C   UNL     1      26.134  14.682  -3.333  0.00  0.00    +0.212 C 
ATOM      9  O   UNL     1      26.843  14.752  -2.085  0.00  0.00    -0.218 OA
BRANCH   8  10
ATOM     10  C   UNL     1      24.744  13.983  -3.085  0.00  0.00    +0.171 C 
ATOM     11  O   UNL     1      23.900  14.734  -2.217  0.00  0.00    -0.343 OA
ATOM     12  C   UNL     1      22.727  14.243  -1.639  0.00  0.00    +0.220 C 
ATOM     13  C   UNL     1      22.955  12.888  -0.948  0.00  0.00    +0.076 C 
ATOM     14  C   UNL     1      23.613  11.950  -1.974  0.00  0.00    +0.177 C 
ATOM     15  O   UNL     1      23.810  10.667  -1.396  0.00  0.00    -0.221 OA
ATOM     16  C   UNL     1      24.960  12.559  -2.474  0.00  0.00    +0.155 C 
BRANCH  16  17
ATOM     17  N   UNL     1      25.591  11.668  -3.443  0.00  0.00    -0.202 NA
ATOM     18  C   UNL     1      26.792  11.038  -3.389  0.00  0.00    +0.242 C 
ATOM     19  C   UNL     1      27.072   9.945  -4.387  0.00  0.00    +0.096 C 
ATOM     20  O   UNL     1      27.614  11.369  -2.537  0.00  0.00    -0.273 OA
ENDBRANCH  16  17
BRANCH  12  21
ATOM     21  C   UNL     1      21.474  14.183  -2.671  0.00  0.00    +0.391 C 
ATOM     22  O   UNL     1      20.703  13.172  -2.224  0.00  0.00    -0.243 OA
ATOM     23  O   UNL     1      21.519  15.321  -3.374  0.00  0.00    -0.243 OA
ENDBRANCH  12  21
ENDBRANCH   8  10
ENDBRANCH   6   8
ENDBRANCH   5   6
ENDBRANCH   2   5
BRANCH   1  24
ATOM     24  O   UNL     1      29.037  17.073  -1.076  0.00  0.00    -0.450 OA
BRANCH  24  25
ATOM     25  C   UNL     1      29.895  16.488  -0.124  0.00  0.00    +0.240 C 
BRANCH  25  26
ATOM     26  C   UNL     1      29.679  14.999   0.206  0.00  0.00    +0.100 C 
BRANCH  26  28
ATOM     27  N   UNL     1      32.070  14.383   0.376  0.00  0.00    -0.134 NA
ATOM     28  C   UNL     1      30.836  14.467   0.951  0.00  0.00    +0.086 A 
ATOM     29  C   UNL     1      30.910  13.995   2.242  0.00  0.00    +0.139 A 
ATOM     30  N   UNL     1      32.227  13.638   2.415  0.00  0.00    -0.220 N 
ATOM     31  N   UNL     1      32.909  13.879   1.271  0.00  0.00    -0.061 NA
BRANCH  30  32
ATOM     32  C   UNL     1      32.857  13.092   3.564  0.00  0.00    +0.074 A 
ATOM     33  C   UNL     1      34.260  13.022   3.622  0.00  0.00    +0.032 A 
ATOM     34  C   UNL     1      34.904  12.480   4.742  0.00  0.00    +0.054 A 
ATOM     35  C   UNL     1      34.152  11.997   5.812  0.00  0.00    +0.195 A 
ATOM     36  C   UNL     1      32.762  12.068   5.748  0.00  0.00    +0.316 A 
ATOM     37  C   UNL     1      32.098  12.616   4.641  0.00  0.00    +0.116 A 
BRANCH  36  38
ATOM     38  N   UNL     1      31.952  11.565   6.840  0.00  0.00    +0.083 N 
ATOM     39  O   UNL     1      32.011  10.354   7.086  0.00  0.00    +0.042 OA
ATOM     40  O   UNL     1      31.190  12.377   7.386  0.00  0.00    -0.576 OA
ENDBRANCH  36  38
BRANCH  35  41
ATOM     41  O   UNL     1      34.779  11.488   6.909  0.00  0.00    -0.501 OA
ATOM     42  H   UNL     1      35.744  11.556   6.804  0.00  0.00    +0.292 HD
ENDBRANCH  35  41
ENDBRANCH  30  32
ENDBRANCH  26  28
ENDBRANCH  25  26
ENDBRANCH  24  25
ENDBRANCH   1  24
TORSDOF 13
