REMARK VINA RESULT:    -5.990      2.339      3.568
REMARK INTER + INTRA:         -12.433
REMARK INTER:                 -11.042
REMARK INTRA:                  -1.391
REMARK UNBOUND:                -1.716
REMARK  Name = lig_assembled_32.pdb
REMARK  14 active torsions:
REMARK  status: ('A' for Active; 'I' for Inactive)
REMARK    1  A    between atoms: _2  and  _8
REMARK    2  A    between atoms: _4  and  _9
REMARK    3  A    between atoms: _4  and  _10
REMARK    4  A    between atoms: _5  and  _6
REMARK    5  A    between atoms: _5  and  _12
REMARK    6  A    between atoms: _8  and  _9
REMARK    7  A    between atoms: _12  and  _14
REMARK    8  A    between atoms: _13  and  _18
REMARK    9  A    between atoms: _14  and  _17
REMARK   10  A    between atoms: _22  and  _32
REMARK   11  A    between atoms: _24  and  _25
REMARK   12  A    between atoms: _26  and  _28
REMARK   13  A    between atoms: _28  and  _30
REMARK   14  A    between atoms: _30  and  _32
REMARK                            x       y       z     vdW  Elec       q    Type
REMARK                         _______ _______ _______ _____ _____    ______ ____
ROOT
ATOM      1  C   UNL     1      29.052  15.125   0.068  0.00  0.00    +0.152 C 
ENDROOT
BRANCH   1   3
ATOM      2  C   UNL     1      27.842  17.391  -0.850  0.00  0.00    +0.400 C 
ATOM      3  N   UNL     1      28.521  16.477  -0.080  0.00  0.00    -0.278 N 
ATOM      4  H   UNL     1      28.738  17.021   0.815  0.00  0.00    +0.152 HD
ATOM      5  O   UNL     1      27.501  18.450  -0.328  0.00  0.00    -0.226 OA
BRANCH   2   6
ATOM      6  O   UNL     1      27.652  17.053  -2.083  0.00  0.00    -0.450 OA
BRANCH   6   7
ATOM      7  C   UNL     1      26.855  17.426  -3.183  0.00  0.00    +0.240 C 
BRANCH   7   8
ATOM      8  C   UNL     1      26.453  16.319  -4.177  0.00  0.00    +0.100 C 
BRANCH   8  10
ATOM      9  N   UNL     1      26.026  14.476  -2.582  0.00  0.00    -0.134 NA
ATOM     10  C   UNL     1      25.554  15.348  -3.527  0.00  0.00    +0.086 A 
ATOM     11  C   UNL     1      24.206  15.127  -3.709  0.00  0.00    +0.133 A 
ATOM     12  N   UNL     1      23.926  14.104  -2.857  0.00  0.00    -0.251 N 
ATOM     13  N   UNL     1      25.019  13.715  -2.180  0.00  0.00    -0.065 NA
BRANCH  12  14
ATOM     14  C   UNL     1      22.656  13.450  -2.628  0.00  0.00    +0.156 C 
BRANCH  14  15
ATOM     15  C   UNL     1      21.671  14.357  -1.903  0.00  0.00    +0.143 C 
BRANCH  15  16
ATOM     16  C   UNL     1      20.930  13.581  -0.853  0.00  0.00    +0.306 C 
ATOM     17  O   UNL     1      19.943  13.982  -0.256  0.00  0.00    -0.251 OA
BRANCH  16  18
ATOM     18  O   UNL     1      21.480  12.370  -0.615  0.00  0.00    -0.481 OA
ATOM     19  H   UNL     1      21.794  12.244   0.302  0.00  0.00    +0.295 HD
ENDBRANCH  16  18
ENDBRANCH  15  16
ENDBRANCH  14  15
ENDBRANCH  12  14
ENDBRANCH   8  10
ENDBRANCH   7   8
ENDBRANCH   6   7
ENDBRANCH   2   6
ENDBRANCH   1   3
BRANCH   1  20
ATOM     20  C   UNL     1      30.589  15.000   0.108  0.00  0.00    +0.193 C 
ATOM     21  O   UNL     1      31.046  15.831   1.198  0.00  0.00    -0.219 OA
BRANCH  20  22
ATOM     22  C   UNL     1      31.186  13.607   0.410  0.00  0.00    +0.212 C 
ATOM     23  O   UNL     1      32.319  13.352  -0.436  0.00  0.00    -0.218 OA
BRANCH  22  24
ATOM     24  C   UNL     1      31.629  13.431   1.913  0.00  0.00    +0.171 C 
ATOM     25  O   UNL     1      33.016  13.138   2.044  0.00  0.00    -0.343 OA
ATOM     26  C   UNL     1      33.621  12.699   3.224  0.00  0.00    +0.220 C 
ATOM     27  C   UNL     1      32.871  11.504   3.839  0.00  0.00    +0.076 C 
ATOM     28  C   UNL     1      31.394  11.908   3.980  0.00  0.00    +0.177 C 
ATOM     29  O   UNL     1      30.660  10.851   4.582  0.00  0.00    -0.221 OA
ATOM     30  C   UNL     1      30.804  12.284   2.585  0.00  0.00    +0.155 C 
BRANCH  30  31
ATOM     31  N   UNL     1      29.399  12.662   2.714  0.00  0.00    -0.202 NA
ATOM     32  C   UNL     1      28.289  12.060   2.215  0.00  0.00    +0.242 C 
ATOM     33  C   UNL     1      26.945  12.489   2.742  0.00  0.00    +0.096 C 
ATOM     34  O   UNL     1      28.405  11.189   1.355  0.00  0.00    -0.273 OA
ENDBRANCH  30  31
BRANCH  26  35
ATOM     35  C   UNL     1      33.852  13.882   4.312  0.00  0.00    +0.391 C 
ATOM     36  O   UNL     1      33.978  13.248   5.494  0.00  0.00    -0.243 OA
ATOM     37  O   UNL     1      34.128  14.985   3.606  0.00  0.00    -0.243 OA
ENDBRANCH  26  35
ENDBRANCH  22  24
ENDBRANCH  20  22
ENDBRANCH   1  20
TORSDOF 14
