REMARK VINA RESULT:    -6.245      3.358      8.717
REMARK INTER + INTRA:         -13.719
REMARK INTER:                 -11.661
REMARK INTRA:                  -2.058
REMARK UNBOUND:                -2.911
REMARK  Name = lig_assembled_23.pdb
REMARK  13 active torsions:
REMARK  status: ('A' for Active; 'I' for Inactive)
REMARK    1  A    between atoms: _2  and  _9
REMARK    2  A    between atoms: _3  and  _44
REMARK    3  A    between atoms: _6  and  _7
REMARK    4  A    between atoms: _6  and  _16
REMARK    5  A    between atoms: _11  and  _44
REMARK    6  A    between atoms: _16  and  _18
REMARK    7  A    between atoms: _17  and  _22
REMARK    8  A    between atoms: _18  and  _21
REMARK    9  A    between atoms: _26  and  _36
REMARK   10  A    between atoms: _28  and  _29
REMARK   11  A    between atoms: _30  and  _32
REMARK   12  A    between atoms: _32  and  _34
REMARK   13  A    between atoms: _34  and  _36
REMARK                            x       y       z     vdW  Elec       q    Type
REMARK                         _______ _______ _______ _____ _____    ______ ____
ROOT
ATOM      1  C   UNL     1      27.091  16.935  -2.527  0.00  0.00    +0.400 C 
ATOM      2  N   UNL     1      26.666  15.638  -2.362  0.00  0.00    -0.278 N 
ATOM      3  H   UNL     1      25.720  15.623  -2.858  0.00  0.00    +0.152 HD
ATOM      4  O   UNL     1      26.455  17.661  -3.288  0.00  0.00    -0.226 OA
ENDROOT
BRANCH   2   5
ATOM      5  C   UNL     1      26.929  14.300  -1.838  0.00  0.00    +0.152 C 
BRANCH   5   6
ATOM      6  C   UNL     1      25.975  13.185  -2.315  0.00  0.00    +0.193 C 
ATOM      7  O   UNL     1      26.458  12.749  -3.605  0.00  0.00    -0.219 OA
BRANCH   6   8
ATOM      8  C   UNL     1      25.909  11.892  -1.472  0.00  0.00    +0.212 C 
ATOM      9  O   UNL     1      26.943  10.979  -1.871  0.00  0.00    -0.218 OA
BRANCH   8  10
ATOM     10  C   UNL     1      26.036  12.151   0.078  0.00  0.00    +0.171 C 
ATOM     11  O   UNL     1      27.308  11.775   0.594  0.00  0.00    -0.343 OA
ATOM     12  C   UNL     1      27.607  11.668   1.954  0.00  0.00    +0.220 C 
ATOM     13  C   UNL     1      26.572  10.808   2.700  0.00  0.00    +0.076 C 
ATOM     14  C   UNL     1      25.181  11.383   2.386  0.00  0.00    +0.177 C 
ATOM     15  O   UNL     1      24.187  10.648   3.085  0.00  0.00    -0.221 OA
ATOM     16  C   UNL     1      24.925  11.362   0.847  0.00  0.00    +0.155 C 
BRANCH  16  17
ATOM     17  N   UNL     1      23.602  11.902   0.545  0.00  0.00    -0.202 NA
ATOM     18  C   UNL     1      22.505  11.280   0.042  0.00  0.00    +0.242 C 
ATOM     19  C   UNL     1      21.183  12.000   0.105  0.00  0.00    +0.096 C 
ATOM     20  O   UNL     1      22.614  10.157  -0.446  0.00  0.00    -0.273 OA
ENDBRANCH  16  17
BRANCH  12  21
ATOM     21  C   UNL     1      27.828  13.103   2.683  0.00  0.00    +0.391 C 
ATOM     22  O   UNL     1      27.896  13.996   1.677  0.00  0.00    -0.243 OA
ATOM     23  O   UNL     1      27.561  12.904   3.980  0.00  0.00    -0.243 OA
ENDBRANCH  12  21
ENDBRANCH   8  10
ENDBRANCH   6   8
ENDBRANCH   5   6
ENDBRANCH   2   5
BRANCH   1  24
ATOM     24  O   UNL     1      28.121  17.280  -1.826  0.00  0.00    -0.450 OA
BRANCH  24  25
ATOM     25  C   UNL     1      28.475  17.488  -0.479  0.00  0.00    +0.240 C 
BRANCH  25  26
ATOM     26  C   UNL     1      29.974  17.457  -0.125  0.00  0.00    +0.100 C 
BRANCH  26  28
ATOM     27  N   UNL     1      30.298  15.092  -0.769  0.00  0.00    -0.134 NA
ATOM     28  C   UNL     1      30.401  16.076   0.170  0.00  0.00    +0.086 A 
ATOM     29  C   UNL     1      30.932  15.545   1.322  0.00  0.00    +0.139 A 
ATOM     30  N   UNL     1      31.152  14.217   1.033  0.00  0.00    -0.220 N 
ATOM     31  N   UNL     1      30.752  13.966  -0.237  0.00  0.00    -0.061 NA
BRANCH  30  32
ATOM     32  C   UNL     1      31.689  13.201   1.863  0.00  0.00    +0.069 A 
ATOM     33  C   UNL     1      32.704  13.521   2.776  0.00  0.00    +0.056 A 
ATOM     34  C   UNL     1      33.261  12.513   3.571  0.00  0.00    +0.107 A 
ATOM     35  C   UNL     1      32.803  11.197   3.488  0.00  0.00    +0.028 A 
ATOM     36  C   UNL     1      31.783  10.883   2.591  0.00  0.00    +0.004 A 
ATOM     37  C   UNL     1      31.230  11.877   1.777  0.00  0.00    +0.028 A 
BRANCH  34  38
ATOM     38  S   UNL     1      34.580  12.924   4.675  0.00  0.00    +0.056 S 
ATOM     39  O   UNL     1      35.720  12.094   4.366  0.00  0.00    -0.153 OA
ATOM     40  O   UNL     1      34.669  14.360   4.796  0.00  0.00    -0.153 OA
BRANCH  38  41
ATOM     41  N   UNL     1      33.982  12.389   6.149  0.00  0.00    -0.204 NA
ATOM     42  H   UNL     1      34.255  11.419   6.306  0.00  0.00    +0.144 HD
ATOM     43  H   UNL     1      32.975  12.551   6.198  0.00  0.00    +0.144 HD
ENDBRANCH  38  41
ENDBRANCH  34  38
ENDBRANCH  30  32
ENDBRANCH  26  28
ENDBRANCH  25  26
ENDBRANCH  24  25
ENDBRANCH   1  24
TORSDOF 13
