REMARK VINA RESULT:    -5.639      3.164      8.852
REMARK INTER + INTRA:         -12.271
REMARK INTER:                  -9.832
REMARK INTRA:                  -2.439
REMARK UNBOUND:                -2.511
REMARK  Name = lig_assembled_1.pdb
REMARK  13 active torsions:
REMARK  status: ('A' for Active; 'I' for Inactive)
REMARK    1  A    between atoms: _2  and  _8
REMARK    2  A    between atoms: _4  and  _8
REMARK    3  A    between atoms: _4  and  _9
REMARK    4  A    between atoms: _5  and  _6
REMARK    5  A    between atoms: _5  and  _10
REMARK    6  A    between atoms: _10  and  _12
REMARK    7  A    between atoms: _11  and  _16
REMARK    8  A    between atoms: _12  and  _15
REMARK    9  A    between atoms: _20  and  _30
REMARK   10  A    between atoms: _22  and  _23
REMARK   11  A    between atoms: _24  and  _26
REMARK   12  A    between atoms: _26  and  _28
REMARK   13  A    between atoms: _28  and  _30
REMARK                            x       y       z     vdW  Elec       q    Type
REMARK                         _______ _______ _______ _____ _____    ______ ____
ROOT
ATOM      1  C   UNL     1      28.292  13.524  -2.121  0.00  0.00    +0.193 C 
ATOM      2  O   UNL     1      29.278  12.476  -1.995  0.00  0.00    -0.219 OA
ENDROOT
BRANCH   1   3
ATOM      3  C   UNL     1      27.112  12.857  -2.862  0.00  0.00    +0.212 C 
ATOM      4  O   UNL     1      27.308  11.436  -2.941  0.00  0.00    -0.218 OA
BRANCH   3   5
ATOM      5  C   UNL     1      25.714  13.136  -2.190  0.00  0.00    +0.171 C 
ATOM      6  O   UNL     1      24.908  11.967  -2.097  0.00  0.00    -0.343 OA
ATOM      7  C   UNL     1      23.549  11.970  -1.773  0.00  0.00    +0.220 C 
ATOM      8  C   UNL     1      22.759  12.968  -2.637  0.00  0.00    +0.076 C 
ATOM      9  C   UNL     1      23.455  14.334  -2.520  0.00  0.00    +0.177 C 
ATOM     10  O   UNL     1      22.740  15.305  -3.271  0.00  0.00    -0.221 OA
ATOM     11  C   UNL     1      24.936  14.225  -3.000  0.00  0.00    +0.155 C 
BRANCH  11  12
ATOM     12  N   UNL     1      25.600  15.522  -2.897  0.00  0.00    -0.202 NA
ATOM     13  C   UNL     1      26.140  16.300  -3.869  0.00  0.00    +0.242 C 
ATOM     14  C   UNL     1      26.497  17.724  -3.530  0.00  0.00    +0.096 C 
ATOM     15  O   UNL     1      26.322  15.831  -4.991  0.00  0.00    -0.273 OA
ENDBRANCH  11  12
BRANCH   7  16
ATOM     16  C   UNL     1      23.262  12.193  -0.189  0.00  0.00    +0.391 C 
ATOM     17  O   UNL     1      21.938  12.431  -0.106  0.00  0.00    -0.243 OA
ATOM     18  O   UNL     1      24.359  11.767   0.449  0.00  0.00    -0.243 OA
ENDBRANCH   7  16
ENDBRANCH   3   5
ENDBRANCH   1   3
BRANCH   1  19
ATOM     19  C   UNL     1      28.030  14.059  -0.698  0.00  0.00    +0.152 C 
BRANCH  19  21
ATOM     20  C   UNL     1      28.558  16.732  -0.547  0.00  0.00    +0.400 C 
ATOM     21  N   UNL     1      27.928  15.510  -0.565  0.00  0.00    -0.278 N 
ATOM     22  H   UNL     1      26.898  15.761  -0.427  0.00  0.00    +0.152 HD
ATOM     23  O   UNL     1      27.862  17.744  -0.571  0.00  0.00    -0.226 OA
BRANCH  20  24
ATOM     24  O   UNL     1      29.848  16.695  -0.475  0.00  0.00    -0.450 OA
BRANCH  24  25
ATOM     25  C   UNL     1      30.860  16.538   0.492  0.00  0.00    +0.240 C 
BRANCH  25  26
ATOM     26  C   UNL     1      31.242  15.101   0.895  0.00  0.00    +0.100 C 
BRANCH  26  28
ATOM     27  N   UNL     1      32.564  15.166  -1.198  0.00  0.00    -0.134 NA
ATOM     28  C   UNL     1      31.973  14.437  -0.200  0.00  0.00    +0.086 A 
ATOM     29  C   UNL     1      32.194  13.098  -0.430  0.00  0.00    +0.133 A 
ATOM     30  N   UNL     1      32.918  13.078  -1.584  0.00  0.00    -0.249 N 
ATOM     31  N   UNL     1      33.135  14.321  -2.046  0.00  0.00    -0.065 NA
BRANCH  30  32
ATOM     32  C   UNL     1      33.437  11.929  -2.291  0.00  0.00    +0.173 C 
BRANCH  32  33
ATOM     33  C   UNL     1      32.859  11.791  -3.694  0.00  0.00    +0.179 C 
BRANCH  33  34
ATOM     34  O   UNL     1      31.603  12.460  -3.802  0.00  0.00    -0.393 OA
ATOM     35  H   UNL     1      30.987  11.837  -4.232  0.00  0.00    +0.209 HD
ENDBRANCH  33  34
ENDBRANCH  32  33
ENDBRANCH  30  32
ENDBRANCH  26  28
ENDBRANCH  25  26
ENDBRANCH  24  25
ENDBRANCH  20  24
ENDBRANCH  19  21
ENDBRANCH   1  19
TORSDOF 13
