REMARK VINA RESULT:    -6.182      3.451      7.052
REMARK INTER + INTRA:         -12.156
REMARK INTER:                 -10.366
REMARK INTRA:                  -1.790
REMARK UNBOUND:                -1.999
REMARK  Name = lig_assembled_57.pdb
REMARK  12 active torsions:
REMARK  status: ('A' for Active; 'I' for Inactive)
REMARK    1  A    between atoms: _2  and  _9
REMARK    2  A    between atoms: _3  and  _12
REMARK    3  A    between atoms: _6  and  _7
REMARK    4  A    between atoms: _6  and  _14
REMARK    5  A    between atoms: _14  and  _16
REMARK    6  A    between atoms: _15  and  _20
REMARK    7  A    between atoms: _16  and  _19
REMARK    8  A    between atoms: _24  and  _34
REMARK    9  A    between atoms: _26  and  _27
REMARK   10  A    between atoms: _28  and  _30
REMARK   11  A    between atoms: _30  and  _32
REMARK   12  A    between atoms: _32  and  _34
REMARK                            x       y       z     vdW  Elec       q    Type
REMARK                         _______ _______ _______ _____ _____    ______ ____
ROOT
ATOM      1  C   UNL     1      28.193  16.986  -0.622  0.00  0.00    +0.400 C 
ATOM      2  N   UNL     1      28.610  15.903   0.115  0.00  0.00    -0.278 N 
ATOM      3  H   UNL     1      29.167  16.346   0.912  0.00  0.00    +0.152 HD
ATOM      4  O   UNL     1      28.366  18.108  -0.153  0.00  0.00    -0.226 OA
ENDROOT
BRANCH   1   5
ATOM      5  O   UNL     1      27.676  16.713  -1.776  0.00  0.00    -0.450 OA
BRANCH   5   6
ATOM      6  C   UNL     1      27.058  17.377  -2.853  0.00  0.00    +0.240 C 
BRANCH   6   7
ATOM      7  C   UNL     1      26.254  16.519  -3.850  0.00  0.00    +0.100 C 
BRANCH   7   9
ATOM      8  N   UNL     1      24.260  15.701  -2.644  0.00  0.00    -0.134 NA
ATOM      9  C   UNL     1      25.517  15.468  -3.128  0.00  0.00    +0.086 A 
ATOM     10  C   UNL     1      25.876  14.168  -2.840  0.00  0.00    +0.134 A 
ATOM     11  N   UNL     1      24.763  13.635  -2.260  0.00  0.00    -0.248 N 
ATOM     12  N   UNL     1      23.823  14.586  -2.081  0.00  0.00    -0.065 NA
BRANCH  11  13
ATOM     13  C   UNL     1      24.441  12.261  -1.892  0.00  0.00    +0.111 C 
ATOM     14  C   UNL     1      25.649  11.340  -2.116  0.00  0.00    +0.042 C 
ATOM     15  C   UNL     1      26.701  11.564  -1.033  0.00  0.00    +0.086 C 
ATOM     16  N   UNL     1      26.190  11.323   0.321  0.00  0.00    -0.305 NA
ATOM     17  C   UNL     1      24.987  12.104   0.613  0.00  0.00    +0.086 C 
ATOM     18  C   UNL     1      26.029   9.902   0.607  0.00  0.00    +0.104 C 
ATOM     19  C   UNL     1      23.899  12.048  -0.469  0.00  0.00    +0.042 C 
ENDBRANCH  11  13
ENDBRANCH   7   9
ENDBRANCH   6   7
ENDBRANCH   5   6
ENDBRANCH   1   5
BRANCH   2  20
ATOM     20  C   UNL     1      28.620  14.455   0.301  0.00  0.00    +0.152 C 
BRANCH  20  21
ATOM     21  C   UNL     1      29.981  13.755   0.110  0.00  0.00    +0.193 C 
ATOM     22  O   UNL     1      30.602  14.362  -1.044  0.00  0.00    -0.219 OA
BRANCH  21  23
ATOM     23  C   UNL     1      31.028  13.908   1.236  0.00  0.00    +0.212 C 
ATOM     24  O   UNL     1      30.824  15.140   1.946  0.00  0.00    -0.218 OA
BRANCH  23  25
ATOM     25  C   UNL     1      31.010  12.720   2.272  0.00  0.00    +0.171 C 
ATOM     26  O   UNL     1      29.695  12.402   2.717  0.00  0.00    -0.343 OA
ATOM     27  C   UNL     1      29.410  11.568   3.801  0.00  0.00    +0.220 C 
ATOM     28  C   UNL     1      30.200  11.976   5.057  0.00  0.00    +0.076 C 
ATOM     29  C   UNL     1      31.686  12.045   4.666  0.00  0.00    +0.177 C 
ATOM     30  O   UNL     1      32.468  12.380   5.804  0.00  0.00    -0.221 OA
ATOM     31  C   UNL     1      31.891  13.076   3.513  0.00  0.00    +0.155 C 
BRANCH  31  32
ATOM     32  N   UNL     1      33.303  13.150   3.144  0.00  0.00    -0.202 NA
ATOM     33  C   UNL     1      34.242  14.069   3.484  0.00  0.00    +0.242 C 
ATOM     34  C   UNL     1      35.688  13.749   3.210  0.00  0.00    +0.096 C 
ATOM     35  O   UNL     1      33.895  15.128   4.003  0.00  0.00    -0.273 OA
ENDBRANCH  31  32
BRANCH  27  36
ATOM     36  C   UNL     1      29.591   9.988   3.468  0.00  0.00    +0.391 C 
ATOM     37  O   UNL     1      29.646   9.384   4.671  0.00  0.00    -0.243 OA
ATOM     38  O   UNL     1      29.318   9.851   2.165  0.00  0.00    -0.243 OA
ENDBRANCH  27  36
ENDBRANCH  23  25
ENDBRANCH  21  23
ENDBRANCH  20  21
ENDBRANCH   2  20
TORSDOF 11
