REMARK VINA RESULT:    -7.260      1.748      2.364
REMARK INTER + INTRA:         -13.555
REMARK INTER:                 -12.075
REMARK INTRA:                  -1.480
REMARK UNBOUND:                -1.202
REMARK  Name = lig_assembled_38.pdb
REMARK  12 active torsions:
REMARK  status: ('A' for Active; 'I' for Inactive)
REMARK    1  A    between atoms: _2  and  _8
REMARK    2  A    between atoms: _5  and  _6
REMARK    3  A    between atoms: _5  and  _14
REMARK    4  A    between atoms: _8  and  _9
REMARK    5  A    between atoms: _14  and  _16
REMARK    6  A    between atoms: _15  and  _20
REMARK    7  A    between atoms: _16  and  _19
REMARK    8  A    between atoms: _24  and  _34
REMARK    9  A    between atoms: _26  and  _27
REMARK   10  A    between atoms: _28  and  _30
REMARK   11  A    between atoms: _30  and  _32
REMARK   12  A    between atoms: _32  and  _34
REMARK                            x       y       z     vdW  Elec       q    Type
REMARK                         _______ _______ _______ _____ _____    ______ ____
ROOT
ATOM      1  C   UNL     1      26.490  13.112  -0.624  0.00  0.00    +0.400 C 
ATOM      2  N   UNL     1      27.358  13.513   0.364  0.00  0.00    -0.278 N 
ATOM      3  H   UNL     1      27.032  12.961   1.219  0.00  0.00    +0.152 HD
ATOM      4  O   UNL     1      25.738  12.170  -0.388  0.00  0.00    -0.226 OA
ENDROOT
BRANCH   2   5
ATOM      5  C   UNL     1      28.508  14.324   0.756  0.00  0.00    +0.152 C 
BRANCH   5   6
ATOM      6  C   UNL     1      29.374  14.877  -0.394  0.00  0.00    +0.193 C 
ATOM      7  O   UNL     1      28.751  16.107  -0.828  0.00  0.00    -0.219 OA
BRANCH   6   8
ATOM      8  C   UNL     1      30.829  15.277  -0.066  0.00  0.00    +0.212 C 
ATOM      9  O   UNL     1      30.866  16.573   0.555  0.00  0.00    -0.218 OA
BRANCH   8  10
ATOM     10  C   UNL     1      31.562  14.247   0.876  0.00  0.00    +0.171 C 
ATOM     11  O   UNL     1      31.758  14.751   2.193  0.00  0.00    -0.343 OA
ATOM     12  C   UNL     1      32.584  14.157   3.149  0.00  0.00    +0.220 C 
ATOM     13  C   UNL     1      33.987  13.865   2.589  0.00  0.00    +0.076 C 
ATOM     14  C   UNL     1      33.809  13.055   1.295  0.00  0.00    +0.177 C 
ATOM     15  O   UNL     1      35.081  12.723   0.755  0.00  0.00    -0.221 OA
ATOM     16  C   UNL     1      32.951  13.860   0.270  0.00  0.00    +0.155 C 
BRANCH  16  17
ATOM     17  N   UNL     1      32.785  13.096  -0.964  0.00  0.00    -0.202 NA
ATOM     18  C   UNL     1      33.091  13.435  -2.242  0.00  0.00    +0.242 C 
ATOM     19  C   UNL     1      33.093  12.352  -3.289  0.00  0.00    +0.096 C 
ATOM     20  O   UNL     1      33.358  14.604  -2.513  0.00  0.00    -0.273 OA
ENDBRANCH  16  17
BRANCH  12  21
ATOM     21  C   UNL     1      31.931  12.840   3.840  0.00  0.00    +0.391 C 
ATOM     22  O   UNL     1      32.927  12.300   4.569  0.00  0.00    -0.243 OA
ATOM     23  O   UNL     1      30.608  12.954   3.676  0.00  0.00    -0.243 OA
ENDBRANCH  12  21
ENDBRANCH   8  10
ENDBRANCH   6   8
ENDBRANCH   5   6
ENDBRANCH   2   5
BRANCH   1  24
ATOM     24  O   UNL     1      26.530  13.801  -1.718  0.00  0.00    -0.450 OA
BRANCH  24  25
ATOM     25  C   UNL     1      25.782  13.975  -2.898  0.00  0.00    +0.240 C 
BRANCH  25  26
ATOM     26  C   UNL     1      24.980  15.282  -3.046  0.00  0.00    +0.100 C 
BRANCH  26  28
ATOM     27  N   UNL     1      22.545  15.550  -3.409  0.00  0.00    -0.134 NA
ATOM     28  C   UNL     1      23.575  15.071  -2.644  0.00  0.00    +0.086 A 
ATOM     29  C   UNL     1      23.058  14.395  -1.563  0.00  0.00    +0.134 A 
ATOM     30  N   UNL     1      21.707  14.449  -1.756  0.00  0.00    -0.247 N 
ATOM     31  N   UNL     1      21.404  15.156  -2.860  0.00  0.00    -0.065 NA
BRANCH  30  32
ATOM     32  C   UNL     1      20.684  13.670  -1.081  0.00  0.00    +0.180 C 
BRANCH  32  33
ATOM     33  C   UNL     1      21.107  12.253  -0.783  0.00  0.00    -0.025 A 
ATOM     34  C   UNL     1      21.221  11.303  -1.808  0.00  0.00    +0.005 A 
ATOM     35  C   UNL     1      21.699  10.017  -1.539  0.00  0.00    +0.001 A 
ATOM     36  C   UNL     1      22.068   9.665  -0.241  0.00  0.00    +0.015 A 
ATOM     37  C   UNL     1      21.947  10.598   0.785  0.00  0.00    +0.018 A 
ATOM     38 BR   UNL     1      22.455  10.129   2.545  0.00  0.00    -0.050 Br
ATOM     39  C   UNL     1      21.471  11.885   0.523  0.00  0.00    +0.020 A 
ENDBRANCH  32  33
ENDBRANCH  30  32
ENDBRANCH  26  28
ENDBRANCH  25  26
ENDBRANCH  24  25
ENDBRANCH   1  24
TORSDOF 12
