REMARK VINA RESULT:    -7.449      1.575      2.626
REMARK INTER + INTRA:         -15.135
REMARK INTER:                 -13.646
REMARK INTRA:                  -1.489
REMARK UNBOUND:                -1.807
REMARK  Name = lig_assembled_75.pdb
REMARK  14 active torsions:
REMARK  status: ('A' for Active; 'I' for Inactive)
REMARK    1  A    between atoms: _2  and  _8
REMARK    2  A    between atoms: _5  and  _6
REMARK    3  A    between atoms: _5  and  _18
REMARK    4  A    between atoms: _10  and  _11
REMARK    5  A    between atoms: _12  and  _13
REMARK    6  A    between atoms: _13  and  _16
REMARK    7  A    between atoms: _18  and  _20
REMARK    8  A    between atoms: _19  and  _24
REMARK    9  A    between atoms: _20  and  _23
REMARK   10  A    between atoms: _28  and  _38
REMARK   11  A    between atoms: _30  and  _31
REMARK   12  A    between atoms: _32  and  _34
REMARK   13  A    between atoms: _34  and  _36
REMARK   14  A    between atoms: _36  and  _38
REMARK                            x       y       z     vdW  Elec       q    Type
REMARK                         _______ _______ _______ _____ _____    ______ ____
ROOT
ATOM      1  C   UNL     1      28.097  17.289  -0.705  0.00  0.00    +0.400 C 
ATOM      2  N   UNL     1      28.981  16.441  -0.080  0.00  0.00    -0.278 N 
ATOM      3  H   UNL     1      29.133  16.901   0.873  0.00  0.00    +0.152 HD
ATOM      4  O   UNL     1      27.581  18.182  -0.038  0.00  0.00    -0.226 OA
ENDROOT
BRANCH   2   5
ATOM      5  C   UNL     1      29.776  15.217  -0.127  0.00  0.00    +0.152 C 
BRANCH   5   6
ATOM      6  C   UNL     1      31.242  15.340   0.337  0.00  0.00    +0.193 C 
ATOM      7  O   UNL     1      31.206  15.699   1.736  0.00  0.00    -0.219 OA
BRANCH   6   8
ATOM      8  C   UNL     1      32.117  14.068   0.289  0.00  0.00    +0.212 C 
ATOM      9  O   UNL     1      33.373  14.346  -0.351  0.00  0.00    -0.218 OA
BRANCH   8  10
ATOM     10  C   UNL     1      32.401  13.451   1.711  0.00  0.00    +0.171 C 
ATOM     11  O   UNL     1      33.792  13.377   2.008  0.00  0.00    -0.343 OA
ATOM     12  C   UNL     1      34.333  12.661   3.078  0.00  0.00    +0.220 C 
ATOM     13  C   UNL     1      33.808  11.215   3.121  0.00  0.00    +0.076 C 
ATOM     14  C   UNL     1      32.271  11.280   3.095  0.00  0.00    +0.177 C 
ATOM     15  O   UNL     1      31.733   9.968   3.173  0.00  0.00    -0.221 OA
ATOM     16  C   UNL     1      31.786  12.017   1.808  0.00  0.00    +0.155 C 
BRANCH  16  17
ATOM     17  N   UNL     1      30.327  12.074   1.776  0.00  0.00    -0.202 NA
ATOM     18  C   UNL     1      29.464  12.687   2.626  0.00  0.00    +0.242 C 
ATOM     19  C   UNL     1      28.027  12.839   2.200  0.00  0.00    +0.096 C 
ATOM     20  O   UNL     1      29.870  13.100   3.711  0.00  0.00    -0.273 OA
ENDBRANCH  16  17
BRANCH  12  21
ATOM     21  C   UNL     1      34.151  13.404   4.511  0.00  0.00    +0.391 C 
ATOM     22  O   UNL     1      34.304  12.431   5.430  0.00  0.00    -0.243 OA
ATOM     23  O   UNL     1      34.221  14.717   4.259  0.00  0.00    -0.243 OA
ENDBRANCH  12  21
ENDBRANCH   8  10
ENDBRANCH   6   8
ENDBRANCH   5   6
ENDBRANCH   2   5
BRANCH   1  24
ATOM     24  O   UNL     1      27.915  17.076  -1.967  0.00  0.00    -0.450 OA
BRANCH  24  25
ATOM     25  C   UNL     1      27.042  17.467  -3.001  0.00  0.00    +0.240 C 
BRANCH  25  26
ATOM     26  C   UNL     1      26.552  16.373  -3.969  0.00  0.00    +0.100 C 
BRANCH  26  28
ATOM     27  N   UNL     1      26.249  14.138  -2.953  0.00  0.00    -0.134 NA
ATOM     28  C   UNL     1      25.746  15.372  -3.245  0.00  0.00    +0.086 A 
ATOM     29  C   UNL     1      24.459  15.458  -2.768  0.00  0.00    +0.139 A 
ATOM     30  N   UNL     1      24.213  14.236  -2.184  0.00  0.00    -0.220 N 
ATOM     31  N   UNL     1      25.314  13.453  -2.311  0.00  0.00    -0.061 NA
BRANCH  30  32
ATOM     32  C   UNL     1      23.029  13.769  -1.560  0.00  0.00    +0.068 A 
ATOM     33  C   UNL     1      23.108  12.707  -0.641  0.00  0.00    +0.035 A 
ATOM     34  C   UNL     1      21.950  12.177  -0.055  0.00  0.00    -0.023 A 
ATOM     35  C   UNL     1      20.714  12.766  -0.352  0.00  0.00    +0.008 A 
ATOM     36  C   UNL     1      20.633  13.836  -1.247  0.00  0.00    +0.003 A 
ATOM     37  C   UNL     1      21.783  14.333  -1.858  0.00  0.00    +0.028 A 
BRANCH  34  38
ATOM     38  C   UNL     1      21.985  11.037   0.874  0.00  0.00    +0.015 C 
ATOM     39  C   UNL     1      22.826  10.952   1.917  0.00  0.00    +0.092 C 
BRANCH  39  40
ATOM     40  C   UNL     1      22.821   9.741   2.763  0.00  0.00    +0.330 C 
ATOM     41  O   UNL     1      21.837   9.288   3.319  0.00  0.00    -0.246 OA
BRANCH  40  42
ATOM     42  O   UNL     1      24.043   9.178   2.842  0.00  0.00    -0.478 OA
ATOM     43  H   UNL     1      24.651   9.577   3.490  0.00  0.00    +0.295 HD
ENDBRANCH  40  42
ENDBRANCH  39  40
ENDBRANCH  34  38
ENDBRANCH  30  32
ENDBRANCH  26  28
ENDBRANCH  25  26
ENDBRANCH  24  25
ENDBRANCH   1  24
TORSDOF 14
