REMARK VINA RESULT:    -6.976      1.665      2.679
REMARK INTER + INTRA:         -14.169
REMARK INTER:                 -12.518
REMARK INTRA:                  -1.651
REMARK UNBOUND:                -2.096
REMARK  Name = lig_assembled_88.pdb
REMARK  13 active torsions:
REMARK  status: ('A' for Active; 'I' for Inactive)
REMARK    1  A    between atoms: _2  and  _8
REMARK    2  A    between atoms: _4  and  _14
REMARK    3  A    between atoms: _5  and  _6
REMARK    4  A    between atoms: _5  and  _15
REMARK    5  A    between atoms: _8  and  _9
REMARK    6  A    between atoms: _15  and  _17
REMARK    7  A    between atoms: _16  and  _21
REMARK    8  A    between atoms: _17  and  _20
REMARK    9  A    between atoms: _25  and  _35
REMARK   10  A    between atoms: _27  and  _28
REMARK   11  A    between atoms: _29  and  _31
REMARK   12  A    between atoms: _31  and  _33
REMARK   13  A    between atoms: _33  and  _35
REMARK                            x       y       z     vdW  Elec       q    Type
REMARK                         _______ _______ _______ _____ _____    ______ ____
ROOT
ATOM      1  C   UNL     1      29.217  17.233  -0.349  0.00  0.00    +0.400 C 
ATOM      2  N   UNL     1      29.516  16.035   0.256  0.00  0.00    -0.278 N 
ATOM      3  H   UNL     1      30.242  16.305   0.992  0.00  0.00    +0.152 HD
ATOM      4  O   UNL     1      29.653  18.263   0.159  0.00  0.00    -0.226 OA
ENDROOT
BRANCH   1   5
ATOM      5  O   UNL     1      28.517  17.154  -1.433  0.00  0.00    -0.450 OA
BRANCH   5   6
ATOM      6  C   UNL     1      27.273  17.584  -1.935  0.00  0.00    +0.240 C 
BRANCH   6   7
ATOM      7  C   UNL     1      26.996  17.359  -3.434  0.00  0.00    +0.100 C 
BRANCH   7   9
ATOM      8  N   UNL     1      26.819  14.889  -3.460  0.00  0.00    -0.134 NA
ATOM      9  C   UNL     1      26.231  16.114  -3.636  0.00  0.00    +0.086 A 
ATOM     10  C   UNL     1      24.921  15.934  -4.020  0.00  0.00    +0.134 A 
ATOM     11  N   UNL     1      24.797  14.579  -4.134  0.00  0.00    -0.247 N 
ATOM     12  N   UNL     1      25.925  13.953  -3.746  0.00  0.00    -0.065 NA
BRANCH  11  13
ATOM     13  C   UNL     1      23.675  13.822  -4.664  0.00  0.00    +0.184 C 
BRANCH  13  14
ATOM     14  C   UNL     1      22.442  13.886  -3.784  0.00  0.00    +0.017 A 
ATOM     15  C   UNL     1      22.360  13.217  -2.548  0.00  0.00    +0.024 A 
ATOM     16  C   UNL     1      21.208  13.299  -1.763  0.00  0.00    +0.019 A 
ATOM     17 BR   UNL     1      21.116  12.346  -0.132  0.00  0.00    -0.050 Br
ATOM     18  C   UNL     1      20.123  14.071  -2.168  0.00  0.00    +0.034 A 
ATOM     19  C   UNL     1      20.208  14.777  -3.365  0.00  0.00    +0.061 A 
ATOM     20 BR   UNL     1      18.742  15.857  -3.895  0.00  0.00    -0.046 Br
ATOM     21  C   UNL     1      21.357  14.689  -4.163  0.00  0.00    +0.136 A 
BRANCH  21  22
ATOM     22  O   UNL     1      21.456  15.392  -5.334  0.00  0.00    -0.505 OA
ATOM     23  H   UNL     1      21.296  16.333  -5.129  0.00  0.00    +0.292 HD
ENDBRANCH  21  22
ENDBRANCH  13  14
ENDBRANCH  11  13
ENDBRANCH   7   9
ENDBRANCH   6   7
ENDBRANCH   5   6
ENDBRANCH   1   5
BRANCH   2  24
ATOM     24  C   UNL     1      29.282  14.597   0.351  0.00  0.00    +0.152 C 
BRANCH  24  25
ATOM     25  C   UNL     1      30.525  13.695   0.212  0.00  0.00    +0.193 C 
ATOM     26  O   UNL     1      31.210  14.115  -0.988  0.00  0.00    -0.219 OA
BRANCH  25  27
ATOM     27  C   UNL     1      31.599  13.782   1.319  0.00  0.00    +0.212 C 
ATOM     28  O   UNL     1      31.548  15.062   1.968  0.00  0.00    -0.218 OA
BRANCH  27  29
ATOM     29  C   UNL     1      31.460  12.656   2.414  0.00  0.00    +0.171 C 
ATOM     30  O   UNL     1      30.152  12.594   2.973  0.00  0.00    -0.343 OA
ATOM     31  C   UNL     1      29.818  11.867   4.117  0.00  0.00    +0.220 C 
ATOM     32  C   UNL     1      30.770  12.173   5.287  0.00  0.00    +0.076 C 
ATOM     33  C   UNL     1      32.206  11.961   4.781  0.00  0.00    +0.177 C 
ATOM     34  O   UNL     1      33.128  12.193   5.837  0.00  0.00    -0.221 OA
ATOM     35  C   UNL     1      32.492  12.895   3.564  0.00  0.00    +0.155 C 
BRANCH  35  36
ATOM     36  N   UNL     1      33.858  12.701   3.086  0.00  0.00    -0.202 NA
ATOM     37  C   UNL     1      34.920  13.546   3.127  0.00  0.00    +0.242 C 
ATOM     38  C   UNL     1      36.288  12.989   2.832  0.00  0.00    +0.096 C 
ATOM     39  O   UNL     1      34.744  14.731   3.404  0.00  0.00    -0.273 OA
ENDBRANCH  35  36
BRANCH  31  40
ATOM     40  C   UNL     1      29.691  10.269   3.854  0.00  0.00    +0.391 C 
ATOM     41  O   UNL     1      29.711   9.712   5.081  0.00  0.00    -0.243 OA
ATOM     42  O   UNL     1      29.317  10.133   2.576  0.00  0.00    -0.243 OA
ENDBRANCH  31  40
ENDBRANCH  27  29
ENDBRANCH  25  27
ENDBRANCH  24  25
ENDBRANCH   2  24
TORSDOF 13
