REMARK VINA RESULT:    -7.108      1.609      3.056
REMARK INTER + INTRA:         -13.808
REMARK INTER:                 -12.337
REMARK INTRA:                  -1.471
REMARK UNBOUND:                -2.544
REMARK  Name = lig_assembled_65.pdb
REMARK  11 active torsions:
REMARK  status: ('A' for Active; 'I' for Inactive)
REMARK    1  A    between atoms: _8  and  _14
REMARK    2  A    between atoms: _9  and  _10
REMARK    3  A    between atoms: _9  and  _15
REMARK    4  A    between atoms: _15  and  _17
REMARK    5  A    between atoms: _16  and  _21
REMARK    6  A    between atoms: _17  and  _20
REMARK    7  A    between atoms: _25  and  _35
REMARK    8  A    between atoms: _27  and  _28
REMARK    9  A    between atoms: _29  and  _31
REMARK   10  A    between atoms: _31  and  _33
REMARK   11  A    between atoms: _33  and  _35
REMARK                            x       y       z     vdW  Elec       q    Type
REMARK                         _______ _______ _______ _____ _____    ______ ____
ROOT
ATOM      1  C   UNL     1      28.234  17.223  -0.721  0.00  0.00    +0.400 C 
ATOM      2  N   UNL     1      28.961  16.201  -0.158  0.00  0.00    -0.278 N 
ATOM      3  H   UNL     1      29.163  16.556   0.830  0.00  0.00    +0.152 HD
ATOM      4  O   UNL     1      27.851  18.133   0.010  0.00  0.00    -0.226 OA
ENDROOT
BRANCH   1   5
ATOM      5  O   UNL     1      28.047  17.141  -1.997  0.00  0.00    -0.450 OA
BRANCH   5   6
ATOM      6  C   UNL     1      27.027  17.356  -2.944  0.00  0.00    +0.240 C 
BRANCH   6   7
ATOM      7  C   UNL     1      26.561  16.145  -3.775  0.00  0.00    +0.100 C 
BRANCH   7   9
ATOM      8  N   UNL     1      26.451  14.233  -2.205  0.00  0.00    -0.134 NA
ATOM      9  C   UNL     1      25.809  15.199  -2.928  0.00  0.00    +0.087 A 
ATOM     10  C   UNL     1      24.456  15.096  -2.712  0.00  0.00    +0.146 A 
ATOM     11  N   UNL     1      24.315  14.034  -1.845  0.00  0.00    -0.155 N 
ATOM     12  C   UNL     1      23.098  13.505  -1.323  0.00  0.00    +0.416 C 
ATOM     13  N   UNL     1      23.160  12.463  -0.484  0.00  0.00    +0.041 NA
ATOM     14  C   UNL     1      21.983  12.016  -0.052  0.00  0.00    +0.339 C 
ATOM     15  C   UNL     1      21.986  10.843   0.878  0.00  0.00    +0.149 C 
ATOM     16  N   UNL     1      20.804  12.532  -0.401  0.00  0.00    +0.007 NA
ATOM     17  C   UNL     1      20.853  13.550  -1.245  0.00  0.00    +0.386 C 
ATOM     18  N   UNL     1      19.654  14.105  -1.640  0.00  0.00    -0.296 N 
ATOM     19  H   UNL     1      18.927  13.902  -0.969  0.00  0.00    +0.148 HD
ATOM     20  H   UNL     1      19.772  15.068  -1.923  0.00  0.00    +0.148 HD
ATOM     21  N   UNL     1      21.960  14.092  -1.721  0.00  0.00    -0.290 NA
ATOM     22  N   UNL     1      25.539  13.529  -1.544  0.00  0.00    -0.056 NA
ENDBRANCH   7   9
ENDBRANCH   6   7
ENDBRANCH   5   6
ENDBRANCH   1   5
BRANCH   2  23
ATOM     23  C   UNL     1      29.554  14.874  -0.296  0.00  0.00    +0.152 C 
BRANCH  23  24
ATOM     24  C   UNL     1      31.082  14.789  -0.104  0.00  0.00    +0.193 C 
ATOM     25  O   UNL     1      31.636  16.011  -0.639  0.00  0.00    -0.219 OA
BRANCH  24  26
ATOM     26  C   UNL     1      31.619  14.724   1.343  0.00  0.00    +0.212 C 
ATOM     27  O   UNL     1      31.076  15.798   2.128  0.00  0.00    -0.218 OA
BRANCH  26  28
ATOM     28  C   UNL     1      31.300  13.360   2.066  0.00  0.00    +0.171 C 
ATOM     29  O   UNL     1      29.930  13.242   2.435  0.00  0.00    -0.343 OA
ATOM     30  C   UNL     1      29.426  12.261   3.292  0.00  0.00    +0.220 C 
ATOM     31  C   UNL     1      30.231  12.179   4.601  0.00  0.00    +0.076 C 
ATOM     32  C   UNL     1      31.712  12.010   4.223  0.00  0.00    +0.177 C 
ATOM     33  O   UNL     1      32.498  11.889   5.400  0.00  0.00    -0.221 OA
ATOM     34  C   UNL     1      32.184  13.212   3.348  0.00  0.00    +0.155 C 
BRANCH  34  35
ATOM     35  N   UNL     1      33.593  13.059   2.993  0.00  0.00    -0.202 NA
ATOM     36  C   UNL     1      34.675  13.760   3.415  0.00  0.00    +0.242 C 
ATOM     37  C   UNL     1      36.045  13.207   3.121  0.00  0.00    +0.096 C 
ATOM     38  O   UNL     1      34.515  14.818   4.021  0.00  0.00    -0.273 OA
ENDBRANCH  34  35
BRANCH  30  39
ATOM     39  C   UNL     1      29.277  10.804   2.591  0.00  0.00    +0.391 C 
ATOM     40  O   UNL     1      29.113   9.941   3.613  0.00  0.00    -0.243 OA
ATOM     41  O   UNL     1      29.072  11.039   1.289  0.00  0.00    -0.243 OA
ENDBRANCH  30  39
ENDBRANCH  26  28
ENDBRANCH  24  26
ENDBRANCH  23  24
ENDBRANCH   2  23
TORSDOF 10
