REMARK VINA RESULT:    -7.487      2.934      4.587
REMARK INTER + INTRA:         -13.899
REMARK INTER:                 -12.011
REMARK INTRA:                  -1.888
REMARK UNBOUND:                -1.598
REMARK  Name = lig_assembled_80.pdb
REMARK  11 active torsions:
REMARK  status: ('A' for Active; 'I' for Inactive)
REMARK    1  A    between atoms: _2  and  _9
REMARK    2  A    between atoms: _6  and  _7
REMARK    3  A    between atoms: _6  and  _19
REMARK    4  A    between atoms: _19  and  _21
REMARK    5  A    between atoms: _20  and  _25
REMARK    6  A    between atoms: _21  and  _24
REMARK    7  A    between atoms: _29  and  _39
REMARK    8  A    between atoms: _31  and  _32
REMARK    9  A    between atoms: _33  and  _35
REMARK   10  A    between atoms: _35  and  _37
REMARK   11  A    between atoms: _37  and  _39
REMARK                            x       y       z     vdW  Elec       q    Type
REMARK                         _______ _______ _______ _____ _____    ______ ____
ROOT
ATOM      1  C   UNL     1      33.036  13.420  -4.333  0.00  0.00    +0.400 C 
ATOM      2  N   UNL     1      33.772  13.201  -3.193  0.00  0.00    -0.278 N 
ATOM      3  H   UNL     1      34.625  13.831  -3.324  0.00  0.00    +0.152 HD
ATOM      4  O   UNL     1      33.382  14.333  -5.079  0.00  0.00    -0.226 OA
ENDROOT
BRANCH   1   5
ATOM      5  O   UNL     1      32.050  12.607  -4.528  0.00  0.00    -0.450 OA
BRANCH   5   6
ATOM      6  C   UNL     1      30.957  12.444  -5.401  0.00  0.00    +0.240 C 
BRANCH   6   7
ATOM      7  C   UNL     1      29.965  11.306  -5.093  0.00  0.00    +0.100 C 
BRANCH   7   9
ATOM      8  N   UNL     1      27.577  11.836  -5.384  0.00  0.00    -0.134 NA
ATOM      9  C   UNL     1      28.690  11.855  -4.590  0.00  0.00    +0.086 A 
ATOM     10  C   UNL     1      28.378  12.422  -3.374  0.00  0.00    +0.134 A 
ATOM     11  N   UNL     1      27.065  12.783  -3.512  0.00  0.00    -0.240 N 
ATOM     12  N   UNL     1      26.579  12.393  -4.711  0.00  0.00    -0.065 NA
BRANCH  11  13
ATOM     13  C   UNL     1      26.135  13.337  -2.521  0.00  0.00    +0.195 C 
ATOM     14  C   UNL     1      25.043  14.100  -3.258  0.00  0.00    +0.041 C 
ATOM     15  C   UNL     1      24.220  14.935  -2.301  0.00  0.00    +0.039 C 
ATOM     16  C   UNL     1      23.135  14.097  -1.698  0.00  0.00    -0.026 A 
ATOM     17  C   UNL     1      23.400  13.007  -0.868  0.00  0.00    +0.037 A 
ATOM     18  C   UNL     1      22.329  12.345  -0.244  0.00  0.00    +0.023 A 
ATOM     19  C   UNL     1      21.008  12.681  -0.532  0.00  0.00    +0.002 A 
ATOM     20  C   UNL     1      20.741  13.717  -1.416  0.00  0.00    +0.000 A 
ATOM     21  N   UNL     1      24.663  12.433  -0.646  0.00  0.00    -0.284 N 
ATOM     22  H   UNL     1      24.669  11.661   0.012  0.00  0.00    +0.155 HD
ATOM     23  C   UNL     1      21.796  14.436  -1.974  0.00  0.00    +0.005 A 
ATOM     24  C   UNL     1      25.718  12.284  -1.501  0.00  0.00    +0.242 C 
ATOM     25  O   UNL     1      26.393  11.265  -1.313  0.00  0.00    -0.273 OA
ENDBRANCH  11  13
ENDBRANCH   7   9
ENDBRANCH   6   7
ENDBRANCH   5   6
ENDBRANCH   1   5
BRANCH   2  26
ATOM     26  C   UNL     1      33.901  12.521  -1.907  0.00  0.00    +0.152 C 
BRANCH  26  27
ATOM     27  C   UNL     1      33.683  13.392  -0.652  0.00  0.00    +0.193 C 
ATOM     28  O   UNL     1      34.662  14.454  -0.709  0.00  0.00    -0.219 OA
BRANCH  27  29
ATOM     29  C   UNL     1      32.329  14.123  -0.516  0.00  0.00    +0.212 C 
ATOM     30  O   UNL     1      31.408  13.665  -1.519  0.00  0.00    -0.218 OA
BRANCH  29  31
ATOM     31  C   UNL     1      31.662  13.942   0.901  0.00  0.00    +0.171 C 
ATOM     32  O   UNL     1      31.884  12.647   1.449  0.00  0.00    -0.343 OA
ATOM     33  C   UNL     1      31.214  12.138   2.564  0.00  0.00    +0.220 C 
ATOM     34  C   UNL     1      29.689  12.291   2.432  0.00  0.00    +0.076 C 
ATOM     35  C   UNL     1      29.398  13.769   2.120  0.00  0.00    +0.177 C 
ATOM     36  O   UNL     1      27.995  13.974   2.027  0.00  0.00    -0.221 OA
ATOM     37  C   UNL     1      30.122  14.194   0.805  0.00  0.00    +0.155 C 
BRANCH  37  38
ATOM     38  N   UNL     1      29.842  15.595   0.502  0.00  0.00    -0.202 NA
ATOM     39  C   UNL     1      29.012  16.133  -0.428  0.00  0.00    +0.242 C 
ATOM     40  C   UNL     1      28.686  17.601  -0.332  0.00  0.00    +0.096 C 
ATOM     41  O   UNL     1      28.549  15.419  -1.315  0.00  0.00    -0.273 OA
ENDBRANCH  37  38
BRANCH  33  42
ATOM     42  C   UNL     1      31.754  12.738   3.974  0.00  0.00    +0.391 C 
ATOM     43  O   UNL     1      32.842  13.462   3.649  0.00  0.00    -0.243 OA
ATOM     44  O   UNL     1      30.769  12.544   4.860  0.00  0.00    -0.243 OA
ENDBRANCH  33  42
ENDBRANCH  29  31
ENDBRANCH  27  29
ENDBRANCH  26  27
ENDBRANCH   2  26
TORSDOF 11
