REMARK VINA RESULT:    -7.325      1.988      3.672
REMARK INTER + INTRA:         -15.608
REMARK INTER:                 -13.250
REMARK INTRA:                  -2.358
REMARK UNBOUND:                -1.860
REMARK  Name = lig_assembled_37.pdb
REMARK  16 active torsions:
REMARK  status: ('A' for Active; 'I' for Inactive)
REMARK    1  A    between atoms: _2  and  _8
REMARK    2  A    between atoms: _5  and  _6
REMARK    3  A    between atoms: _5  and  _19
REMARK    4  A    between atoms: _8  and  _9
REMARK    5  A    between atoms: _8  and  _10
REMARK    6  A    between atoms: _10  and  _17
REMARK    7  A    between atoms: _11  and  _12
REMARK    8  A    between atoms: _11  and  _17
REMARK    9  A    between atoms: _19  and  _21
REMARK   10  A    between atoms: _20  and  _25
REMARK   11  A    between atoms: _21  and  _24
REMARK   12  A    between atoms: _29  and  _39
REMARK   13  A    between atoms: _31  and  _32
REMARK   14  A    between atoms: _33  and  _35
REMARK   15  A    between atoms: _35  and  _37
REMARK   16  A    between atoms: _37  and  _39
REMARK                            x       y       z     vdW  Elec       q    Type
REMARK                         _______ _______ _______ _____ _____    ______ ____
ROOT
ATOM      1  C   UNL     1      29.045  17.141  -0.389  0.00  0.00    +0.400 C 
ATOM      2  N   UNL     1      28.824  15.890   0.137  0.00  0.00    -0.278 N 
ATOM      3  H   UNL     1      29.501  15.846   0.963  0.00  0.00    +0.152 HD
ATOM      4  O   UNL     1      29.750  17.920   0.248  0.00  0.00    -0.226 OA
ENDROOT
BRANCH   2   5
ATOM      5  C   UNL     1      28.086  14.631   0.083  0.00  0.00    +0.152 C 
BRANCH   5   6
ATOM      6  C   UNL     1      28.294  13.670   1.272  0.00  0.00    +0.193 C 
ATOM      7  O   UNL     1      27.045  12.970   1.464  0.00  0.00    -0.219 OA
BRANCH   6   8
ATOM      8  C   UNL     1      29.343  12.548   1.110  0.00  0.00    +0.212 C 
ATOM      9  O   UNL     1      29.047  11.746  -0.044  0.00  0.00    -0.218 OA
BRANCH   8  10
ATOM     10  C   UNL     1      30.819  13.088   0.984  0.00  0.00    +0.171 C 
ATOM     11  O   UNL     1      31.316  13.015  -0.349  0.00  0.00    -0.343 OA
ATOM     12  C   UNL     1      32.656  13.193  -0.701  0.00  0.00    +0.220 C 
ATOM     13  C   UNL     1      33.592  12.322   0.155  0.00  0.00    +0.076 C 
ATOM     14  C   UNL     1      33.267  12.605   1.631  0.00  0.00    +0.177 C 
ATOM     15  O   UNL     1      34.134  11.852   2.468  0.00  0.00    -0.221 OA
ATOM     16  C   UNL     1      31.770  12.277   1.924  0.00  0.00    +0.155 C 
BRANCH  16  17
ATOM     17  N   UNL     1      31.459  12.538   3.327  0.00  0.00    -0.202 NA
ATOM     18  C   UNL     1      30.996  11.695   4.285  0.00  0.00    +0.242 C 
ATOM     19  C   UNL     1      31.041  12.149   5.720  0.00  0.00    +0.096 C 
ATOM     20  O   UNL     1      30.556  10.593   3.963  0.00  0.00    -0.273 OA
ENDBRANCH  16  17
BRANCH  12  21
ATOM     21  C   UNL     1      33.124  14.749  -0.700  0.00  0.00    +0.391 C 
ATOM     22  O   UNL     1      34.460  14.711  -0.869  0.00  0.00    -0.243 OA
ATOM     23  O   UNL     1      32.004  15.472  -0.835  0.00  0.00    -0.243 OA
ENDBRANCH  12  21
ENDBRANCH   8  10
ENDBRANCH   6   8
ENDBRANCH   5   6
ENDBRANCH   2   5
BRANCH   1  24
ATOM     24  O   UNL     1      28.503  17.368  -1.540  0.00  0.00    -0.450 OA
BRANCH  24  25
ATOM     25  C   UNL     1      27.253  17.730  -2.080  0.00  0.00    +0.240 C 
BRANCH  25  26
ATOM     26  C   UNL     1      26.989  17.382  -3.557  0.00  0.00    +0.100 C 
BRANCH  26  28
ATOM     27  N   UNL     1      25.692  15.727  -4.868  0.00  0.00    -0.134 NA
ATOM     28  C   UNL     1      26.146  16.177  -3.658  0.00  0.00    +0.086 A 
ATOM     29  C   UNL     1      25.688  15.338  -2.666  0.00  0.00    +0.134 A 
ATOM     30  N   UNL     1      24.938  14.414  -3.333  0.00  0.00    -0.238 N 
ATOM     31  N   UNL     1      24.959  14.641  -4.660  0.00  0.00    -0.065 NA
BRANCH  30  32
ATOM     32  C   UNL     1      24.232  13.257  -2.817  0.00  0.00    +0.214 C 
ATOM     33  C   UNL     1      24.650  12.942  -1.381  0.00  0.00    +0.045 C 
BRANCH  32  34
ATOM     34  C   UNL     1      22.734  13.453  -2.894  0.00  0.00    +0.332 C 
ATOM     35  O   UNL     1      22.074  13.303  -3.917  0.00  0.00    -0.248 OA
BRANCH  34  36
ATOM     36  O   UNL     1      22.224  13.816  -1.686  0.00  0.00    -0.458 OA
BRANCH  36  37
ATOM     37  C   UNL     1      21.049  13.109  -1.258  0.00  0.00    +0.267 C 
BRANCH  37  38
ATOM     38  C   UNL     1      21.433  12.002  -0.310  0.00  0.00    -0.010 A 
ATOM     39  C   UNL     1      21.441  12.223   1.075  0.00  0.00    +0.007 A 
ATOM     40  C   UNL     1      21.770  11.190   1.955  0.00  0.00    +0.000 A 
ATOM     41  C   UNL     1      22.096   9.928   1.461  0.00  0.00    +0.000 A 
ATOM     42  C   UNL     1      22.097   9.699   0.086  0.00  0.00    +0.000 A 
ATOM     43  C   UNL     1      21.770  10.731  -0.796  0.00  0.00    +0.007 A 
ENDBRANCH  37  38
ENDBRANCH  36  37
ENDBRANCH  34  36
ENDBRANCH  32  34
ENDBRANCH  30  32
ENDBRANCH  26  28
ENDBRANCH  25  26
ENDBRANCH  24  25
ENDBRANCH   1  24
TORSDOF 15
