REMARK VINA RESULT:    -5.735      2.777      4.901
REMARK INTER + INTRA:         -12.663
REMARK INTER:                  -9.342
REMARK INTRA:                  -3.321
REMARK UNBOUND:                -2.235
REMARK  Name = lig_assembled_50.pdb
REMARK  15 active torsions:
REMARK  status: ('A' for Active; 'I' for Inactive)
REMARK    1  A    between atoms: _2  and  _8
REMARK    2  A    between atoms: _4  and  _9
REMARK    3  A    between atoms: _4  and  _10
REMARK    4  A    between atoms: _5  and  _6
REMARK    5  A    between atoms: _5  and  _12
REMARK    6  A    between atoms: _8  and  _9
REMARK    7  A    between atoms: _9  and  _11
REMARK    8  A    between atoms: _12  and  _14
REMARK    9  A    between atoms: _13  and  _18
REMARK   10  A    between atoms: _14  and  _17
REMARK   11  A    between atoms: _22  and  _32
REMARK   12  A    between atoms: _24  and  _25
REMARK   13  A    between atoms: _26  and  _28
REMARK   14  A    between atoms: _28  and  _30
REMARK   15  A    between atoms: _30  and  _32
REMARK                            x       y       z     vdW  Elec       q    Type
REMARK                         _______ _______ _______ _____ _____    ______ ____
ROOT
ATOM      1  C   UNL     1      25.438  11.834  -1.770  0.00  0.00    +0.400 C 
ATOM      2  N   UNL     1      26.697  11.337  -2.012  0.00  0.00    -0.278 N 
ATOM      3  H   UNL     1      27.075  11.134  -1.033  0.00  0.00    +0.152 HD
ATOM      4  O   UNL     1      24.997  11.763  -0.625  0.00  0.00    -0.226 OA
ENDROOT
BRANCH   2   5
ATOM      5  C   UNL     1      27.719  10.958  -2.984  0.00  0.00    +0.152 C 
BRANCH   5   6
ATOM      6  C   UNL     1      29.165  11.377  -2.649  0.00  0.00    +0.193 C 
ATOM      7  O   UNL     1      29.860  11.513  -3.908  0.00  0.00    -0.219 OA
BRANCH   6   8
ATOM      8  C   UNL     1      29.370  12.737  -1.946  0.00  0.00    +0.212 C 
ATOM      9  O   UNL     1      28.314  13.647  -2.296  0.00  0.00    -0.218 OA
BRANCH   8  10
ATOM     10  C   UNL     1      29.438  12.625  -0.375  0.00  0.00    +0.171 C 
ATOM     11  O   UNL     1      28.155  12.704   0.236  0.00  0.00    -0.343 OA
ATOM     12  C   UNL     1      27.943  12.875   1.606  0.00  0.00    +0.220 C 
ATOM     13  C   UNL     1      28.758  14.054   2.166  0.00  0.00    +0.076 C 
ATOM     14  C   UNL     1      30.225  13.837   1.759  0.00  0.00    +0.177 C 
ATOM     15  O   UNL     1      31.030  14.882   2.287  0.00  0.00    -0.221 OA
ATOM     16  C   UNL     1      30.346  13.758   0.206  0.00  0.00    +0.155 C 
BRANCH  16  17
ATOM     17  N   UNL     1      31.739  13.559  -0.185  0.00  0.00    -0.202 NA
ATOM     18  C   UNL     1      32.650  14.457  -0.639  0.00  0.00    +0.242 C 
ATOM     19  C   UNL     1      34.098  14.045  -0.688  0.00  0.00    +0.096 C 
ATOM     20  O   UNL     1      32.277  15.573  -0.995  0.00  0.00    -0.273 OA
ENDBRANCH  16  17
BRANCH  12  21
ATOM     21  C   UNL     1      28.181  11.521   2.472  0.00  0.00    +0.391 C 
ATOM     22  O   UNL     1      28.553  11.950   3.693  0.00  0.00    -0.243 OA
ATOM     23  O   UNL     1      27.638  10.526   1.759  0.00  0.00    -0.243 OA
ENDBRANCH  12  21
ENDBRANCH   8  10
ENDBRANCH   6   8
ENDBRANCH   5   6
ENDBRANCH   2   5
BRANCH   1  24
ATOM     24  O   UNL     1      24.841  12.366  -2.785  0.00  0.00    -0.450 OA
BRANCH  24  25
ATOM     25  C   UNL     1      24.098  13.520  -3.104  0.00  0.00    +0.240 C 
BRANCH  25  26
ATOM     26  C   UNL     1      24.563  14.354  -4.312  0.00  0.00    +0.100 C 
BRANCH  26  28
ATOM     27  N   UNL     1      26.615  15.694  -4.677  0.00  0.00    -0.134 NA
ATOM     28  C   UNL     1      25.540  15.376  -3.887  0.00  0.00    +0.086 A 
ATOM     29  C   UNL     1      25.575  16.151  -2.746  0.00  0.00    +0.133 A 
ATOM     30  N   UNL     1      26.693  16.907  -2.899  0.00  0.00    -0.249 N 
ATOM     31  N   UNL     1      27.308  16.643  -4.067  0.00  0.00    -0.065 NA
BRANCH  30  32
ATOM     32  C   UNL     1      27.246  17.884  -1.990  0.00  0.00    +0.178 C 
BRANCH  32  33
ATOM     33  C   UNL     1      27.952  17.276  -0.773  0.00  0.00    +0.161 C 
BRANCH  33  34
ATOM     34  O   UNL     1      27.930  15.846  -0.779  0.00  0.00    -0.388 OA
ATOM     35  H   UNL     1      28.808  15.522  -1.064  0.00  0.00    +0.210 HD
ENDBRANCH  33  34
BRANCH  33  36
ATOM     36  C   UNL     1      29.393  17.771  -0.588  0.00  0.00    +0.189 C 
BRANCH  36  37
ATOM     37  O   UNL     1      30.018  17.142   0.530  0.00  0.00    -0.392 OA
ATOM     38  H   UNL     1      30.931  16.907   0.277  0.00  0.00    +0.210 HD
ENDBRANCH  36  37
ENDBRANCH  33  36
ENDBRANCH  32  33
ENDBRANCH  30  32
ENDBRANCH  26  28
ENDBRANCH  25  26
ENDBRANCH  24  25
ENDBRANCH   1  24
TORSDOF 15
