REMARK VINA RESULT:    -7.028      2.410      3.696
REMARK INTER + INTRA:         -15.051
REMARK INTER:                 -12.493
REMARK INTRA:                  -2.558
REMARK UNBOUND:                -1.860
REMARK  Name = lig_assembled_37.pdb
REMARK  16 active torsions:
REMARK  status: ('A' for Active; 'I' for Inactive)
REMARK    1  A    between atoms: _2  and  _8
REMARK    2  A    between atoms: _5  and  _6
REMARK    3  A    between atoms: _5  and  _19
REMARK    4  A    between atoms: _8  and  _9
REMARK    5  A    between atoms: _8  and  _10
REMARK    6  A    between atoms: _10  and  _17
REMARK    7  A    between atoms: _11  and  _12
REMARK    8  A    between atoms: _11  and  _17
REMARK    9  A    between atoms: _19  and  _21
REMARK   10  A    between atoms: _20  and  _25
REMARK   11  A    between atoms: _21  and  _24
REMARK   12  A    between atoms: _29  and  _39
REMARK   13  A    between atoms: _31  and  _32
REMARK   14  A    between atoms: _33  and  _35
REMARK   15  A    between atoms: _35  and  _37
REMARK   16  A    between atoms: _37  and  _39
REMARK                            x       y       z     vdW  Elec       q    Type
REMARK                         _______ _______ _______ _____ _____    ______ ____
ROOT
ATOM      1  C   UNL     1      28.508  17.057  -0.353  0.00  0.00    +0.400 C 
ATOM      2  N   UNL     1      29.782  16.895   0.139  0.00  0.00    -0.278 N 
ATOM      3  H   UNL     1      30.057  17.882   0.443  0.00  0.00    +0.152 HD
ATOM      4  O   UNL     1      27.953  18.138  -0.178  0.00  0.00    -0.226 OA
ENDROOT
BRANCH   2   5
ATOM      5  C   UNL     1      30.895  15.998   0.439  0.00  0.00    +0.152 C 
BRANCH   5   6
ATOM      6  C   UNL     1      31.085  14.806  -0.521  0.00  0.00    +0.193 C 
ATOM      7  O   UNL     1      32.412  14.929  -1.080  0.00  0.00    -0.219 OA
BRANCH   6   8
ATOM      8  C   UNL     1      31.053  13.386   0.087  0.00  0.00    +0.212 C 
ATOM      9  O   UNL     1      31.951  13.300   1.205  0.00  0.00    -0.218 OA
BRANCH   8  10
ATOM     10  C   UNL     1      29.617  12.941   0.559  0.00  0.00    +0.171 C 
ATOM     11  O   UNL     1      29.607  12.446   1.894  0.00  0.00    -0.343 OA
ATOM     12  C   UNL     1      28.534  11.767   2.475  0.00  0.00    +0.220 C 
ATOM     13  C   UNL     1      28.042  10.611   1.586  0.00  0.00    +0.076 C 
ATOM     14  C   UNL     1      27.762  11.189   0.189  0.00  0.00    +0.177 C 
ATOM     15  O   UNL     1      27.266  10.167  -0.664  0.00  0.00    -0.221 OA
ATOM     16  C   UNL     1      29.057  11.835  -0.395  0.00  0.00    +0.155 C 
BRANCH  16  17
ATOM     17  N   UNL     1      28.797  12.379  -1.725  0.00  0.00    -0.202 NA
ATOM     18  C   UNL     1      29.352  12.052  -2.920  0.00  0.00    +0.242 C 
ATOM     19  C   UNL     1      28.694  12.559  -4.177  0.00  0.00    +0.096 C 
ATOM     20  O   UNL     1      30.366  11.357  -2.949  0.00  0.00    -0.273 OA
ENDBRANCH  16  17
BRANCH  12  21
ATOM     21  C   UNL     1      27.312  12.743   2.916  0.00  0.00    +0.391 C 
ATOM     22  O   UNL     1      26.261  11.921   3.100  0.00  0.00    -0.243 OA
ATOM     23  O   UNL     1      27.871  13.921   3.217  0.00  0.00    -0.243 OA
ENDBRANCH  12  21
ENDBRANCH   8  10
ENDBRANCH   6   8
ENDBRANCH   5   6
ENDBRANCH   2   5
BRANCH   1  24
ATOM     24  O   UNL     1      28.022  16.044  -0.992  0.00  0.00    -0.450 OA
BRANCH  24  25
ATOM     25  C   UNL     1      27.482  15.737  -2.256  0.00  0.00    +0.240 C 
BRANCH  25  26
ATOM     26  C   UNL     1      26.393  16.676  -2.811  0.00  0.00    +0.100 C 
BRANCH  26  28
ATOM     27  N   UNL     1      25.634  15.391  -4.789  0.00  0.00    -0.134 NA
ATOM     28  C   UNL     1      25.375  15.905  -3.547  0.00  0.00    +0.086 A 
ATOM     29  C   UNL     1      24.090  15.570  -3.181  0.00  0.00    +0.134 A 
ATOM     30  N   UNL     1      23.609  14.878  -4.253  0.00  0.00    -0.238 N 
ATOM     31  N   UNL     1      24.549  14.757  -5.211  0.00  0.00    -0.065 NA
BRANCH  30  32
ATOM     32  C   UNL     1      22.318  14.244  -4.434  0.00  0.00    +0.214 C 
ATOM     33  C   UNL     1      22.468  12.781  -4.850  0.00  0.00    +0.045 C 
BRANCH  32  34
ATOM     34  C   UNL     1      21.477  14.348  -3.182  0.00  0.00    +0.332 C 
ATOM     35  O   UNL     1      20.837  15.345  -2.866  0.00  0.00    -0.248 OA
BRANCH  34  36
ATOM     36  O   UNL     1      21.530  13.197  -2.458  0.00  0.00    -0.458 OA
BRANCH  36  37
ATOM     37  C   UNL     1      20.871  13.222  -1.182  0.00  0.00    +0.267 C 
BRANCH  37  38
ATOM     38  C   UNL     1      21.675  12.444  -0.174  0.00  0.00    -0.010 A 
ATOM     39  C   UNL     1      22.999  12.074  -0.452  0.00  0.00    +0.007 A 
ATOM     40  C   UNL     1      23.753  11.377   0.493  0.00  0.00    +0.000 A 
ATOM     41  C   UNL     1      23.194  11.040   1.724  0.00  0.00    +0.000 A 
ATOM     42  C   UNL     1      21.877  11.396   2.010  0.00  0.00    +0.000 A 
ATOM     43  C   UNL     1      21.119  12.093   1.065  0.00  0.00    +0.007 A 
ENDBRANCH  37  38
ENDBRANCH  36  37
ENDBRANCH  34  36
ENDBRANCH  32  34
ENDBRANCH  30  32
ENDBRANCH  26  28
ENDBRANCH  25  26
ENDBRANCH  24  25
ENDBRANCH   1  24
TORSDOF 15
