REMARK VINA RESULT:    -7.083      3.454      8.721
REMARK INTER + INTRA:         -13.459
REMARK INTER:                 -11.290
REMARK INTRA:                  -2.169
REMARK UNBOUND:                -1.407
REMARK  Name = lig_assembled_82.pdb
REMARK  14 active torsions:
REMARK  status: ('A' for Active; 'I' for Inactive)
REMARK    1  A    between atoms: _2  and  _8
REMARK    2  A    between atoms: _4  and  _15
REMARK    3  A    between atoms: _5  and  _6
REMARK    4  A    between atoms: _5  and  _17
REMARK    5  A    between atoms: _8  and  _9
REMARK    6  A    between atoms: _15  and  _16
REMARK    7  A    between atoms: _17  and  _19
REMARK    8  A    between atoms: _18  and  _23
REMARK    9  A    between atoms: _19  and  _22
REMARK   10  A    between atoms: _27  and  _37
REMARK   11  A    between atoms: _29  and  _30
REMARK   12  A    between atoms: _31  and  _33
REMARK   13  A    between atoms: _33  and  _35
REMARK   14  A    between atoms: _35  and  _37
REMARK                            x       y       z     vdW  Elec       q    Type
REMARK                         _______ _______ _______ _____ _____    ______ ____
ROOT
ATOM      1  C   UNL     1      25.847  15.783  -4.716  0.00  0.00    +0.400 C 
ATOM      2  N   UNL     1      24.559  15.314  -4.603  0.00  0.00    -0.278 N 
ATOM      3  H   UNL     1      24.368  14.883  -5.562  0.00  0.00    +0.152 HD
ATOM      4  O   UNL     1      26.492  15.469  -5.713  0.00  0.00    -0.226 OA
ENDROOT
BRANCH   2   5
ATOM      5  C   UNL     1      23.370  15.132  -3.775  0.00  0.00    +0.152 C 
BRANCH   5   6
ATOM      6  C   UNL     1      23.523  14.193  -2.561  0.00  0.00    +0.193 C 
ATOM      7  O   UNL     1      22.368  14.409  -1.720  0.00  0.00    -0.219 OA
BRANCH   6   8
ATOM      8  C   UNL     1      23.527  12.672  -2.829  0.00  0.00    +0.212 C 
ATOM      9  O   UNL     1      24.126  12.389  -4.104  0.00  0.00    -0.218 OA
BRANCH   8  10
ATOM     10  C   UNL     1      24.283  11.844  -1.721  0.00  0.00    +0.171 C 
ATOM     11  O   UNL     1      23.406  11.341  -0.719  0.00  0.00    -0.343 OA
ATOM     12  C   UNL     1      23.828  10.789   0.493  0.00  0.00    +0.220 C 
ATOM     13  C   UNL     1      24.828  11.706   1.219  0.00  0.00    +0.076 C 
ATOM     14  C   UNL     1      25.958  12.035   0.229  0.00  0.00    +0.177 C 
ATOM     15  O   UNL     1      26.932  12.850   0.864  0.00  0.00    -0.221 OA
ATOM     16  C   UNL     1      25.375  12.732  -1.039  0.00  0.00    +0.155 C 
BRANCH  16  17
ATOM     17  N   UNL     1      26.446  13.053  -1.979  0.00  0.00    -0.202 NA
ATOM     18  C   UNL     1      27.273  12.226  -2.667  0.00  0.00    +0.242 C 
ATOM     19  C   UNL     1      28.091  12.805  -3.792  0.00  0.00    +0.096 C 
ATOM     20  O   UNL     1      27.335  11.037  -2.361  0.00  0.00    -0.273 OA
ENDBRANCH  16  17
BRANCH  12  21
ATOM     21  C   UNL     1      24.401   9.276   0.350  0.00  0.00    +0.391 C 
ATOM     22  O   UNL     1      25.215   9.111   1.411  0.00  0.00    -0.243 OA
ATOM     23  O   UNL     1      23.635   8.676  -0.570  0.00  0.00    -0.243 OA
ENDBRANCH  12  21
ENDBRANCH   8  10
ENDBRANCH   6   8
ENDBRANCH   5   6
ENDBRANCH   2   5
BRANCH   1  24
ATOM     24  O   UNL     1      26.250  16.549  -3.756  0.00  0.00    -0.450 OA
BRANCH  24  25
ATOM     25  C   UNL     1      26.496  16.487  -2.371  0.00  0.00    +0.240 C 
BRANCH  25  26
ATOM     26  C   UNL     1      27.451  17.537  -1.770  0.00  0.00    +0.100 C 
BRANCH  26  28
ATOM     27  N   UNL     1      29.672  17.555  -0.682  0.00  0.00    -0.134 NA
ATOM     28  C   UNL     1      28.504  16.894  -0.979  0.00  0.00    +0.086 A 
ATOM     29  C   UNL     1      28.565  15.628  -0.425  0.00  0.00    +0.134 A 
ATOM     30  N   UNL     1      29.835  15.542   0.074  0.00  0.00    -0.247 N 
ATOM     31  N   UNL     1      30.460  16.731  -0.005  0.00  0.00    -0.065 NA
BRANCH  30  32
ATOM     32  C   UNL     1      30.548  14.355   0.551  0.00  0.00    +0.176 C 
BRANCH  32  33
ATOM     33  C   UNL     1      31.510  13.805  -0.473  0.00  0.00    -0.049 C 
ATOM     34  C   UNL     1      32.962  14.121  -0.306  0.00  0.00    +0.023 C 
ATOM     35  C   UNL     1      34.032  13.007  -0.706  0.00  0.00    -0.025 C 
ATOM     36  C   UNL     1      33.974  11.477  -0.623  0.00  0.00    +0.012 C 
ATOM     37  C   UNL     1      33.638  13.474  -2.184  0.00  0.00    -0.000 C 
ATOM     38  C   UNL     1      32.257  12.949  -2.686  0.00  0.00    +0.031 C 
ATOM     39  C   UNL     1      35.309  13.427   0.065  0.00  0.00    +0.012 C 
ATOM     40  C   UNL     1      33.477  14.896  -1.584  0.00  0.00    +0.012 C 
ATOM     41  C   UNL     1      31.189  13.201  -1.634  0.00  0.00    -0.025 C 
ENDBRANCH  32  33
ENDBRANCH  30  32
ENDBRANCH  26  28
ENDBRANCH  25  26
ENDBRANCH  24  25
ENDBRANCH   1  24
TORSDOF 12
