REMARK VINA RESULT:    -6.094      1.783      3.510
REMARK INTER + INTRA:         -13.583
REMARK INTER:                 -12.065
REMARK INTRA:                  -1.518
REMARK UNBOUND:                -3.035
REMARK  Name = lig_assembled_22.pdb
REMARK  15 active torsions:
REMARK  status: ('A' for Active; 'I' for Inactive)
REMARK    1  A    between atoms: _2  and  _8
REMARK    2  A    between atoms: _4  and  _8
REMARK    3  A    between atoms: _4  and  _11
REMARK    4  A    between atoms: _5  and  _6
REMARK    5  A    between atoms: _5  and  _13
REMARK    6  A    between atoms: _8  and  _9
REMARK    7  A    between atoms: _8  and  _10
REMARK    8  A    between atoms: _13  and  _15
REMARK    9  A    between atoms: _14  and  _19
REMARK   10  A    between atoms: _15  and  _18
REMARK   11  A    between atoms: _23  and  _33
REMARK   12  A    between atoms: _25  and  _26
REMARK   13  A    between atoms: _27  and  _29
REMARK   14  A    between atoms: _29  and  _31
REMARK   15  A    between atoms: _31  and  _33
REMARK                            x       y       z     vdW  Elec       q    Type
REMARK                         _______ _______ _______ _____ _____    ______ ____
ROOT
ATOM      1  C   UNL     1      28.834  17.025  -0.498  0.00  0.00    +0.400 C 
ATOM      2  N   UNL     1      28.937  15.905   0.292  0.00  0.00    -0.278 N 
ATOM      3  H   UNL     1      29.631  16.199   1.049  0.00  0.00    +0.152 HD
ATOM      4  O   UNL     1      29.351  18.065  -0.099  0.00  0.00    -0.226 OA
ENDROOT
BRANCH   1   5
ATOM      5  O   UNL     1      28.217  16.863  -1.622  0.00  0.00    -0.450 OA
BRANCH   5   6
ATOM      6  C   UNL     1      27.131  17.410  -2.334  0.00  0.00    +0.240 C 
BRANCH   6   7
ATOM      7  C   UNL     1      26.990  17.028  -3.820  0.00  0.00    +0.100 C 
BRANCH   7   9
ATOM      8  N   UNL     1      25.640  15.470  -5.180  0.00  0.00    -0.134 NA
ATOM      9  C   UNL     1      25.809  16.167  -4.016  0.00  0.00    +0.086 A 
ATOM     10  C   UNL     1      24.746  15.906  -3.179  0.00  0.00    +0.135 A 
ATOM     11  N   UNL     1      23.962  15.041  -3.889  0.00  0.00    -0.235 N 
ATOM     12  N   UNL     1      24.509  14.789  -5.094  0.00  0.00    -0.064 NA
BRANCH  11  13
ATOM     13  C   UNL     1      22.684  14.428  -3.521  0.00  0.00    +0.155 C 
ATOM     14  C   UNL     1      22.543  14.248  -1.994  0.00  0.00    +0.048 C 
ATOM     15  C   UNL     1      22.593  13.041  -4.186  0.00  0.00    +0.048 C 
BRANCH  13  16
ATOM     16  C   UNL     1      21.520  15.303  -3.993  0.00  0.00    +0.332 C 
ATOM     17  O   UNL     1      20.695  15.813  -3.244  0.00  0.00    -0.248 OA
BRANCH  16  18
ATOM     18  O   UNL     1      21.444  15.495  -5.332  0.00  0.00    -0.479 OA
ATOM     19  H   UNL     1      20.564  15.377  -5.740  0.00  0.00    +0.295 HD
ENDBRANCH  16  18
ENDBRANCH  13  16
ENDBRANCH  11  13
ENDBRANCH   7   9
ENDBRANCH   6   7
ENDBRANCH   5   6
ENDBRANCH   1   5
BRANCH   2  20
ATOM     20  C   UNL     1      28.523  14.530   0.562  0.00  0.00    +0.152 C 
BRANCH  20  21
ATOM     21  C   UNL     1      28.925  13.957   1.937  0.00  0.00    +0.193 C 
ATOM     22  O   UNL     1      27.720  13.430   2.535  0.00  0.00    -0.219 OA
BRANCH  21  23
ATOM     23  C   UNL     1      29.915  12.772   1.956  0.00  0.00    +0.212 C 
ATOM     24  O   UNL     1      29.431  11.700   1.131  0.00  0.00    -0.218 OA
BRANCH  23  25
ATOM     25  C   UNL     1      31.365  13.162   1.475  0.00  0.00    +0.171 C 
ATOM     26  O   UNL     1      31.553  12.957   0.079  0.00  0.00    -0.343 OA
ATOM     27  C   UNL     1      32.793  12.987  -0.563  0.00  0.00    +0.220 C 
ATOM     28  C   UNL     1      33.823  12.089   0.145  0.00  0.00    +0.076 C 
ATOM     29  C   UNL     1      33.851  12.496   1.628  0.00  0.00    +0.177 C 
ATOM     30  O   UNL     1      34.818  11.721   2.322  0.00  0.00    -0.221 OA
ATOM     31  C   UNL     1      32.433  12.329   2.257  0.00  0.00    +0.155 C 
BRANCH  31  32
ATOM     32  N   UNL     1      32.456  12.708   3.668  0.00  0.00    -0.202 NA
ATOM     33  C   UNL     1      32.446  11.926   4.777  0.00  0.00    +0.242 C 
ATOM     34  C   UNL     1      32.774  12.561   6.103  0.00  0.00    +0.096 C 
ATOM     35  O   UNL     1      32.174  10.731   4.675  0.00  0.00    -0.273 OA
ENDBRANCH  31  32
BRANCH  27  36
ATOM     36  C   UNL     1      33.368  14.489  -0.790  0.00  0.00    +0.391 C 
ATOM     37  O   UNL     1      34.690  14.329  -0.993  0.00  0.00    -0.243 OA
ATOM     38  O   UNL     1      32.298  15.268  -0.990  0.00  0.00    -0.243 OA
ENDBRANCH  27  36
ENDBRANCH  23  25
ENDBRANCH  21  23
ENDBRANCH  20  21
ENDBRANCH   2  20
TORSDOF 13
