REMARK VINA RESULT:    -7.241      1.671      2.093
REMARK INTER + INTRA:         -14.161
REMARK INTER:                 -12.600
REMARK INTRA:                  -1.561
REMARK UNBOUND:                -1.841
REMARK  Name = lig_assembled_39.pdb
REMARK  12 active torsions:
REMARK  status: ('A' for Active; 'I' for Inactive)
REMARK    1  A    between atoms: _2  and  _8
REMARK    2  A    between atoms: _5  and  _6
REMARK    3  A    between atoms: _5  and  _14
REMARK    4  A    between atoms: _8  and  _9
REMARK    5  A    between atoms: _14  and  _16
REMARK    6  A    between atoms: _15  and  _20
REMARK    7  A    between atoms: _16  and  _19
REMARK    8  A    between atoms: _24  and  _34
REMARK    9  A    between atoms: _26  and  _27
REMARK   10  A    between atoms: _28  and  _30
REMARK   11  A    between atoms: _30  and  _32
REMARK   12  A    between atoms: _32  and  _34
REMARK                            x       y       z     vdW  Elec       q    Type
REMARK                         _______ _______ _______ _____ _____    ______ ____
ROOT
ATOM      1  C   UNL     1      28.312  16.903  -0.547  0.00  0.00    +0.400 C 
ATOM      2  N   UNL     1      28.594  15.912   0.363  0.00  0.00    -0.278 N 
ATOM      3  H   UNL     1      29.011  16.446   1.190  0.00  0.00    +0.152 HD
ATOM      4  O   UNL     1      28.409  18.071  -0.179  0.00  0.00    -0.226 OA
ENDROOT
BRANCH   2   5
ATOM      5  C   UNL     1      28.566  14.492   0.705  0.00  0.00    +0.152 C 
BRANCH   5   6
ATOM      6  C   UNL     1      29.760  13.968   1.530  0.00  0.00    +0.193 C 
ATOM      7  O   UNL     1      29.967  12.594   1.134  0.00  0.00    -0.219 OA
BRANCH   6   8
ATOM      8  C   UNL     1      31.132  14.642   1.311  0.00  0.00    +0.212 C 
ATOM      9  O   UNL     1      31.150  15.948   1.910  0.00  0.00    -0.218 OA
BRANCH   8  10
ATOM     10  C   UNL     1      32.338  13.807   1.886  0.00  0.00    +0.171 C 
ATOM     11  O   UNL     1      32.790  14.294   3.146  0.00  0.00    -0.343 OA
ATOM     12  C   UNL     1      33.982  13.902   3.760  0.00  0.00    +0.220 C 
ATOM     13  C   UNL     1      35.181  14.012   2.802  0.00  0.00    +0.076 C 
ATOM     14  C   UNL     1      34.825  13.234   1.525  0.00  0.00    +0.177 C 
ATOM     15  O   UNL     1      35.919  13.271   0.619  0.00  0.00    -0.221 OA
ATOM     16  C   UNL     1      33.533  13.824   0.878  0.00  0.00    +0.155 C 
BRANCH  16  17
ATOM     17  N   UNL     1      33.196  13.092  -0.340  0.00  0.00    -0.202 NA
ATOM     18  C   UNL     1      33.101  13.533  -1.620  0.00  0.00    +0.242 C 
ATOM     19  C   UNL     1      33.027  12.512  -2.725  0.00  0.00    +0.096 C 
ATOM     20  O   UNL     1      33.079  14.742  -1.845  0.00  0.00    -0.273 OA
ENDBRANCH  16  17
BRANCH  12  21
ATOM     21  C   UNL     1      33.902  12.433   4.450  0.00  0.00    +0.391 C 
ATOM     22  O   UNL     1      35.183  12.086   4.677  0.00  0.00    -0.243 OA
ATOM     23  O   UNL     1      32.622  12.259   4.803  0.00  0.00    -0.243 OA
ENDBRANCH  12  21
ENDBRANCH   8  10
ENDBRANCH   6   8
ENDBRANCH   5   6
ENDBRANCH   2   5
BRANCH   1  24
ATOM     24  O   UNL     1      27.997  16.500  -1.734  0.00  0.00    -0.450 OA
BRANCH  24  25
ATOM     25  C   UNL     1      26.953  15.816  -2.387  0.00  0.00    +0.240 C 
BRANCH  25  26
ATOM     26  C   UNL     1      25.983  16.650  -3.244  0.00  0.00    +0.100 C 
BRANCH  26  28
ATOM     27  N   UNL     1      25.144  15.088  -4.972  0.00  0.00    -0.134 NA
ATOM     28  C   UNL     1      24.930  15.789  -3.814  0.00  0.00    +0.086 A 
ATOM     29  C   UNL     1      23.662  15.519  -3.349  0.00  0.00    +0.134 A 
ATOM     30  N   UNL     1      23.189  14.584  -4.223  0.00  0.00    -0.247 N 
ATOM     31  N   UNL     1      24.058  14.373  -5.230  0.00  0.00    -0.065 NA
BRANCH  30  32
ATOM     32  C   UNL     1      21.963  13.805  -4.124  0.00  0.00    +0.181 C 
BRANCH  32  33
ATOM     33  C   UNL     1      21.636  13.380  -2.704  0.00  0.00    -0.012 A 
ATOM     34  C   UNL     1      20.678  14.077  -1.938  0.00  0.00    +0.006 A 
ATOM     35  C   UNL     1      20.372  13.699  -0.628  0.00  0.00    +0.000 A 
ATOM     36  C   UNL     1      21.035  12.629  -0.041  0.00  0.00    +0.001 A 
ATOM     37  C   UNL     1      22.017  11.950  -0.758  0.00  0.00    +0.015 A 
ATOM     38  C   UNL     1      22.324  12.327  -2.073  0.00  0.00    +0.023 A 
ATOM     39 BR   UNL     1      23.722  11.363  -2.930  0.00  0.00    -0.050 Br
ENDBRANCH  32  33
ENDBRANCH  30  32
ENDBRANCH  26  28
ENDBRANCH  25  26
ENDBRANCH  24  25
ENDBRANCH   1  24
TORSDOF 12
