REMARK VINA RESULT:    -6.343      2.015      2.725
REMARK INTER + INTRA:         -14.413
REMARK INTER:                 -11.717
REMARK INTRA:                  -2.697
REMARK UNBOUND:                -2.880
REMARK  Name = lig_assembled_21.pdb
REMARK  15 active torsions:
REMARK  status: ('A' for Active; 'I' for Inactive)
REMARK    1  A    between atoms: _2  and  _8
REMARK    2  A    between atoms: _5  and  _6
REMARK    3  A    between atoms: _5  and  _18
REMARK    4  A    between atoms: _8  and  _9
REMARK    5  A    between atoms: _10  and  _17
REMARK    6  A    between atoms: _11  and  _12
REMARK    7  A    between atoms: _11  and  _17
REMARK    8  A    between atoms: _18  and  _20
REMARK    9  A    between atoms: _19  and  _24
REMARK   10  A    between atoms: _20  and  _23
REMARK   11  A    between atoms: _28  and  _38
REMARK   12  A    between atoms: _30  and  _31
REMARK   13  A    between atoms: _32  and  _34
REMARK   14  A    between atoms: _34  and  _36
REMARK   15  A    between atoms: _36  and  _38
REMARK                            x       y       z     vdW  Elec       q    Type
REMARK                         _______ _______ _______ _____ _____    ______ ____
ROOT
ATOM      1  C   UNL     1      28.077  17.663  -1.034  0.00  0.00    +0.400 C 
ATOM      2  N   UNL     1      29.329  17.582  -0.471  0.00  0.00    -0.278 N 
ATOM      3  H   UNL     1      29.626  18.605  -0.380  0.00  0.00    +0.152 HD
ATOM      4  O   UNL     1      27.551  18.770  -1.119  0.00  0.00    -0.226 OA
ENDROOT
BRANCH   2   5
ATOM      5  C   UNL     1      30.404  16.746   0.058  0.00  0.00    +0.152 C 
BRANCH   5   6
ATOM      6  C   UNL     1      30.066  15.255   0.264  0.00  0.00    +0.193 C 
ATOM      7  O   UNL     1      30.270  14.603  -1.008  0.00  0.00    -0.219 OA
BRANCH   6   8
ATOM      8  C   UNL     1      30.942  14.454   1.253  0.00  0.00    +0.212 C 
ATOM      9  O   UNL     1      31.403  15.303   2.316  0.00  0.00    -0.218 OA
BRANCH   8  10
ATOM     10  C   UNL     1      30.199  13.215   1.882  0.00  0.00    +0.171 C 
ATOM     11  O   UNL     1      29.916  13.392   3.267  0.00  0.00    -0.343 OA
ATOM     12  C   UNL     1      29.491  12.371   4.121  0.00  0.00    +0.220 C 
ATOM     13  C   UNL     1      30.397  11.131   4.023  0.00  0.00    +0.076 C 
ATOM     14  C   UNL     1      30.486  10.739   2.539  0.00  0.00    +0.177 C 
ATOM     15  O   UNL     1      31.282   9.571   2.397  0.00  0.00    -0.221 OA
ATOM     16  C   UNL     1      31.063  11.923   1.703  0.00  0.00    +0.155 C 
BRANCH  16  17
ATOM     17  N   UNL     1      31.155  11.552   0.294  0.00  0.00    -0.202 NA
ATOM     18  C   UNL     1      32.228  11.560  -0.537  0.00  0.00    +0.242 C 
ATOM     19  C   UNL     1      32.114  10.849  -1.861  0.00  0.00    +0.096 C 
ATOM     20  O   UNL     1      33.257  12.139  -0.195  0.00  0.00    -0.273 OA
ENDBRANCH  16  17
BRANCH  12  21
ATOM     21  C   UNL     1      27.925  11.982   3.934  0.00  0.00    +0.391 C 
ATOM     22  O   UNL     1      27.813  10.739   4.441  0.00  0.00    -0.243 OA
ATOM     23  O   UNL     1      27.293  13.124   3.638  0.00  0.00    -0.243 OA
ENDBRANCH  12  21
ENDBRANCH   8  10
ENDBRANCH   6   8
ENDBRANCH   5   6
ENDBRANCH   2   5
BRANCH   1  24
ATOM     24  O   UNL     1      27.579  16.547  -1.454  0.00  0.00    -0.450 OA
BRANCH  24  25
ATOM     25  C   UNL     1      27.047  15.991  -2.634  0.00  0.00    +0.240 C 
BRANCH  25  26
ATOM     26  C   UNL     1      25.648  16.463  -3.074  0.00  0.00    +0.100 C 
BRANCH  26  28
ATOM     27  N   UNL     1      23.376  15.519  -3.311  0.00  0.00    -0.134 NA
ATOM     28  C   UNL     1      24.655  15.397  -2.843  0.00  0.00    +0.086 A 
ATOM     29  C   UNL     1      24.790  14.178  -2.217  0.00  0.00    +0.134 A 
ATOM     30  N   UNL     1      23.582  13.566  -2.417  0.00  0.00    -0.247 N 
ATOM     31  N   UNL     1      22.728  14.396  -3.042  0.00  0.00    -0.065 NA
BRANCH  30  32
ATOM     32  C   UNL     1      23.260  12.180  -2.095  0.00  0.00    +0.184 C 
BRANCH  32  33
ATOM     33  C   UNL     1      22.909  11.907  -0.652  0.00  0.00    +0.016 A 
ATOM     34  C   UNL     1      23.859  11.420   0.265  0.00  0.00    +0.137 A 
ATOM     35  C   UNL     1      23.516  11.177   1.595  0.00  0.00    +0.047 A 
ATOM     36  C   UNL     1      22.217  11.435   2.031  0.00  0.00    +0.004 A 
ATOM     37  C   UNL     1      21.258  11.904   1.137  0.00  0.00    +0.001 A 
ATOM     38  C   UNL     1      21.602  12.141  -0.195  0.00  0.00    +0.009 A 
BRANCH  34  39
ATOM     39  O   UNL     1      25.142  11.112  -0.248  0.00  0.00    -0.426 OA
BRANCH  39  40
ATOM     40  C   UNL     1      26.316  11.633   0.300  0.00  0.00    +0.309 C 
ATOM     41  O   UNL     1      26.572  12.810   0.519  0.00  0.00    -0.251 OA
ATOM     42  C   UNL     1      27.226  10.499   0.670  0.00  0.00    +0.136 C 
ENDBRANCH  39  40
ENDBRANCH  34  39
ENDBRANCH  32  33
ENDBRANCH  30  32
ENDBRANCH  26  28
ENDBRANCH  25  26
ENDBRANCH  24  25
ENDBRANCH   1  24
TORSDOF 14
