REMARK VINA RESULT:    -6.550      2.187      3.400
REMARK INTER + INTRA:         -12.984
REMARK INTER:                 -11.777
REMARK INTRA:                  -1.207
REMARK UNBOUND:                -1.839
REMARK  Name = lig_assembled_61.pdb
REMARK  12 active torsions:
REMARK  status: ('A' for Active; 'I' for Inactive)
REMARK    1  A    between atoms: _2  and  _8
REMARK    2  A    between atoms: _5  and  _6
REMARK    3  A    between atoms: _5  and  _12
REMARK    4  A    between atoms: _8  and  _9
REMARK    5  A    between atoms: _12  and  _14
REMARK    6  A    between atoms: _13  and  _18
REMARK    7  A    between atoms: _14  and  _17
REMARK    8  A    between atoms: _22  and  _32
REMARK    9  A    between atoms: _24  and  _25
REMARK   10  A    between atoms: _26  and  _28
REMARK   11  A    between atoms: _28  and  _30
REMARK   12  A    between atoms: _30  and  _32
REMARK                            x       y       z     vdW  Elec       q    Type
REMARK                         _______ _______ _______ _____ _____    ______ ____
ROOT
ATOM      1  C   UNL     1      29.564  14.843  -0.174  0.00  0.00    +0.152 C 
ENDROOT
BRANCH   1   3
ATOM      2  C   UNL     1      28.213  17.148  -0.729  0.00  0.00    +0.400 C 
ATOM      3  N   UNL     1      28.973  16.178  -0.119  0.00  0.00    -0.278 N 
ATOM      4  H   UNL     1      29.225  16.616   0.822  0.00  0.00    +0.152 HD
ATOM      5  O   UNL     1      27.866  18.117  -0.059  0.00  0.00    -0.226 OA
BRANCH   2   6
ATOM      6  O   UNL     1      27.960  16.956  -1.982  0.00  0.00    -0.450 OA
BRANCH   6   7
ATOM      7  C   UNL     1      27.070  17.412  -2.974  0.00  0.00    +0.240 C 
BRANCH   7   8
ATOM      8  C   UNL     1      26.623  16.401  -4.047  0.00  0.00    +0.100 C 
BRANCH   8  10
ATOM      9  N   UNL     1      25.410  14.243  -4.040  0.00  0.00    -0.134 NA
ATOM     10  C   UNL     1      25.600  15.490  -3.502  0.00  0.00    +0.086 A 
ATOM     11  C   UNL     1      24.717  15.670  -2.458  0.00  0.00    +0.134 A 
ATOM     12  N   UNL     1      23.981  14.522  -2.452  0.00  0.00    -0.247 N 
ATOM     13  N   UNL     1      24.427  13.650  -3.376  0.00  0.00    -0.065 NA
BRANCH  12  14
ATOM     14  C   UNL     1      22.875  14.169  -1.581  0.00  0.00    +0.180 C 
BRANCH  14  15
ATOM     15  C   UNL     1      21.546  14.465  -2.219  0.00  0.00    -0.019 A 
ATOM     16  C   UNL     1      20.332  13.745  -1.945  0.00  0.00    +0.013 A 
ATOM     17  C   UNL     1      19.266  14.192  -2.694  0.00  0.00    +0.045 A 
ATOM     18  S   UNL     1      19.702  15.485  -3.720  0.00  0.00    -0.105 S 
ATOM     19  C   UNL     1      21.321  15.441  -3.176  0.00  0.00    +0.050 A 
ENDBRANCH  14  15
ENDBRANCH  12  14
ENDBRANCH   8  10
ENDBRANCH   7   8
ENDBRANCH   6   7
ENDBRANCH   2   6
ENDBRANCH   1   3
BRANCH   1  20
ATOM     20  C   UNL     1      31.102  14.776  -0.070  0.00  0.00    +0.193 C 
ATOM     21  O   UNL     1      31.608  16.023  -0.595  0.00  0.00    -0.219 OA
BRANCH  20  22
ATOM     22  C   UNL     1      31.719  14.672   1.342  0.00  0.00    +0.212 C 
ATOM     23  O   UNL     1      31.282  15.768   2.162  0.00  0.00    -0.218 OA
BRANCH  22  24
ATOM     24  C   UNL     1      31.372  13.322   2.078  0.00  0.00    +0.171 C 
ATOM     25  O   UNL     1      30.011  13.259   2.493  0.00  0.00    -0.343 OA
ATOM     26  C   UNL     1      29.498  12.300   3.369  0.00  0.00    +0.220 C 
ATOM     27  C   UNL     1      30.343  12.186   4.650  0.00  0.00    +0.076 C 
ATOM     28  C   UNL     1      31.803  11.959   4.222  0.00  0.00    +0.177 C 
ATOM     29  O   UNL     1      32.623  11.807   5.372  0.00  0.00    -0.221 OA
ATOM     30  C   UNL     1      32.292  13.141   3.329  0.00  0.00    +0.155 C 
BRANCH  30  31
ATOM     31  N   UNL     1      33.680  12.932   2.927  0.00  0.00    -0.202 NA
ATOM     32  C   UNL     1      34.797  13.623   3.270  0.00  0.00    +0.242 C 
ATOM     33  C   UNL     1      36.139  13.019   2.951  0.00  0.00    +0.096 C 
ATOM     34  O   UNL     1      34.689  14.713   3.828  0.00  0.00    -0.273 OA
ENDBRANCH  30  31
BRANCH  26  35
ATOM     35  C   UNL     1      29.268  10.848   2.675  0.00  0.00    +0.391 C 
ATOM     36  O   UNL     1      29.108   9.993   3.704  0.00  0.00    -0.243 OA
ATOM     37  O   UNL     1      29.025  11.091   1.381  0.00  0.00    -0.243 OA
ENDBRANCH  26  35
ENDBRANCH  22  24
ENDBRANCH  20  22
ENDBRANCH   1  20
TORSDOF 12
