REMARK VINA RESULT:    -7.478      1.937      2.881
REMARK INTER + INTRA:         -14.643
REMARK INTER:                 -12.470
REMARK INTRA:                  -2.172
REMARK UNBOUND:                -1.919
REMARK  Name = lig_assembled_41.pdb
REMARK  13 active torsions:
REMARK  status: ('A' for Active; 'I' for Inactive)
REMARK    1  A    between atoms: _2  and  _8
REMARK    2  A    between atoms: _5  and  _6
REMARK    3  A    between atoms: _5  and  _16
REMARK    4  A    between atoms: _9  and  _10
REMARK    5  A    between atoms: _10  and  _11
REMARK    6  A    between atoms: _16  and  _18
REMARK    7  A    between atoms: _17  and  _22
REMARK    8  A    between atoms: _18  and  _21
REMARK    9  A    between atoms: _26  and  _36
REMARK   10  A    between atoms: _28  and  _29
REMARK   11  A    between atoms: _30  and  _32
REMARK   12  A    between atoms: _32  and  _34
REMARK   13  A    between atoms: _34  and  _36
REMARK                            x       y       z     vdW  Elec       q    Type
REMARK                         _______ _______ _______ _____ _____    ______ ____
ROOT
ATOM      1  C   UNL     1      28.154  16.868  -0.827  0.00  0.00    +0.400 C 
ATOM      2  N   UNL     1      28.363  15.604  -0.327  0.00  0.00    -0.278 N 
ATOM      3  H   UNL     1      28.723  15.786   0.663  0.00  0.00    +0.152 HD
ATOM      4  O   UNL     1      28.230  17.818  -0.052  0.00  0.00    -0.226 OA
ENDROOT
BRANCH   2   5
ATOM      5  C   UNL     1      28.303  14.159  -0.532  0.00  0.00    +0.152 C 
BRANCH   5   6
ATOM      6  C   UNL     1      28.157  13.298   0.740  0.00  0.00    +0.193 C 
ATOM      7  O   UNL     1      28.848  12.056   0.481  0.00  0.00    -0.219 OA
BRANCH   6   8
ATOM      8  C   UNL     1      28.796  13.831   2.041  0.00  0.00    +0.212 C 
ATOM      9  O   UNL     1      27.797  13.994   3.060  0.00  0.00    -0.218 OA
BRANCH   8  10
ATOM     10  C   UNL     1      29.940  12.901   2.601  0.00  0.00    +0.171 C 
ATOM     11  O   UNL     1      29.721  12.518   3.955  0.00  0.00    -0.343 OA
ATOM     12  C   UNL     1      30.680  11.908   4.766  0.00  0.00    +0.220 C 
ATOM     13  C   UNL     1      32.014  12.675   4.748  0.00  0.00    +0.076 C 
ATOM     14  C   UNL     1      32.427  12.850   3.278  0.00  0.00    +0.177 C 
ATOM     15  O   UNL     1      33.677  13.520   3.205  0.00  0.00    -0.221 OA
ATOM     16  C   UNL     1      31.321  13.627   2.498  0.00  0.00    +0.155 C 
BRANCH  16  17
ATOM     17  N   UNL     1      31.713  13.802   1.102  0.00  0.00    -0.202 NA
ATOM     18  C   UNL     1      31.748  14.928   0.344  0.00  0.00    +0.242 C 
ATOM     19  C   UNL     1      32.471  14.880  -0.976  0.00  0.00    +0.096 C 
ATOM     20  O   UNL     1      31.196  15.950   0.749  0.00  0.00    -0.273 OA
ENDBRANCH  16  17
BRANCH  12  21
ATOM     21  C   UNL     1      30.894  10.331   4.441  0.00  0.00    +0.391 C 
ATOM     22  O   UNL     1      32.050  10.004   5.051  0.00  0.00    -0.243 OA
ATOM     23  O   UNL     1      29.724   9.889   3.964  0.00  0.00    -0.243 OA
ENDBRANCH  12  21
ENDBRANCH   8  10
ENDBRANCH   6   8
ENDBRANCH   5   6
ENDBRANCH   2   5
BRANCH   1  24
ATOM     24  O   UNL     1      27.923  16.936  -2.097  0.00  0.00    -0.450 OA
BRANCH  24  25
ATOM     25  C   UNL     1      26.941  17.427  -2.979  0.00  0.00    +0.240 C 
BRANCH  25  26
ATOM     26  C   UNL     1      26.498  16.508  -4.134  0.00  0.00    +0.100 C 
BRANCH  26  28
ATOM     27  N   UNL     1      25.549  14.233  -4.224  0.00  0.00    -0.134 NA
ATOM     28  C   UNL     1      25.586  15.463  -3.638  0.00  0.00    +0.086 A 
ATOM     29  C   UNL     1      24.696  15.486  -2.586  0.00  0.00    +0.139 A 
ATOM     30  N   UNL     1      24.051  14.272  -2.634  0.00  0.00    -0.219 N 
ATOM     31  N   UNL     1      24.656  13.498  -3.579  0.00  0.00    -0.061 NA
BRANCH  30  32
ATOM     32  C   UNL     1      23.012  13.736  -1.819  0.00  0.00    +0.077 A 
ATOM     33  C   UNL     1      23.145  12.603  -0.989  0.00  0.00    +0.043 A 
ATOM     34  C   UNL     1      22.017  12.151  -0.273  0.00  0.00    +0.013 A 
ATOM     35  C   UNL     1      20.783  12.796  -0.380  0.00  0.00    +0.001 A 
ATOM     36  C   UNL     1      20.658  13.924  -1.176  0.00  0.00    +0.002 A 
ATOM     37  C   UNL     1      21.765  14.397  -1.880  0.00  0.00    +0.028 A 
BRANCH  33  38
ATOM     38  C   UNL     1      24.455  11.968  -0.649  0.00  0.00    +0.162 C 
ATOM     39  O   UNL     1      25.212  12.533   0.138  0.00  0.00    -0.292 OA
ATOM     40  C   UNL     1      24.841  10.645  -1.264  0.00  0.00    +0.091 C 
ENDBRANCH  33  38
ENDBRANCH  30  32
ENDBRANCH  26  28
ENDBRANCH  25  26
ENDBRANCH  24  25
ENDBRANCH   1  24
TORSDOF 12
