REMARK VINA RESULT:    -7.350      2.425      3.774
REMARK INTER + INTRA:         -14.736
REMARK INTER:                 -13.028
REMARK INTRA:                  -1.707
REMARK UNBOUND:                -1.585
REMARK  Name = lig_assembled_16.pdb
REMARK  14 active torsions:
REMARK  status: ('A' for Active; 'I' for Inactive)
REMARK    1  A    between atoms: _2  and  _8
REMARK    2  A    between atoms: _5  and  _6
REMARK    3  A    between atoms: _5  and  _17
REMARK    4  A    between atoms: _8  and  _9
REMARK    5  A    between atoms: _12  and  _13
REMARK    6  A    between atoms: _13  and  _15
REMARK    7  A    between atoms: _17  and  _19
REMARK    8  A    between atoms: _18  and  _23
REMARK    9  A    between atoms: _19  and  _22
REMARK   10  A    between atoms: _27  and  _37
REMARK   11  A    between atoms: _29  and  _30
REMARK   12  A    between atoms: _31  and  _33
REMARK   13  A    between atoms: _33  and  _35
REMARK   14  A    between atoms: _35  and  _37
REMARK                            x       y       z     vdW  Elec       q    Type
REMARK                         _______ _______ _______ _____ _____    ______ ____
ROOT
ATOM      1  C   UNL     1      27.261  14.619  -2.175  0.00  0.00    +0.400 C 
ATOM      2  N   UNL     1      28.056  15.171  -1.198  0.00  0.00    -0.278 N 
ATOM      3  H   UNL     1      28.638  14.343  -0.856  0.00  0.00    +0.152 HD
ATOM      4  O   UNL     1      27.502  13.470  -2.537  0.00  0.00    -0.226 OA
ENDROOT
BRANCH   2   5
ATOM      5  C   UNL     1      28.461  16.355  -0.446  0.00  0.00    +0.152 C 
BRANCH   5   6
ATOM      6  C   UNL     1      29.979  16.554  -0.257  0.00  0.00    +0.193 C 
ATOM      7  O   UNL     1      30.153  17.824   0.410  0.00  0.00    -0.219 OA
BRANCH   6   8
ATOM      8  C   UNL     1      30.726  15.543   0.641  0.00  0.00    +0.212 C 
ATOM      9  O   UNL     1      29.791  14.718   1.354  0.00  0.00    -0.218 OA
BRANCH   8  10
ATOM     10  C   UNL     1      31.713  14.609  -0.158  0.00  0.00    +0.171 C 
ATOM     11  O   UNL     1      31.096  13.996  -1.286  0.00  0.00    -0.343 OA
ATOM     12  C   UNL     1      31.657  12.948  -2.019  0.00  0.00    +0.220 C 
ATOM     13  C   UNL     1      32.120  11.798  -1.107  0.00  0.00    +0.076 C 
ATOM     14  C   UNL     1      33.040  12.402  -0.033  0.00  0.00    +0.177 C 
ATOM     15  O   UNL     1      33.529  11.373   0.816  0.00  0.00    -0.221 OA
ATOM     16  C   UNL     1      32.274  13.491   0.781  0.00  0.00    +0.155 C 
BRANCH  16  17
ATOM     17  N   UNL     1      33.142  14.061   1.807  0.00  0.00    -0.202 NA
ATOM     18  C   UNL     1      33.074  13.955   3.159  0.00  0.00    +0.242 C 
ATOM     19  C   UNL     1      34.264  14.396   3.972  0.00  0.00    +0.096 C 
ATOM     20  O   UNL     1      32.057  13.505   3.683  0.00  0.00    -0.273 OA
ENDBRANCH  16  17
BRANCH  12  21
ATOM     21  C   UNL     1      32.838  13.423  -3.027  0.00  0.00    +0.391 C 
ATOM     22  O   UNL     1      33.177  14.658  -2.609  0.00  0.00    -0.243 OA
ATOM     23  O   UNL     1      33.230  12.323  -3.682  0.00  0.00    -0.243 OA
ENDBRANCH  12  21
ENDBRANCH   8  10
ENDBRANCH   6   8
ENDBRANCH   5   6
ENDBRANCH   2   5
BRANCH   1  24
ATOM     24  O   UNL     1      26.299  15.369  -2.604  0.00  0.00    -0.450 OA
BRANCH  24  25
ATOM     25  C   UNL     1      25.819  15.900  -3.817  0.00  0.00    +0.240 C 
BRANCH  25  26
ATOM     26  C   UNL     1      24.877  15.016  -4.656  0.00  0.00    +0.100 C 
BRANCH  26  28
ATOM     27  N   UNL     1      22.931  15.642  -3.256  0.00  0.00    -0.134 NA
ATOM     28  C   UNL     1      23.673  14.672  -3.879  0.00  0.00    +0.086 A 
ATOM     29  C   UNL     1      23.084  13.447  -3.660  0.00  0.00    +0.134 A 
ATOM     30  N   UNL     1      21.943  13.751  -2.982  0.00  0.00    -0.247 N 
ATOM     31  N   UNL     1      21.879  15.064  -2.694  0.00  0.00    -0.065 NA
BRANCH  30  32
ATOM     32  C   UNL     1      20.867  12.858  -2.601  0.00  0.00    +0.180 C 
BRANCH  32  33
ATOM     33  C   UNL     1      21.184  12.134  -1.312  0.00  0.00    -0.026 A 
ATOM     34  C   UNL     1      21.705  10.833  -1.331  0.00  0.00    +0.006 A 
ATOM     35  C   UNL     1      22.032  10.184  -0.138  0.00  0.00    +0.015 A 
ATOM     36  C   UNL     1      21.830  10.818   1.090  0.00  0.00    +0.059 A 
ATOM     37  C   UNL     1      21.289  12.112   1.124  0.00  0.00    +0.015 A 
ATOM     38  C   UNL     1      20.958  12.757  -0.073  0.00  0.00    +0.006 A 
BRANCH  36  39
ATOM     39  C   UNL     1      22.264  10.111   2.324  0.00  0.00    +0.337 C 
ATOM     40  O   UNL     1      21.839   9.011   2.633  0.00  0.00    -0.245 OA
BRANCH  39  41
ATOM     41  O   UNL     1      23.136  10.805   3.081  0.00  0.00    -0.477 OA
ATOM     42  H   UNL     1      23.248  10.478   3.992  0.00  0.00    +0.295 HD
ENDBRANCH  39  41
ENDBRANCH  36  39
ENDBRANCH  32  33
ENDBRANCH  30  32
ENDBRANCH  26  28
ENDBRANCH  25  26
ENDBRANCH  24  25
ENDBRANCH   1  24
TORSDOF 14
