REMARK VINA RESULT:    -6.140      2.220      8.784
REMARK INTER + INTRA:         -13.737
REMARK INTER:                 -12.062
REMARK INTRA:                  -1.675
REMARK UNBOUND:                -1.675
REMARK  Name = lig_assembled_33.pdb
REMARK  17 active torsions:
REMARK  status: ('A' for Active; 'I' for Inactive)
REMARK    1  A    between atoms: _2  and  _8
REMARK    2  A    between atoms: _4  and  _12
REMARK    3  A    between atoms: _4  and  _13
REMARK    4  A    between atoms: _5  and  _6
REMARK    5  A    between atoms: _5  and  _15
REMARK    6  A    between atoms: _8  and  _9
REMARK    7  A    between atoms: _9  and  _10
REMARK    8  A    between atoms: _10  and  _11
REMARK    9  A    between atoms: _11  and  _12
REMARK   10  A    between atoms: _15  and  _17
REMARK   11  A    between atoms: _16  and  _21
REMARK   12  A    between atoms: _17  and  _20
REMARK   13  A    between atoms: _25  and  _35
REMARK   14  A    between atoms: _27  and  _28
REMARK   15  A    between atoms: _29  and  _31
REMARK   16  A    between atoms: _31  and  _33
REMARK   17  A    between atoms: _33  and  _35
REMARK                            x       y       z     vdW  Elec       q    Type
REMARK                         _______ _______ _______ _____ _____    ______ ____
ROOT
ATOM      1  C   UNL     1      27.690  17.605  -1.496  0.00  0.00    +0.400 C 
ATOM      2  N   UNL     1      26.697  16.858  -2.085  0.00  0.00    -0.278 N 
ATOM      3  H   UNL     1      25.838  17.491  -2.018  0.00  0.00    +0.152 HD
ATOM      4  O   UNL     1      27.449  18.779  -1.227  0.00  0.00    -0.226 OA
ENDROOT
BRANCH   1   5
ATOM      5  O   UNL     1      28.792  16.976  -1.250  0.00  0.00    -0.450 OA
BRANCH   5   6
ATOM      6  C   UNL     1      29.457  16.371  -0.166  0.00  0.00    +0.240 C 
BRANCH   6   7
ATOM      7  C   UNL     1      29.062  14.927   0.195  0.00  0.00    +0.100 C 
BRANCH   7   9
ATOM      8  N   UNL     1      31.042  15.114   1.665  0.00  0.00    -0.134 NA
ATOM      9  C   UNL     1      30.028  14.351   1.149  0.00  0.00    +0.086 A 
ATOM     10  C   UNL     1      30.116  13.076   1.664  0.00  0.00    +0.133 A 
ATOM     11  N   UNL     1      31.197  13.132   2.490  0.00  0.00    -0.251 N 
ATOM     12  N   UNL     1      31.763  14.352   2.475  0.00  0.00    -0.065 NA
BRANCH  11  13
ATOM     13  C   UNL     1      31.758  12.075   3.307  0.00  0.00    +0.145 C 
BRANCH  13  14
ATOM     14  C   UNL     1      31.768  12.442   4.790  0.00  0.00    +0.023 C 
BRANCH  14  15
ATOM     15  C   UNL     1      33.150  12.276   5.428  0.00  0.00    +0.002 C 
BRANCH  15  16
ATOM     16  C   UNL     1      34.027  13.485   5.090  0.00  0.00    +0.011 C 
BRANCH  16  17
ATOM     17  C   UNL     1      35.213  13.125   4.198  0.00  0.00    +0.120 C 
BRANCH  17  18
ATOM     18  C   UNL     1      35.016  13.642   2.790  0.00  0.00    +0.305 C 
ATOM     19  O   UNL     1      34.854  12.948   1.799  0.00  0.00    -0.251 OA
BRANCH  18  20
ATOM     20  O   UNL     1      35.031  14.994   2.730  0.00  0.00    -0.481 OA
ATOM     21  H   UNL     1      34.253  15.377   2.286  0.00  0.00    +0.295 HD
ENDBRANCH  18  20
ENDBRANCH  17  18
ENDBRANCH  16  17
ENDBRANCH  15  16
ENDBRANCH  14  15
ENDBRANCH  13  14
ENDBRANCH  11  13
ENDBRANCH   7   9
ENDBRANCH   6   7
ENDBRANCH   5   6
ENDBRANCH   1   5
BRANCH   2  22
ATOM     22  C   UNL     1      26.302  15.624  -2.758  0.00  0.00    +0.152 C 
BRANCH  22  23
ATOM     23  C   UNL     1      24.976  14.989  -2.291  0.00  0.00    +0.193 C 
ATOM     24  O   UNL     1      23.956  15.432  -3.212  0.00  0.00    -0.219 OA
BRANCH  23  25
ATOM     25  C   UNL     1      24.874  13.448  -2.315  0.00  0.00    +0.212 C 
ATOM     26  O   UNL     1      26.059  12.875  -2.891  0.00  0.00    -0.218 OA
BRANCH  25  27
ATOM     27  C   UNL     1      24.651  12.814  -0.888  0.00  0.00    +0.171 C 
ATOM     28  O   UNL     1      25.682  11.901  -0.527  0.00  0.00    -0.343 OA
ATOM     29  C   UNL     1      25.614  11.025   0.558  0.00  0.00    +0.220 C 
ATOM     30  C   UNL     1      24.305  10.216   0.557  0.00  0.00    +0.076 C 
ATOM     31  C   UNL     1      23.142  11.217   0.459  0.00  0.00    +0.177 C 
ATOM     32  O   UNL     1      21.904  10.521   0.494  0.00  0.00    -0.221 OA
ATOM     33  C   UNL     1      23.276  12.071  -0.840  0.00  0.00    +0.155 C 
BRANCH  33  34
ATOM     34  N   UNL     1      22.169  13.019  -0.940  0.00  0.00    -0.202 NA
ATOM     35  C   UNL     1      21.167  13.088  -1.852  0.00  0.00    +0.242 C 
ATOM     36  C   UNL     1      19.990  13.982  -1.555  0.00  0.00    +0.096 C 
ATOM     37  O   UNL     1      21.239  12.428  -2.887  0.00  0.00    -0.273 OA
ENDBRANCH  33  34
BRANCH  29  38
ATOM     38  C   UNL     1      25.867  11.748   1.991  0.00  0.00    +0.391 C 
ATOM     39  O   UNL     1      26.726  12.752   1.726  0.00  0.00    -0.243 OA
ATOM     40  O   UNL     1      24.919  11.282   2.813  0.00  0.00    -0.243 OA
ENDBRANCH  29  38
ENDBRANCH  25  27
ENDBRANCH  23  25
ENDBRANCH  22  23
ENDBRANCH   2  22
TORSDOF 17
