REMARK VINA RESULT:    -6.679      1.599      2.038
REMARK INTER + INTRA:         -12.472
REMARK INTER:                 -10.721
REMARK INTRA:                  -1.751
REMARK UNBOUND:                -1.499
REMARK  Name = lig_assembled_15.pdb
REMARK  11 active torsions:
REMARK  status: ('A' for Active; 'I' for Inactive)
REMARK    1  A    between atoms: _2  and  _8
REMARK    2  A    between atoms: _5  and  _6
REMARK    3  A    between atoms: _5  and  _13
REMARK    4  A    between atoms: _13  and  _15
REMARK    5  A    between atoms: _14  and  _19
REMARK    6  A    between atoms: _15  and  _18
REMARK    7  A    between atoms: _23  and  _33
REMARK    8  A    between atoms: _25  and  _26
REMARK    9  A    between atoms: _27  and  _29
REMARK   10  A    between atoms: _29  and  _31
REMARK   11  A    between atoms: _31  and  _33
REMARK                            x       y       z     vdW  Elec       q    Type
REMARK                         _______ _______ _______ _____ _____    ______ ____
ROOT
ATOM      1  C   UNL     1      26.929  15.966  -2.388  0.00  0.00    +0.400 C 
ATOM      2  N   UNL     1      27.465  15.319  -1.300  0.00  0.00    -0.278 N 
ATOM      3  H   UNL     1      27.894  16.112  -0.727  0.00  0.00    +0.152 HD
ATOM      4  O   UNL     1      26.893  17.194  -2.372  0.00  0.00    -0.226 OA
ENDROOT
BRANCH   1   5
ATOM      5  O   UNL     1      26.536  15.204  -3.355  0.00  0.00    -0.450 OA
BRANCH   5   6
ATOM      6  C   UNL     1      25.433  14.397  -3.699  0.00  0.00    +0.240 C 
BRANCH   6   7
ATOM      7  C   UNL     1      24.029  14.924  -3.345  0.00  0.00    +0.100 C 
BRANCH   7   9
ATOM      8  N   UNL     1      22.110  14.160  -1.984  0.00  0.00    -0.134 NA
ATOM      9  C   UNL     1      23.451  14.138  -2.239  0.00  0.00    +0.086 A 
ATOM     10  C   UNL     1      24.066  13.300  -1.338  0.00  0.00    +0.139 A 
ATOM     11  N   UNL     1      23.046  12.803  -0.559  0.00  0.00    -0.220 N 
ATOM     12  N   UNL     1      21.873  13.352  -0.959  0.00  0.00    -0.061 NA
BRANCH  11  13
ATOM     13  C   UNL     1      23.113  11.848   0.488  0.00  0.00    +0.067 A 
ATOM     14  C   UNL     1      21.946  11.329   1.065  0.00  0.00    +0.029 A 
ATOM     15  C   UNL     1      22.031  10.419   2.123  0.00  0.00    +0.017 A 
ATOM     16  C   UNL     1      23.279  10.024   2.603  0.00  0.00    +0.018 A 
ATOM     17 BR   UNL     1      23.387   8.815   4.051  0.00  0.00    -0.050 Br
ATOM     18  C   UNL     1      24.446  10.522   2.027  0.00  0.00    +0.017 A 
ATOM     19  C   UNL     1      24.366  11.431   0.969  0.00  0.00    +0.029 A 
ENDBRANCH  11  13
ENDBRANCH   7   9
ENDBRANCH   6   7
ENDBRANCH   5   6
ENDBRANCH   1   5
BRANCH   2  20
ATOM     20  C   UNL     1      27.692  14.065  -0.585  0.00  0.00    +0.152 C 
BRANCH  20  21
ATOM     21  C   UNL     1      28.981  13.300  -0.950  0.00  0.00    +0.193 C 
ATOM     22  O   UNL     1      28.918  13.032  -2.368  0.00  0.00    -0.219 OA
BRANCH  21  23
ATOM     23  C   UNL     1      30.327  14.032  -0.756  0.00  0.00    +0.212 C 
ATOM     24  O   UNL     1      30.111  15.442  -0.581  0.00  0.00    -0.218 OA
BRANCH  23  25
ATOM     25  C   UNL     1      31.159  13.494   0.471  0.00  0.00    +0.171 C 
ATOM     26  O   UNL     1      30.727  14.047   1.710  0.00  0.00    -0.343 OA
ATOM     27  C   UNL     1      31.432  13.936   2.911  0.00  0.00    +0.220 C 
ATOM     28  C   UNL     1      32.905  14.350   2.747  0.00  0.00    +0.076 C 
ATOM     29  C   UNL     1      33.487  13.538   1.578  0.00  0.00    +0.177 C 
ATOM     30  O   UNL     1      34.861  13.854   1.409  0.00  0.00    -0.221 OA
ATOM     31  C   UNL     1      32.676  13.818   0.274  0.00  0.00    +0.155 C 
BRANCH  31  32
ATOM     32  N   UNL     1      33.230  13.054  -0.841  0.00  0.00    -0.202 NA
ATOM     33  C   UNL     1      33.647  13.477  -2.061  0.00  0.00    +0.242 C 
ATOM     34  C   UNL     1      34.449  12.527  -2.912  0.00  0.00    +0.096 C 
ATOM     35  O   UNL     1      33.367  14.613  -2.438  0.00  0.00    -0.273 OA
ENDBRANCH  31  32
BRANCH  27  36
ATOM     36  C   UNL     1      31.296  12.476   3.609  0.00  0.00    +0.391 C 
ATOM     37  O   UNL     1      32.273  12.442   4.537  0.00  0.00    -0.243 OA
ATOM     38  O   UNL     1      30.110  11.991   3.224  0.00  0.00    -0.243 OA
ENDBRANCH  27  36
ENDBRANCH  23  25
ENDBRANCH  21  23
ENDBRANCH  20  21
ENDBRANCH   2  20
TORSDOF 11
