REMARK VINA RESULT:    -7.453      1.489      1.736
REMARK INTER + INTRA:         -14.053
REMARK INTER:                 -12.277
REMARK INTRA:                  -1.776
REMARK UNBOUND:                -1.808
REMARK  Name = lig_assembled_8.pdb
REMARK  11 active torsions:
REMARK  status: ('A' for Active; 'I' for Inactive)
REMARK    1  A    between atoms: _2  and  _8
REMARK    2  A    between atoms: _5  and  _6
REMARK    3  A    between atoms: _5  and  _13
REMARK    4  A    between atoms: _13  and  _15
REMARK    5  A    between atoms: _14  and  _19
REMARK    6  A    between atoms: _15  and  _18
REMARK    7  A    between atoms: _23  and  _33
REMARK    8  A    between atoms: _25  and  _26
REMARK    9  A    between atoms: _27  and  _29
REMARK   10  A    between atoms: _29  and  _31
REMARK   11  A    between atoms: _31  and  _33
REMARK                            x       y       z     vdW  Elec       q    Type
REMARK                         _______ _______ _______ _____ _____    ______ ____
ROOT
ATOM      1  C   UNL     1      28.003  17.157  -0.992  0.00  0.00    +0.400 C 
ATOM      2  N   UNL     1      28.091  15.839  -0.610  0.00  0.00    -0.278 N 
ATOM      3  H   UNL     1      28.449  15.897   0.396  0.00  0.00    +0.152 HD
ATOM      4  O   UNL     1      28.151  18.021  -0.131  0.00  0.00    -0.226 OA
ENDROOT
BRANCH   1   5
ATOM      5  O   UNL     1      27.800  17.362  -2.252  0.00  0.00    -0.450 OA
BRANCH   5   6
ATOM      6  C   UNL     1      26.726  17.497  -3.153  0.00  0.00    +0.240 C 
BRANCH   6   7
ATOM      7  C   UNL     1      26.558  16.408  -4.229  0.00  0.00    +0.100 C 
BRANCH   7   9
ATOM      8  N   UNL     1      25.524  14.170  -4.355  0.00  0.00    -0.134 NA
ATOM      9  C   UNL     1      25.567  15.407  -3.793  0.00  0.00    +0.086 A 
ATOM     10  C   UNL     1      24.589  15.492  -2.829  0.00  0.00    +0.139 A 
ATOM     11  N   UNL     1      23.971  14.253  -2.818  0.00  0.00    -0.219 N 
ATOM     12  N   UNL     1      24.556  13.486  -3.764  0.00  0.00    -0.061 NA
BRANCH  11  13
ATOM     13  C   UNL     1      22.913  13.803  -1.969  0.00  0.00    +0.081 A 
ATOM     14  C   UNL     1      23.219  12.844  -0.977  0.00  0.00    +0.029 A 
ATOM     15  C   UNL     1      22.236  12.337  -0.123  0.00  0.00    +0.002 A 
ATOM     16  C   UNL     1      20.926  12.773  -0.237  0.00  0.00    +0.001 A 
ATOM     17  C   UNL     1      20.601  13.723  -1.201  0.00  0.00    +0.017 A 
ATOM     18  C   UNL     1      21.579  14.247  -2.070  0.00  0.00    +0.043 A 
ATOM     19 BR   UNL     1      20.896  15.534  -3.296  0.00  0.00    -0.048 Br
ENDBRANCH  11  13
ENDBRANCH   7   9
ENDBRANCH   6   7
ENDBRANCH   5   6
ENDBRANCH   1   5
BRANCH   2  20
ATOM     20  C   UNL     1      27.906  14.430  -0.948  0.00  0.00    +0.152 C 
BRANCH  20  21
ATOM     21  C   UNL     1      28.833  13.430  -0.227  0.00  0.00    +0.193 C 
ATOM     22  O   UNL     1      28.463  12.113  -0.690  0.00  0.00    -0.219 OA
BRANCH  21  23
ATOM     23  C   UNL     1      30.348  13.527  -0.511  0.00  0.00    +0.212 C 
ATOM     24  O   UNL     1      30.707  14.872  -0.868  0.00  0.00    -0.218 OA
BRANCH  23  25
ATOM     25  C   UNL     1      31.242  13.074   0.707  0.00  0.00    +0.171 C 
ATOM     26  O   UNL     1      30.696  13.464   1.962  0.00  0.00    -0.343 OA
ATOM     27  C   UNL     1      31.388  13.409   3.174  0.00  0.00    +0.220 C 
ATOM     28  C   UNL     1      32.765  14.089   3.076  0.00  0.00    +0.076 C 
ATOM     29  C   UNL     1      33.504  13.466   1.880  0.00  0.00    +0.177 C 
ATOM     30  O   UNL     1      34.802  14.032   1.767  0.00  0.00    -0.221 OA
ATOM     31  C   UNL     1      32.679  13.675   0.571  0.00  0.00    +0.155 C 
BRANCH  31  32
ATOM     32  N   UNL     1      33.381  13.091  -0.569  0.00  0.00    -0.202 NA
ATOM     33  C   UNL     1      33.986  13.700  -1.620  0.00  0.00    +0.242 C 
ATOM     34  C   UNL     1      34.890  12.876  -2.501  0.00  0.00    +0.096 C 
ATOM     35  O   UNL     1      33.788  14.895  -1.826  0.00  0.00    -0.273 OA
ENDBRANCH  31  32
BRANCH  27  36
ATOM     36  C   UNL     1      31.505  11.909   3.785  0.00  0.00    +0.391 C 
ATOM     37  O   UNL     1      32.486  11.983   4.705  0.00  0.00    -0.243 OA
ATOM     38  O   UNL     1      30.410  11.256   3.376  0.00  0.00    -0.243 OA
ENDBRANCH  27  36
ENDBRANCH  23  25
ENDBRANCH  21  23
ENDBRANCH  20  21
ENDBRANCH   2  20
TORSDOF 11
