REMARK VINA RESULT:    -6.533      1.651      3.856
REMARK INTER + INTRA:         -13.216
REMARK INTER:                 -11.912
REMARK INTRA:                  -1.304
REMARK UNBOUND:                -1.336
REMARK  Name = lig_assembled_19.pdb
REMARK  15 active torsions:
REMARK  status: ('A' for Active; 'I' for Inactive)
REMARK    1  A    between atoms: _2  and  _8
REMARK    2  A    between atoms: _4  and  _10
REMARK    3  A    between atoms: _5  and  _6
REMARK    4  A    between atoms: _5  and  _13
REMARK    5  A    between atoms: _8  and  _9
REMARK    6  A    between atoms: _9  and  _12
REMARK    7  A    between atoms: _10  and  _12
REMARK    8  A    between atoms: _13  and  _15
REMARK    9  A    between atoms: _14  and  _19
REMARK   10  A    between atoms: _15  and  _18
REMARK   11  A    between atoms: _23  and  _33
REMARK   12  A    between atoms: _25  and  _26
REMARK   13  A    between atoms: _27  and  _29
REMARK   14  A    between atoms: _29  and  _31
REMARK   15  A    between atoms: _31  and  _33
REMARK                            x       y       z     vdW  Elec       q    Type
REMARK                         _______ _______ _______ _____ _____    ______ ____
ROOT
ATOM      1  C   UNL     1      29.163  15.165   0.216  0.00  0.00    +0.152 C 
ENDROOT
BRANCH   1   3
ATOM      2  C   UNL     1      27.907  17.387  -0.748  0.00  0.00    +0.400 C 
ATOM      3  N   UNL     1      28.579  16.493   0.052  0.00  0.00    -0.278 N 
ATOM      4  H   UNL     1      28.715  17.032   0.965  0.00  0.00    +0.152 HD
ATOM      5  O   UNL     1      27.486  18.421  -0.235  0.00  0.00    -0.226 OA
BRANCH   2   6
ATOM      6  O   UNL     1      27.810  17.060  -1.994  0.00  0.00    -0.450 OA
BRANCH   6   7
ATOM      7  C   UNL     1      26.899  17.180  -3.062  0.00  0.00    +0.240 C 
BRANCH   7   8
ATOM      8  C   UNL     1      26.464  15.885  -3.775  0.00  0.00    +0.100 C 
BRANCH   8  10
ATOM      9  N   UNL     1      25.627  14.172  -2.192  0.00  0.00    -0.134 NA
ATOM     10  C   UNL     1      25.376  15.228  -3.029  0.00  0.00    +0.086 A 
ATOM     11  C   UNL     1      24.027  15.501  -3.014  0.00  0.00    +0.133 A 
ATOM     12  N   UNL     1      23.515  14.572  -2.160  0.00  0.00    -0.248 N 
ATOM     13  N   UNL     1      24.476  13.777  -1.663  0.00  0.00    -0.065 NA
BRANCH  12  14
ATOM     14  C   UNL     1      22.135  14.394  -1.765  0.00  0.00    +0.186 C 
BRANCH  14  15
ATOM     15  C   UNL     1      21.822  12.935  -1.446  0.00  0.00    +0.255 C 
BRANCH  15  16
ATOM     16  O   UNL     1      20.939  12.800  -0.315  0.00  0.00    -0.463 OA
BRANCH  16  17
ATOM     17  C   UNL     1      21.339  11.933   0.652  0.00  0.00    +0.304 C 
ATOM     18  O   UNL     1      21.198  12.112   1.853  0.00  0.00    -0.251 OA
ATOM     19  C   UNL     1      21.946  10.703   0.049  0.00  0.00    +0.136 C 
ENDBRANCH  16  17
ENDBRANCH  15  16
ENDBRANCH  14  15
ENDBRANCH  12  14
ENDBRANCH   8  10
ENDBRANCH   7   8
ENDBRANCH   6   7
ENDBRANCH   2   6
ENDBRANCH   1   3
BRANCH   1  20
ATOM     20  C   UNL     1      30.517  14.927  -0.483  0.00  0.00    +0.193 C 
ATOM     21  O   UNL     1      31.202  16.198  -0.506  0.00  0.00    -0.219 OA
BRANCH  20  22
ATOM     22  C   UNL     1      31.514  13.964   0.198  0.00  0.00    +0.212 C 
ATOM     23  O   UNL     1      30.863  12.732   0.548  0.00  0.00    -0.218 OA
BRANCH  22  24
ATOM     24  C   UNL     1      32.772  13.634  -0.693  0.00  0.00    +0.171 C 
ATOM     25  O   UNL     1      32.428  12.948  -1.893  0.00  0.00    -0.343 OA
ATOM     26  C   UNL     1      33.351  12.327  -2.737  0.00  0.00    +0.220 C 
ATOM     27  C   UNL     1      34.292  11.388  -1.962  0.00  0.00    +0.076 C 
ATOM     28  C   UNL     1      34.911  12.200  -0.812  0.00  0.00    +0.177 C 
ATOM     29  O   UNL     1      35.822  11.388  -0.085  0.00  0.00    -0.221 OA
ATOM     30  C   UNL     1      33.788  12.762   0.115  0.00  0.00    +0.155 C 
BRANCH  30  31
ATOM     31  N   UNL     1      34.373  13.528   1.212  0.00  0.00    -0.202 NA
ATOM     32  C   UNL     1      34.328  13.301   2.550  0.00  0.00    +0.242 C 
ATOM     33  C   UNL     1      35.262  14.080   3.439  0.00  0.00    +0.096 C 
ATOM     34  O   UNL     1      33.537  12.474   2.999  0.00  0.00    -0.273 OA
ENDBRANCH  30  31
BRANCH  26  35
ATOM     35  C   UNL     1      34.181  13.368  -3.667  0.00  0.00    +0.391 C 
ATOM     36  O   UNL     1      35.338  12.738  -3.948  0.00  0.00    -0.243 OA
ATOM     37  O   UNL     1      33.303  14.305  -4.047  0.00  0.00    -0.243 OA
ENDBRANCH  26  35
ENDBRANCH  22  24
ENDBRANCH  20  22
ENDBRANCH   1  20
TORSDOF 14
