REMARK VINA RESULT:    -7.392      2.232      3.584
REMARK INTER + INTRA:         -13.985
REMARK INTER:                 -12.131
REMARK INTRA:                  -1.853
REMARK UNBOUND:                -1.407
REMARK  Name = lig_assembled_82.pdb
REMARK  14 active torsions:
REMARK  status: ('A' for Active; 'I' for Inactive)
REMARK    1  A    between atoms: _2  and  _8
REMARK    2  A    between atoms: _4  and  _15
REMARK    3  A    between atoms: _5  and  _6
REMARK    4  A    between atoms: _5  and  _17
REMARK    5  A    between atoms: _8  and  _9
REMARK    6  A    between atoms: _15  and  _16
REMARK    7  A    between atoms: _17  and  _19
REMARK    8  A    between atoms: _18  and  _23
REMARK    9  A    between atoms: _19  and  _22
REMARK   10  A    between atoms: _27  and  _37
REMARK   11  A    between atoms: _29  and  _30
REMARK   12  A    between atoms: _31  and  _33
REMARK   13  A    between atoms: _33  and  _35
REMARK   14  A    between atoms: _35  and  _37
REMARK                            x       y       z     vdW  Elec       q    Type
REMARK                         _______ _______ _______ _____ _____    ______ ____
ROOT
ATOM      1  C   UNL     1      28.045  17.190  -0.774  0.00  0.00    +0.400 C 
ATOM      2  N   UNL     1      28.497  16.047  -0.157  0.00  0.00    -0.278 N 
ATOM      3  H   UNL     1      28.639  16.354   0.857  0.00  0.00    +0.152 HD
ATOM      4  O   UNL     1      27.751  18.152  -0.069  0.00  0.00    -0.226 OA
ENDROOT
BRANCH   2   5
ATOM      5  C   UNL     1      28.847  14.633  -0.259  0.00  0.00    +0.152 C 
BRANCH   5   6
ATOM      6  C   UNL     1      29.998  14.151   0.647  0.00  0.00    +0.193 C 
ATOM      7  O   UNL     1      31.051  15.135   0.540  0.00  0.00    -0.219 OA
BRANCH   6   8
ATOM      8  C   UNL     1      29.720  14.047   2.162  0.00  0.00    +0.212 C 
ATOM      9  O   UNL     1      28.342  14.342   2.441  0.00  0.00    -0.218 OA
BRANCH   8  10
ATOM     10  C   UNL     1      30.064  12.631   2.765  0.00  0.00    +0.171 C 
ATOM     11  O   UNL     1      29.040  12.137   3.622  0.00  0.00    -0.343 OA
ATOM     12  C   UNL     1      29.186  11.037   4.470  0.00  0.00    +0.220 C 
ATOM     13  C   UNL     1      30.453  11.146   5.335  0.00  0.00    +0.076 C 
ATOM     14  C   UNL     1      31.639  11.395   4.389  0.00  0.00    +0.177 C 
ATOM     15  O   UNL     1      32.845  11.465   5.136  0.00  0.00    -0.221 OA
ATOM     16  C   UNL     1      31.406  12.700   3.566  0.00  0.00    +0.155 C 
BRANCH  16  17
ATOM     17  N   UNL     1      32.534  12.944   2.670  0.00  0.00    -0.202 NA
ATOM     18  C   UNL     1      33.518  13.876   2.748  0.00  0.00    +0.242 C 
ATOM     19  C   UNL     1      34.722  13.720   1.856  0.00  0.00    +0.096 C 
ATOM     20  O   UNL     1      33.406  14.813   3.535  0.00  0.00    -0.273 OA
ENDBRANCH  16  17
BRANCH  12  21
ATOM     21  C   UNL     1      29.112   9.610   3.697  0.00  0.00    +0.391 C 
ATOM     22  O   UNL     1      29.602   8.713   4.575  0.00  0.00    -0.243 OA
ATOM     23  O   UNL     1      28.334   9.809   2.626  0.00  0.00    -0.243 OA
ENDBRANCH  12  21
ENDBRANCH   8  10
ENDBRANCH   6   8
ENDBRANCH   5   6
ENDBRANCH   2   5
BRANCH   1  24
ATOM     24  O   UNL     1      28.002  17.149  -2.066  0.00  0.00    -0.450 OA
BRANCH  24  25
ATOM     25  C   UNL     1      27.149  17.531  -3.119  0.00  0.00    +0.240 C 
BRANCH  25  26
ATOM     26  C   UNL     1      26.605  16.417  -4.034  0.00  0.00    +0.100 C 
BRANCH  26  28
ATOM     27  N   UNL     1      24.592  15.601  -2.849  0.00  0.00    -0.134 NA
ATOM     28  C   UNL     1      25.891  15.402  -3.254  0.00  0.00    +0.086 A 
ATOM     29  C   UNL     1      26.309  14.168  -2.791  0.00  0.00    +0.134 A 
ATOM     30  N   UNL     1      25.273  13.735  -2.012  0.00  0.00    -0.247 N 
ATOM     31  N   UNL     1      24.214  14.558  -2.125  0.00  0.00    -0.065 NA
BRANCH  30  32
ATOM     32  C   UNL     1      25.247  12.612  -1.071  0.00  0.00    +0.176 C 
BRANCH  32  33
ATOM     33  C   UNL     1      23.907  11.919  -1.032  0.00  0.00    -0.049 C 
ATOM     34  C   UNL     1      23.316  11.620   0.309  0.00  0.00    +0.023 C 
ATOM     35  C   UNL     1      21.734  11.729   0.482  0.00  0.00    -0.025 C 
ATOM     36  C   UNL     1      20.709  12.662  -0.174  0.00  0.00    +0.012 C 
ATOM     37  C   UNL     1      21.772  10.341  -0.311  0.00  0.00    -0.000 C 
ATOM     38  C   UNL     1      22.051  10.473  -1.841  0.00  0.00    +0.031 C 
ATOM     39  C   UNL     1      21.539  11.891   2.011  0.00  0.00    +0.012 C 
ATOM     40  C   UNL     1      23.097  10.060   0.445  0.00  0.00    +0.012 C 
ATOM     41  C   UNL     1      23.253  11.374  -2.077  0.00  0.00    -0.025 C 
ENDBRANCH  32  33
ENDBRANCH  30  32
ENDBRANCH  26  28
ENDBRANCH  25  26
ENDBRANCH  24  25
ENDBRANCH   1  24
TORSDOF 12
