REMARK VINA RESULT:    -6.384      2.466     10.079
REMARK INTER + INTRA:         -12.781
REMARK INTER:                 -10.630
REMARK INTRA:                  -2.151
REMARK UNBOUND:                -1.919
REMARK  Name = lig_assembled_41.pdb
REMARK  13 active torsions:
REMARK  status: ('A' for Active; 'I' for Inactive)
REMARK    1  A    between atoms: _2  and  _8
REMARK    2  A    between atoms: _5  and  _6
REMARK    3  A    between atoms: _5  and  _16
REMARK    4  A    between atoms: _9  and  _10
REMARK    5  A    between atoms: _10  and  _11
REMARK    6  A    between atoms: _16  and  _18
REMARK    7  A    between atoms: _17  and  _22
REMARK    8  A    between atoms: _18  and  _21
REMARK    9  A    between atoms: _26  and  _36
REMARK   10  A    between atoms: _28  and  _29
REMARK   11  A    between atoms: _30  and  _32
REMARK   12  A    between atoms: _32  and  _34
REMARK   13  A    between atoms: _34  and  _36
REMARK                            x       y       z     vdW  Elec       q    Type
REMARK                         _______ _______ _______ _____ _____    ______ ____
ROOT
ATOM      1  C   UNL     1      27.481  17.474  -2.026  0.00  0.00    +0.400 C 
ATOM      2  N   UNL     1      26.682  17.168  -3.102  0.00  0.00    -0.278 N 
ATOM      3  H   UNL     1      26.051  18.025  -3.194  0.00  0.00    +0.152 HD
ATOM      4  O   UNL     1      27.434  18.617  -1.576  0.00  0.00    -0.226 OA
ENDROOT
BRANCH   2   5
ATOM      5  C   UNL     1      26.327  16.225  -4.160  0.00  0.00    +0.152 C 
BRANCH   5   6
ATOM      6  C   UNL     1      25.741  14.875  -3.699  0.00  0.00    +0.193 C 
ATOM      7  O   UNL     1      26.857  14.056  -3.288  0.00  0.00    -0.219 OA
BRANCH   6   8
ATOM      8  C   UNL     1      24.799  14.886  -2.474  0.00  0.00    +0.212 C 
ATOM      9  O   UNL     1      24.081  16.128  -2.404  0.00  0.00    -0.218 OA
BRANCH   8  10
ATOM     10  C   UNL     1      23.759  13.702  -2.476  0.00  0.00    +0.171 C 
ATOM     11  O   UNL     1      22.411  14.157  -2.542  0.00  0.00    -0.343 OA
ATOM     12  C   UNL     1      21.295  13.349  -2.317  0.00  0.00    +0.220 C 
ATOM     13  C   UNL     1      21.417  12.561  -1.000  0.00  0.00    +0.076 C 
ATOM     14  C   UNL     1      22.761  11.815  -1.031  0.00  0.00    +0.177 C 
ATOM     15  O   UNL     1      22.907  11.037   0.149  0.00  0.00    -0.221 OA
ATOM     16  C   UNL     1      23.936  12.829  -1.191  0.00  0.00    +0.155 C 
BRANCH  16  17
ATOM     17  N   UNL     1      25.215  12.124  -1.214  0.00  0.00    -0.202 NA
ATOM     18  C   UNL     1      26.103  11.905  -0.211  0.00  0.00    +0.242 C 
ATOM     19  C   UNL     1      27.200  10.897  -0.434  0.00  0.00    +0.096 C 
ATOM     20  O   UNL     1      25.993  12.526   0.845  0.00  0.00    -0.273 OA
ENDBRANCH  16  17
BRANCH  12  21
ATOM     21  C   UNL     1      20.939  12.372  -3.565  0.00  0.00    +0.391 C 
ATOM     22  O   UNL     1      20.211  11.374  -3.029  0.00  0.00    -0.243 OA
ATOM     23  O   UNL     1      21.233  13.065  -4.672  0.00  0.00    -0.243 OA
ENDBRANCH  12  21
ENDBRANCH   8  10
ENDBRANCH   6   8
ENDBRANCH   5   6
ENDBRANCH   2   5
BRANCH   1  24
ATOM     24  O   UNL     1      28.196  16.501  -1.564  0.00  0.00    -0.450 OA
BRANCH  24  25
ATOM     25  C   UNL     1      28.924  16.167  -0.406  0.00  0.00    +0.240 C 
BRANCH  25  26
ATOM     26  C   UNL     1      28.577  14.838   0.292  0.00  0.00    +0.100 C 
BRANCH  26  28
ATOM     27  N   UNL     1      29.833  12.872   1.095  0.00  0.00    -0.134 NA
ATOM     28  C   UNL     1      29.795  14.209   0.834  0.00  0.00    +0.086 A 
ATOM     29  C   UNL     1      31.021  14.761   1.135  0.00  0.00    +0.139 A 
ATOM     30  N   UNL     1      31.752  13.734   1.686  0.00  0.00    -0.219 N 
ATOM     31  N   UNL     1      31.038  12.580   1.561  0.00  0.00    -0.061 NA
BRANCH  30  32
ATOM     32  C   UNL     1      33.076  13.710   2.210  0.00  0.00    +0.077 A 
ATOM     33  C   UNL     1      34.233  13.410   1.459  0.00  0.00    +0.043 A 
ATOM     34  C   UNL     1      35.479  13.373   2.118  0.00  0.00    +0.013 A 
ATOM     35  C   UNL     1      35.583  13.617   3.490  0.00  0.00    +0.001 A 
ATOM     36  C   UNL     1      34.450  13.936   4.223  0.00  0.00    +0.002 A 
ATOM     37  C   UNL     1      33.210  13.993   3.588  0.00  0.00    +0.028 A 
BRANCH  33  38
ATOM     38  C   UNL     1      34.260  13.334  -0.034  0.00  0.00    +0.162 C 
ATOM     39  O   UNL     1      34.522  14.344  -0.684  0.00  0.00    -0.292 OA
ATOM     40  C   UNL     1      33.973  12.028  -0.735  0.00  0.00    +0.091 C 
ENDBRANCH  33  38
ENDBRANCH  30  32
ENDBRANCH  26  28
ENDBRANCH  25  26
ENDBRANCH  24  25
ENDBRANCH   1  24
TORSDOF 12
