REMARK VINA RESULT:    -6.528      1.525      3.539
REMARK INTER + INTRA:         -12.893
REMARK INTER:                 -11.782
REMARK INTRA:                  -1.111
REMARK UNBOUND:                -2.168
REMARK  Name = lig_assembled_86.pdb
REMARK  12 active torsions:
REMARK  status: ('A' for Active; 'I' for Inactive)
REMARK    1  A    between atoms: _2  and  _9
REMARK    2  A    between atoms: _3  and  _12
REMARK    3  A    between atoms: _6  and  _7
REMARK    4  A    between atoms: _6  and  _16
REMARK    5  A    between atoms: _16  and  _18
REMARK    6  A    between atoms: _17  and  _22
REMARK    7  A    between atoms: _18  and  _21
REMARK    8  A    between atoms: _26  and  _36
REMARK    9  A    between atoms: _28  and  _29
REMARK   10  A    between atoms: _30  and  _32
REMARK   11  A    between atoms: _32  and  _34
REMARK   12  A    between atoms: _34  and  _36
REMARK                            x       y       z     vdW  Elec       q    Type
REMARK                         _______ _______ _______ _____ _____    ______ ____
ROOT
ATOM      1  C   UNL     1      27.896  17.406  -0.542  0.00  0.00    +0.400 C 
ATOM      2  N   UNL     1      28.560  16.484   0.232  0.00  0.00    -0.278 N 
ATOM      3  H   UNL     1      28.680  16.987   1.167  0.00  0.00    +0.152 HD
ATOM      4  O   UNL     1      27.463  18.417   0.004  0.00  0.00    -0.226 OA
ENDROOT
BRANCH   1   5
ATOM      5  O   UNL     1      27.819  17.127  -1.802  0.00  0.00    -0.450 OA
BRANCH   5   6
ATOM      6  C   UNL     1      27.128  16.251  -2.662  0.00  0.00    +0.240 C 
BRANCH   6   7
ATOM      7  C   UNL     1      26.249  16.880  -3.760  0.00  0.00    +0.100 C 
BRANCH   7   9
ATOM      8  N   UNL     1      25.301  15.100  -5.204  0.00  0.00    -0.134 NA
ATOM      9  C   UNL     1      25.166  15.952  -4.139  0.00  0.00    +0.086 A 
ATOM     10  C   UNL     1      23.935  15.753  -3.561  0.00  0.00    +0.134 A 
ATOM     11  N   UNL     1      23.384  14.747  -4.295  0.00  0.00    -0.248 N 
ATOM     12  N   UNL     1      24.193  14.377  -5.301  0.00  0.00    -0.065 NA
BRANCH  11  13
ATOM     13  C   UNL     1      22.100  14.097  -4.077  0.00  0.00    +0.112 C 
ATOM     14  C   UNL     1      22.260  12.590  -3.793  0.00  0.00    +0.045 C 
ATOM     15  C   UNL     1      21.437  12.072  -2.610  0.00  0.00    +0.059 C 
ATOM     16  C   UNL     1      22.079  12.467  -1.276  0.00  0.00    +0.020 C 
ATOM     17  C   UNL     1      21.386  13.770  -0.887  0.00  0.00    +0.020 C 
ATOM     18  C   UNL     1      20.455  14.075  -2.063  0.00  0.00    +0.059 C 
ATOM     19  N   UNL     1      20.130  12.719  -2.503  0.00  0.00    -0.299 NA
ATOM     20  C   UNL     1      19.249  12.606  -3.650  0.00  0.00    +0.105 C 
ATOM     21  C   UNL     1      21.170  14.902  -3.140  0.00  0.00    +0.045 C 
ENDBRANCH  11  13
ENDBRANCH   7   9
ENDBRANCH   6   7
ENDBRANCH   5   6
ENDBRANCH   1   5
BRANCH   2  22
ATOM     22  C   UNL     1      29.147  15.152   0.351  0.00  0.00    +0.152 C 
BRANCH  22  23
ATOM     23  C   UNL     1      30.446  14.908  -0.445  0.00  0.00    +0.193 C 
ATOM     24  O   UNL     1      31.151  16.168  -0.485  0.00  0.00    -0.219 OA
BRANCH  23  25
ATOM     25  C   UNL     1      31.469  13.912   0.144  0.00  0.00    +0.212 C 
ATOM     26  O   UNL     1      30.838  12.654   0.430  0.00  0.00    -0.218 OA
BRANCH  25  27
ATOM     27  C   UNL     1      32.704  13.653  -0.802  0.00  0.00    +0.171 C 
ATOM     28  O   UNL     1      32.344  12.963  -1.994  0.00  0.00    -0.343 OA
ATOM     29  C   UNL     1      33.261  12.396  -2.883  0.00  0.00    +0.220 C 
ATOM     30  C   UNL     1      34.278  11.498  -2.158  0.00  0.00    +0.076 C 
ATOM     31  C   UNL     1      34.904  12.328  -1.025  0.00  0.00    +0.177 C 
ATOM     32  O   UNL     1      35.883  11.555  -0.345  0.00  0.00    -0.221 OA
ATOM     33  C   UNL     1      33.794  12.825  -0.047  0.00  0.00    +0.155 C 
BRANCH  33  34
ATOM     34  N   UNL     1      34.385  13.608   1.035  0.00  0.00    -0.202 NA
ATOM     35  C   UNL     1      34.285  13.446   2.379  0.00  0.00    +0.242 C 
ATOM     36  C   UNL     1      35.232  14.213   3.265  0.00  0.00    +0.096 C 
ATOM     37  O   UNL     1      33.436  12.685   2.838  0.00  0.00    -0.273 OA
ENDBRANCH  33  34
BRANCH  29  38
ATOM     38  C   UNL     1      34.000  13.487  -3.834  0.00  0.00    +0.391 C 
ATOM     39  O   UNL     1      35.295  13.117  -3.845  0.00  0.00    -0.243 OA
ATOM     40  O   UNL     1      33.023  14.140  -4.476  0.00  0.00    -0.243 OA
ENDBRANCH  29  38
ENDBRANCH  25  27
ENDBRANCH  23  25
ENDBRANCH  22  23
ENDBRANCH   2  22
TORSDOF 11
