REMARK VINA RESULT:    -6.188      1.352      1.759
REMARK INTER + INTRA:         -13.581
REMARK INTER:                 -11.580
REMARK INTRA:                  -2.001
REMARK UNBOUND:                -1.966
REMARK  Name = lig_assembled_17.pdb
REMARK  17 active torsions:
REMARK  status: ('A' for Active; 'I' for Inactive)
REMARK    1  A    between atoms: _2  and  _9
REMARK    2  A    between atoms: _3  and  _10
REMARK    3  A    between atoms: _3  and  _11
REMARK    4  A    between atoms: _3  and  _13
REMARK    5  A    between atoms: _5  and  _13
REMARK    6  A    between atoms: _6  and  _7
REMARK    7  A    between atoms: _6  and  _14
REMARK    8  A    between atoms: _9  and  _10
REMARK    9  A    between atoms: _11  and  _12
REMARK   10  A    between atoms: _14  and  _16
REMARK   11  A    between atoms: _15  and  _20
REMARK   12  A    between atoms: _16  and  _19
REMARK   13  A    between atoms: _24  and  _34
REMARK   14  A    between atoms: _26  and  _27
REMARK   15  A    between atoms: _28  and  _30
REMARK   16  A    between atoms: _30  and  _32
REMARK   17  A    between atoms: _32  and  _34
REMARK                            x       y       z     vdW  Elec       q    Type
REMARK                         _______ _______ _______ _____ _____    ______ ____
ROOT
ATOM      1  C   UNL     1      27.562  17.448  -1.653  0.00  0.00    +0.400 C 
ATOM      2  N   UNL     1      27.862  16.237  -1.076  0.00  0.00    -0.278 N 
ATOM      3  H   UNL     1      28.160  16.503  -0.084  0.00  0.00    +0.152 HD
ATOM      4  O   UNL     1      27.520  18.440  -0.930  0.00  0.00    -0.226 OA
ENDROOT
BRANCH   2   5
ATOM      5  C   UNL     1      27.939  14.784  -1.201  0.00  0.00    +0.152 C 
BRANCH   5   6
ATOM      6  C   UNL     1      28.862  14.063  -0.197  0.00  0.00    +0.193 C 
ATOM      7  O   UNL     1      28.627  12.647  -0.359  0.00  0.00    -0.219 OA
BRANCH   6   8
ATOM      8  C   UNL     1      30.387  14.225  -0.383  0.00  0.00    +0.212 C 
ATOM      9  O   UNL     1      30.744  15.617  -0.413  0.00  0.00    -0.218 OA
BRANCH   8  10
ATOM     10  C   UNL     1      31.233  13.512   0.740  0.00  0.00    +0.171 C 
ATOM     11  O   UNL     1      30.841  13.903   2.052  0.00  0.00    -0.343 OA
ATOM     12  C   UNL     1      31.570  13.619   3.209  0.00  0.00    +0.220 C 
ATOM     13  C   UNL     1      33.048  14.020   3.065  0.00  0.00    +0.076 C 
ATOM     14  C   UNL     1      33.584  13.360   1.784  0.00  0.00    +0.177 C 
ATOM     15  O   UNL     1      34.962  13.668   1.625  0.00  0.00    -0.221 OA
ATOM     16  C   UNL     1      32.752  13.828   0.550  0.00  0.00    +0.155 C 
BRANCH  16  17
ATOM     17  N   UNL     1      33.263  13.209  -0.670  0.00  0.00    -0.202 NA
ATOM     18  C   UNL     1      33.719  13.786  -1.811  0.00  0.00    +0.242 C 
ATOM     19  C   UNL     1      34.463  12.926  -2.800  0.00  0.00    +0.096 C 
ATOM     20  O   UNL     1      33.519  14.982  -2.009  0.00  0.00    -0.273 OA
ENDBRANCH  16  17
BRANCH  12  21
ATOM     21  C   UNL     1      31.415  12.081   3.710  0.00  0.00    +0.391 C 
ATOM     22  O   UNL     1      32.389  11.914   4.626  0.00  0.00    -0.243 OA
ATOM     23  O   UNL     1      30.224  11.664   3.263  0.00  0.00    -0.243 OA
ENDBRANCH  12  21
ENDBRANCH   8  10
ENDBRANCH   6   8
ENDBRANCH   5   6
ENDBRANCH   2   5
BRANCH   1  24
ATOM     24  O   UNL     1      27.381  17.428  -2.933  0.00  0.00    -0.450 OA
BRANCH  24  25
ATOM     25  C   UNL     1      26.735  16.645  -3.909  0.00  0.00    +0.240 C 
BRANCH  25  26
ATOM     26  C   UNL     1      25.197  16.570  -3.856  0.00  0.00    +0.100 C 
BRANCH  26  28
ATOM     27  N   UNL     1      25.341  14.119  -3.569  0.00  0.00    -0.134 NA
ATOM     28  C   UNL     1      24.771  15.313  -3.215  0.00  0.00    +0.086 A 
ATOM     29  C   UNL     1      23.832  15.091  -2.232  0.00  0.00    +0.133 A 
ATOM     30  N   UNL     1      23.894  13.748  -2.021  0.00  0.00    -0.250 N 
ATOM     31  N   UNL     1      24.792  13.163  -2.832  0.00  0.00    -0.065 NA
BRANCH  30  32
ATOM     32  C   UNL     1      23.175  12.953  -1.046  0.00  0.00    +0.160 C 
BRANCH  32  33
ATOM     33  C   UNL     1      24.146  12.070  -0.247  0.00  0.00    +0.107 C 
BRANCH  33  34
ATOM     34  N   UNL     1      23.524  11.031   0.610  0.00  0.00    -0.301 NA
BRANCH  34  35
ATOM     35  C   UNL     1      22.078  11.312   0.726  0.00  0.00    +0.081 C 
ATOM     36  C   UNL     1      21.612  11.712   2.123  0.00  0.00    +0.020 C 
ENDBRANCH  34  35
BRANCH  34  37
ATOM     37  C   UNL     1      24.194  10.872   1.914  0.00  0.00    +0.081 C 
ATOM     38  C   UNL     1      25.478  11.672   2.122  0.00  0.00    +0.020 C 
ENDBRANCH  34  37
ENDBRANCH  33  34
ENDBRANCH  32  33
ENDBRANCH  30  32
ENDBRANCH  26  28
ENDBRANCH  25  26
ENDBRANCH  24  25
ENDBRANCH   1  24
TORSDOF 15
