REMARK VINA RESULT:    -6.175      3.902      8.831
REMARK INTER + INTRA:         -11.691
REMARK INTER:                 -10.146
REMARK INTRA:                  -1.545
REMARK UNBOUND:                -1.545
REMARK  Name = lig_assembled_48.pdb
REMARK  11 active torsions:
REMARK  status: ('A' for Active; 'I' for Inactive)
REMARK    1  A    between atoms: _2  and  _8
REMARK    2  A    between atoms: _5  and  _6
REMARK    3  A    between atoms: _5  and  _13
REMARK    4  A    between atoms: _13  and  _15
REMARK    5  A    between atoms: _14  and  _19
REMARK    6  A    between atoms: _15  and  _18
REMARK    7  A    between atoms: _23  and  _33
REMARK    8  A    between atoms: _25  and  _26
REMARK    9  A    between atoms: _27  and  _29
REMARK   10  A    between atoms: _29  and  _31
REMARK   11  A    between atoms: _31  and  _33
REMARK                            x       y       z     vdW  Elec       q    Type
REMARK                         _______ _______ _______ _____ _____    ______ ____
ROOT
ATOM      1  C   UNL     1      26.731  15.448  -2.416  0.00  0.00    +0.152 C 
ENDROOT
BRANCH   1   3
ATOM      2  C   UNL     1      27.899  17.475  -1.011  0.00  0.00    +0.400 C 
ATOM      3  N   UNL     1      26.986  16.632  -1.599  0.00  0.00    -0.278 N 
ATOM      4  H   UNL     1      26.044  17.063  -1.334  0.00  0.00    +0.152 HD
ATOM      5  O   UNL     1      27.489  18.528  -0.529  0.00  0.00    -0.226 OA
BRANCH   2   6
ATOM      6  O   UNL     1      29.121  17.053  -0.996  0.00  0.00    -0.450 OA
BRANCH   6   7
ATOM      7  C   UNL     1      30.184  16.893  -0.086  0.00  0.00    +0.240 C 
BRANCH   7   8
ATOM      8  C   UNL     1      30.723  15.466   0.133  0.00  0.00    +0.100 C 
BRANCH   8  10
ATOM      9  N   UNL     1      29.270  13.639  -0.676  0.00  0.00    -0.134 NA
ATOM     10  C   UNL     1      29.604  14.524   0.310  0.00  0.00    +0.086 A 
ATOM     11  C   UNL     1      28.767  14.333   1.388  0.00  0.00    +0.134 A 
ATOM     12  N   UNL     1      28.008  13.257   1.036  0.00  0.00    -0.248 N 
ATOM     13  N   UNL     1      28.266  12.894  -0.239  0.00  0.00    -0.065 NA
BRANCH  12  14
ATOM     14  C   UNL     1      27.064  12.463   1.814  0.00  0.00    +0.109 C 
ATOM     15  C   UNL     1      27.245  10.959   1.538  0.00  0.00    +0.027 C 
ATOM     16  C   UNL     1      28.529  10.425   2.169  0.00  0.00    +0.002 C 
ATOM     17  C   UNL     1      28.518  10.630   3.679  0.00  0.00    +0.000 C 
ATOM     18  C   UNL     1      28.265  12.085   4.069  0.00  0.00    +0.002 C 
ATOM     19  C   UNL     1      27.073  12.711   3.336  0.00  0.00    +0.027 C 
ENDBRANCH  12  14
ENDBRANCH   8  10
ENDBRANCH   7   8
ENDBRANCH   6   7
ENDBRANCH   2   6
ENDBRANCH   1   3
BRANCH   1  20
ATOM     20  C   UNL     1      25.690  15.611  -3.543  0.00  0.00    +0.193 C 
ATOM     21  O   UNL     1      26.349  16.317  -4.618  0.00  0.00    -0.219 OA
BRANCH  20  22
ATOM     22  C   UNL     1      25.144  14.326  -4.203  0.00  0.00    +0.212 C 
ATOM     23  O   UNL     1      26.223  13.519  -4.700  0.00  0.00    -0.218 OA
BRANCH  22  24
ATOM     24  C   UNL     1      24.266  13.449  -3.230  0.00  0.00    +0.171 C 
ATOM     25  O   UNL     1      24.928  12.258  -2.819  0.00  0.00    -0.343 OA
ATOM     26  C   UNL     1      24.303  11.194  -2.164  0.00  0.00    +0.220 C 
ATOM     27  C   UNL     1      23.026  10.745  -2.896  0.00  0.00    +0.076 C 
ATOM     28  C   UNL     1      22.146  11.989  -3.097  0.00  0.00    +0.177 C 
ATOM     29  O   UNL     1      20.931  11.622  -3.736  0.00  0.00    -0.221 OA
ATOM     30  C   UNL     1      22.917  13.066  -3.922  0.00  0.00    +0.155 C 
BRANCH  30  31
ATOM     31  N   UNL     1      22.081  14.247  -4.121  0.00  0.00    -0.202 NA
ATOM     32  C   UNL     1      21.541  15.092  -3.207  0.00  0.00    +0.242 C 
ATOM     33  C   UNL     1      20.967  16.398  -3.691  0.00  0.00    +0.096 C 
ATOM     34  O   UNL     1      21.534  14.777  -2.018  0.00  0.00    -0.273 OA
ENDBRANCH  30  31
BRANCH  26  35
ATOM     35  C   UNL     1      24.019  11.481  -0.590  0.00  0.00    +0.391 C 
ATOM     36  O   UNL     1      23.764  10.270  -0.057  0.00  0.00    -0.243 OA
ATOM     37  O   UNL     1      24.433  12.733  -0.362  0.00  0.00    -0.243 OA
ENDBRANCH  26  35
ENDBRANCH  22  24
ENDBRANCH  20  22
ENDBRANCH   1  20
TORSDOF 11
