REMARK VINA RESULT:    -6.638      2.984      8.530
REMARK INTER + INTRA:         -14.203
REMARK INTER:                 -11.663
REMARK INTRA:                  -2.540
REMARK UNBOUND:                -2.327
REMARK  Name = lig_assembled_68.pdb
REMARK  14 active torsions:
REMARK  status: ('A' for Active; 'I' for Inactive)
REMARK    1  A    between atoms: _2  and  _8
REMARK    2  A    between atoms: _5  and  _6
REMARK    3  A    between atoms: _5  and  _16
REMARK    4  A    between atoms: _8  and  _9
REMARK    5  A    between atoms: _9  and  _10
REMARK    6  A    between atoms: _9  and  _15
REMARK    7  A    between atoms: _16  and  _18
REMARK    8  A    between atoms: _17  and  _22
REMARK    9  A    between atoms: _18  and  _21
REMARK   10  A    between atoms: _26  and  _36
REMARK   11  A    between atoms: _28  and  _29
REMARK   12  A    between atoms: _30  and  _32
REMARK   13  A    between atoms: _32  and  _34
REMARK   14  A    between atoms: _34  and  _36
REMARK                            x       y       z     vdW  Elec       q    Type
REMARK                         _______ _______ _______ _____ _____    ______ ____
ROOT
ATOM      1  C   UNL     1      25.779  16.299  -4.232  0.00  0.00    +0.400 C 
ATOM      2  N   UNL     1      24.531  15.813  -3.920  0.00  0.00    -0.278 N 
ATOM      3  H   UNL     1      24.309  15.159  -4.735  0.00  0.00    +0.152 HD
ATOM      4  O   UNL     1      26.381  15.786  -5.171  0.00  0.00    -0.226 OA
ENDROOT
BRANCH   2   5
ATOM      5  C   UNL     1      23.406  15.780  -2.989  0.00  0.00    +0.152 C 
BRANCH   5   6
ATOM      6  C   UNL     1      22.262  14.807  -3.340  0.00  0.00    +0.193 C 
ATOM      7  O   UNL     1      21.490  15.434  -4.388  0.00  0.00    -0.219 OA
BRANCH   6   8
ATOM      8  C   UNL     1      22.648  13.428  -3.918  0.00  0.00    +0.212 C 
ATOM      9  O   UNL     1      22.859  13.520  -5.337  0.00  0.00    -0.218 OA
BRANCH   8  10
ATOM     10  C   UNL     1      23.940  12.813  -3.257  0.00  0.00    +0.171 C 
ATOM     11  O   UNL     1      25.071  12.853  -4.121  0.00  0.00    -0.343 OA
ATOM     12  C   UNL     1      26.265  12.168  -3.889  0.00  0.00    +0.220 C 
ATOM     13  C   UNL     1      26.018  10.682  -3.575  0.00  0.00    +0.076 C 
ATOM     14  C   UNL     1      25.000  10.615  -2.425  0.00  0.00    +0.177 C 
ATOM     15  O   UNL     1      24.765   9.260  -2.068  0.00  0.00    -0.221 OA
ATOM     16  C   UNL     1      23.676  11.330  -2.838  0.00  0.00    +0.155 C 
BRANCH  16  17
ATOM     17  N   UNL     1      22.702  11.262  -1.751  0.00  0.00    -0.202 NA
ATOM     18  C   UNL     1      22.717  11.865  -0.535  0.00  0.00    +0.242 C 
ATOM     19  C   UNL     1      21.449  11.863   0.279  0.00  0.00    +0.096 C 
ATOM     20  O   UNL     1      23.750  12.395  -0.131  0.00  0.00    -0.273 OA
ENDBRANCH  16  17
BRANCH  12  21
ATOM     21  C   UNL     1      27.205  12.867  -2.764  0.00  0.00    +0.391 C 
ATOM     22  O   UNL     1      26.389  13.716  -2.109  0.00  0.00    -0.243 OA
ATOM     23  O   UNL     1      28.326  12.137  -2.711  0.00  0.00    -0.243 OA
ENDBRANCH  12  21
ENDBRANCH   8  10
ENDBRANCH   6   8
ENDBRANCH   5   6
ENDBRANCH   2   5
BRANCH   1  24
ATOM     24  O   UNL     1      26.191  17.289  -3.510  0.00  0.00    -0.450 OA
BRANCH  24  25
ATOM     25  C   UNL     1      27.375  17.746  -2.900  0.00  0.00    +0.240 C 
BRANCH  25  26
ATOM     26  C   UNL     1      27.420  17.765  -1.360  0.00  0.00    +0.100 C 
BRANCH  26  28
ATOM     27  N   UNL     1      29.734  17.505  -0.509  0.00  0.00    -0.134 NA
ATOM     28  C   UNL     1      28.537  16.941  -0.867  0.00  0.00    +0.086 A 
ATOM     29  C   UNL     1      28.613  15.579  -0.688  0.00  0.00    +0.133 A 
ATOM     30  N   UNL     1      29.875  15.378  -0.213  0.00  0.00    -0.249 N 
ATOM     31  N   UNL     1      30.551  16.536  -0.117  0.00  0.00    -0.065 NA
BRANCH  30  32
ATOM     32  C   UNL     1      30.527  14.117   0.069  0.00  0.00    +0.181 C 
BRANCH  32  33
ATOM     33  C   UNL     1      30.361  13.693   1.534  0.00  0.00    +0.166 C 
BRANCH  33  34
ATOM     34  C   UNL     1      28.982  13.148   1.877  0.00  0.00    -0.017 A 
ATOM     35  C   UNL     1      28.319  12.339   0.936  0.00  0.00    +0.006 A 
ATOM     36  C   UNL     1      27.064  11.796   1.220  0.00  0.00    +0.000 A 
ATOM     37  C   UNL     1      26.456  12.047   2.445  0.00  0.00    +0.000 A 
ATOM     38  C   UNL     1      27.106  12.828   3.395  0.00  0.00    +0.000 A 
ATOM     39  C   UNL     1      28.363  13.372   3.115  0.00  0.00    +0.006 A 
ENDBRANCH  33  34
BRANCH  33  40
ATOM     40  O   UNL     1      30.611  14.824   2.378  0.00  0.00    -0.385 OA
ATOM     41  H   UNL     1      30.024  14.761   3.150  0.00  0.00    +0.210 HD
ENDBRANCH  33  40
ENDBRANCH  32  33
ENDBRANCH  30  32
ENDBRANCH  26  28
ENDBRANCH  25  26
ENDBRANCH  24  25
ENDBRANCH   1  24
TORSDOF 14
