REMARK VINA RESULT:    -6.379      2.179      3.416
REMARK INTER + INTRA:         -12.693
REMARK INTER:                 -10.961
REMARK INTRA:                  -1.731
REMARK UNBOUND:                -1.839
REMARK  Name = lig_assembled_61.pdb
REMARK  12 active torsions:
REMARK  status: ('A' for Active; 'I' for Inactive)
REMARK    1  A    between atoms: _2  and  _8
REMARK    2  A    between atoms: _5  and  _6
REMARK    3  A    between atoms: _5  and  _12
REMARK    4  A    between atoms: _8  and  _9
REMARK    5  A    between atoms: _12  and  _14
REMARK    6  A    between atoms: _13  and  _18
REMARK    7  A    between atoms: _14  and  _17
REMARK    8  A    between atoms: _22  and  _32
REMARK    9  A    between atoms: _24  and  _25
REMARK   10  A    between atoms: _26  and  _28
REMARK   11  A    between atoms: _28  and  _30
REMARK   12  A    between atoms: _30  and  _32
REMARK                            x       y       z     vdW  Elec       q    Type
REMARK                         _______ _______ _______ _____ _____    ______ ____
ROOT
ATOM      1  C   UNL     1      29.526  14.889  -0.135  0.00  0.00    +0.152 C 
ENDROOT
BRANCH   1   3
ATOM      2  C   UNL     1      28.176  17.185  -0.727  0.00  0.00    +0.400 C 
ATOM      3  N   UNL     1      28.950  16.231  -0.110  0.00  0.00    -0.278 N 
ATOM      4  H   UNL     1      29.243  16.702   0.803  0.00  0.00    +0.152 HD
ATOM      5  O   UNL     1      27.864  18.183  -0.083  0.00  0.00    -0.226 OA
BRANCH   2   6
ATOM      6  O   UNL     1      27.872  16.947  -1.961  0.00  0.00    -0.450 OA
BRANCH   6   7
ATOM      7  C   UNL     1      26.998  17.424  -2.957  0.00  0.00    +0.240 C 
BRANCH   7   8
ATOM      8  C   UNL     1      26.536  16.426  -4.035  0.00  0.00    +0.100 C 
BRANCH   8  10
ATOM      9  N   UNL     1      24.627  15.744  -2.615  0.00  0.00    -0.134 NA
ATOM     10  C   UNL     1      25.662  15.396  -3.443  0.00  0.00    +0.086 A 
ATOM     11  C   UNL     1      25.692  14.024  -3.576  0.00  0.00    +0.134 A 
ATOM     12  N   UNL     1      24.688  13.596  -2.759  0.00  0.00    -0.247 N 
ATOM     13  N   UNL     1      24.023  14.633  -2.216  0.00  0.00    -0.065 NA
BRANCH  12  14
ATOM     14  C   UNL     1      24.279  12.232  -2.477  0.00  0.00    +0.180 C 
BRANCH  14  15
ATOM     15  C   UNL     1      24.349  11.920  -1.007  0.00  0.00    -0.019 A 
ATOM     16  C   UNL     1      25.520  12.094  -0.193  0.00  0.00    +0.013 A 
ATOM     17  C   UNL     1      25.326  11.696   1.112  0.00  0.00    +0.045 A 
ATOM     18  S   UNL     1      23.740  11.125   1.379  0.00  0.00    -0.105 S 
ATOM     19  C   UNL     1      23.312  11.396  -0.254  0.00  0.00    +0.050 A 
ENDBRANCH  14  15
ENDBRANCH  12  14
ENDBRANCH   8  10
ENDBRANCH   7   8
ENDBRANCH   6   7
ENDBRANCH   2   6
ENDBRANCH   1   3
BRANCH   1  20
ATOM     20  C   UNL     1      31.065  14.808  -0.061  0.00  0.00    +0.193 C 
ATOM     21  O   UNL     1      31.573  16.029  -0.642  0.00  0.00    -0.219 OA
BRANCH  20  22
ATOM     22  C   UNL     1      31.711  14.750   1.341  0.00  0.00    +0.212 C 
ATOM     23  O   UNL     1      31.297  15.877   2.131  0.00  0.00    -0.218 OA
BRANCH  22  24
ATOM     24  C   UNL     1      31.371  13.429   2.131  0.00  0.00    +0.171 C 
ATOM     25  O   UNL     1      30.072  13.458   2.713  0.00  0.00    -0.343 OA
ATOM     26  C   UNL     1      29.611  12.537   3.658  0.00  0.00    +0.220 C 
ATOM     27  C   UNL     1      30.601  12.373   4.825  0.00  0.00    +0.076 C 
ATOM     28  C   UNL     1      31.977  12.048   4.222  0.00  0.00    +0.177 C 
ATOM     29  O   UNL     1      32.924  11.847   5.262  0.00  0.00    -0.221 OA
ATOM     30  C   UNL     1      32.427  13.192   3.260  0.00  0.00    +0.155 C 
BRANCH  30  31
ATOM     31  N   UNL     1      33.738  12.889   2.690  0.00  0.00    -0.202 NA
ATOM     32  C   UNL     1      34.934  13.495   2.898  0.00  0.00    +0.242 C 
ATOM     33  C   UNL     1      36.181  12.801   2.414  0.00  0.00    +0.096 C 
ATOM     34  O   UNL     1      34.974  14.582   3.470  0.00  0.00    -0.273 OA
ENDBRANCH  30  31
BRANCH  26  35
ATOM     35  C   UNL     1      29.202  11.102   3.016  0.00  0.00    +0.391 C 
ATOM     36  O   UNL     1      29.150  10.256   4.063  0.00  0.00    -0.243 OA
ATOM     37  O   UNL     1      28.783  11.360   1.771  0.00  0.00    -0.243 OA
ENDBRANCH  26  35
ENDBRANCH  22  24
ENDBRANCH  20  22
ENDBRANCH   1  20
TORSDOF 12
