REMARK VINA RESULT:    -5.888      2.214      3.336
REMARK INTER + INTRA:         -11.938
REMARK INTER:                 -10.364
REMARK INTRA:                  -1.574
REMARK UNBOUND:                -2.263
REMARK  Name = lig_assembled_52.pdb
REMARK  11 active torsions:
REMARK  status: ('A' for Active; 'I' for Inactive)
REMARK    1  A    between atoms: _2  and  _9
REMARK    2  A    between atoms: _6  and  _7
REMARK    3  A    between atoms: _6  and  _13
REMARK    4  A    between atoms: _13  and  _15
REMARK    5  A    between atoms: _14  and  _19
REMARK    6  A    between atoms: _15  and  _18
REMARK    7  A    between atoms: _23  and  _33
REMARK    8  A    between atoms: _25  and  _26
REMARK    9  A    between atoms: _27  and  _29
REMARK   10  A    between atoms: _29  and  _31
REMARK   11  A    between atoms: _31  and  _33
REMARK                            x       y       z     vdW  Elec       q    Type
REMARK                         _______ _______ _______ _____ _____    ______ ____
ROOT
ATOM      1  C   UNL     1      28.274  14.491   0.577  0.00  0.00    +0.152 C 
ENDROOT
BRANCH   1   3
ATOM      2  C   UNL     1      28.597  16.942  -0.576  0.00  0.00    +0.400 C 
ATOM      3  N   UNL     1      28.786  15.790   0.150  0.00  0.00    -0.278 N 
ATOM      4  H   UNL     1      29.740  15.940   0.608  0.00  0.00    +0.152 HD
ATOM      5  O   UNL     1      29.384  17.870  -0.406  0.00  0.00    -0.226 OA
BRANCH   2   6
ATOM      6  O   UNL     1      27.607  16.925  -1.407  0.00  0.00    -0.450 OA
BRANCH   6   7
ATOM      7  C   UNL     1      27.126  17.654  -2.512  0.00  0.00    +0.240 C 
BRANCH   7   8
ATOM      8  C   UNL     1      27.012  16.913  -3.858  0.00  0.00    +0.100 C 
BRANCH   8  10
ATOM      9  N   UNL     1      25.495  15.287  -4.942  0.00  0.00    -0.134 NA
ATOM     10  C   UNL     1      25.751  16.151  -3.917  0.00  0.00    +0.086 A 
ATOM     11  C   UNL     1      24.683  16.144  -3.048  0.00  0.00    +0.140 A 
ATOM     12  N   UNL     1      23.798  15.234  -3.580  0.00  0.00    -0.218 N 
ATOM     13  N   UNL     1      24.307  14.738  -4.734  0.00  0.00    -0.060 NA
BRANCH  12  14
ATOM     14  C   UNL     1      22.552  14.815  -3.070  0.00  0.00    +0.085 A 
ATOM     15  C   UNL     1      21.365  14.971  -3.792  0.00  0.00    +0.031 A 
ATOM     16  C   UNL     1      20.163  14.556  -3.223  0.00  0.00    +0.022 A 
ATOM     17  C   UNL     1      20.188  13.999  -1.955  0.00  0.00    +0.111 A 
ATOM     18  N   UNL     1      21.317  13.829  -1.236  0.00  0.00    -0.261 NA
ATOM     19  C   UNL     1      22.477  14.239  -1.806  0.00  0.00    +0.138 A 
ENDBRANCH  12  14
ENDBRANCH   8  10
ENDBRANCH   7   8
ENDBRANCH   6   7
ENDBRANCH   2   6
ENDBRANCH   1   3
BRANCH   1  20
ATOM     20  C   UNL     1      29.228  13.292   0.397  0.00  0.00    +0.193 C 
ATOM     21  O   UNL     1      28.503  12.117   0.823  0.00  0.00    -0.219 OA
BRANCH  20  22
ATOM     22  C   UNL     1      29.695  12.958  -1.036  0.00  0.00    +0.212 C 
ATOM     23  O   UNL     1      29.122  13.880  -1.978  0.00  0.00    -0.218 OA
BRANCH  22  24
ATOM     24  C   UNL     1      31.262  12.978  -1.203  0.00  0.00    +0.171 C 
ATOM     25  O   UNL     1      31.828  14.252  -0.915  0.00  0.00    -0.343 OA
ATOM     26  C   UNL     1      33.144  14.616  -1.212  0.00  0.00    +0.220 C 
ATOM     27  C   UNL     1      33.504  14.308  -2.676  0.00  0.00    +0.076 C 
ATOM     28  C   UNL     1      33.167  12.831  -2.934  0.00  0.00    +0.177 C 
ATOM     29  O   UNL     1      33.519  12.482  -4.266  0.00  0.00    -0.221 OA
ATOM     30  C   UNL     1      31.653  12.569  -2.661  0.00  0.00    +0.155 C 
BRANCH  30  31
ATOM     31  N   UNL     1      31.327  11.167  -2.912  0.00  0.00    -0.202 NA
ATOM     32  C   UNL     1      30.523  10.619  -3.859  0.00  0.00    +0.242 C 
ATOM     33  C   UNL     1      30.594   9.131  -4.083  0.00  0.00    +0.096 C 
ATOM     34  O   UNL     1      29.766  11.341  -4.505  0.00  0.00    -0.273 OA
ENDBRANCH  30  31
BRANCH  26  35
ATOM     35  C   UNL     1      34.236  13.991  -0.184  0.00  0.00    +0.391 C 
ATOM     36  O   UNL     1      33.510  13.508   0.843  0.00  0.00    -0.243 OA
ATOM     37  O   UNL     1      35.386  13.919  -0.866  0.00  0.00    -0.243 OA
ENDBRANCH  26  35
ENDBRANCH  22  24
ENDBRANCH  20  22
ENDBRANCH   1  20
TORSDOF 11
