REMARK VINA RESULT:    -7.254      2.278      3.997
REMARK INTER + INTRA:         -14.246
REMARK INTER:                 -12.766
REMARK INTRA:                  -1.480
REMARK UNBOUND:                -1.480
REMARK  Name = lig_assembled_58.pdb
REMARK  13 active torsions:
REMARK  status: ('A' for Active; 'I' for Inactive)
REMARK    1  A    between atoms: _2  and  _8
REMARK    2  A    between atoms: _5  and  _6
REMARK    3  A    between atoms: _5  and  _20
REMARK    4  A    between atoms: _8  and  _9
REMARK    5  A    between atoms: _8  and  _15
REMARK    6  A    between atoms: _20  and  _22
REMARK    7  A    between atoms: _21  and  _26
REMARK    8  A    between atoms: _22  and  _25
REMARK    9  A    between atoms: _30  and  _40
REMARK   10  A    between atoms: _32  and  _33
REMARK   11  A    between atoms: _34  and  _36
REMARK   12  A    between atoms: _36  and  _38
REMARK   13  A    between atoms: _38  and  _40
REMARK                            x       y       z     vdW  Elec       q    Type
REMARK                         _______ _______ _______ _____ _____    ______ ____
ROOT
ATOM      1  C   UNL     1      28.245  17.626  -0.658  0.00  0.00    +0.400 C 
ATOM      2  N   UNL     1      29.488  17.444  -0.100  0.00  0.00    -0.278 N 
ATOM      3  H   UNL     1      29.515  18.168   0.686  0.00  0.00    +0.152 HD
ATOM      4  O   UNL     1      27.451  18.361  -0.076  0.00  0.00    -0.226 OA
ENDROOT
BRANCH   2   5
ATOM      5  C   UNL     1      30.753  16.713  -0.091  0.00  0.00    +0.152 C 
BRANCH   5   6
ATOM      6  C   UNL     1      30.676  15.227   0.313  0.00  0.00    +0.193 C 
ATOM      7  O   UNL     1      31.087  14.461  -0.841  0.00  0.00    -0.219 OA
BRANCH   6   8
ATOM      8  C   UNL     1      31.608  14.745   1.447  0.00  0.00    +0.212 C 
ATOM      9  O   UNL     1      31.665  15.722   2.499  0.00  0.00    -0.218 OA
BRANCH   8  10
ATOM     10  C   UNL     1      31.174  13.362   2.066  0.00  0.00    +0.171 C 
ATOM     11  O   UNL     1      29.772  13.284   2.304  0.00  0.00    -0.343 OA
ATOM     12  C   UNL     1      29.156  12.284   3.060  0.00  0.00    +0.220 C 
ATOM     13  C   UNL     1      29.833  12.105   4.430  0.00  0.00    +0.076 C 
ATOM     14  C   UNL     1      31.335  11.893   4.179  0.00  0.00    +0.177 C 
ATOM     15  O   UNL     1      32.005  11.682   5.414  0.00  0.00    -0.221 OA
ATOM     16  C   UNL     1      31.930  13.115   3.413  0.00  0.00    +0.155 C 
BRANCH  16  17
ATOM     17  N   UNL     1      33.359  12.921   3.179  0.00  0.00    -0.202 NA
ATOM     18  C   UNL     1      34.421  13.591   3.693  0.00  0.00    +0.242 C 
ATOM     19  C   UNL     1      35.795  12.998   3.515  0.00  0.00    +0.096 C 
ATOM     20  O   UNL     1      34.241  14.653   4.286  0.00  0.00    -0.273 OA
ENDBRANCH  16  17
BRANCH  12  21
ATOM     21  C   UNL     1      29.018  10.869   2.272  0.00  0.00    +0.391 C 
ATOM     22  O   UNL     1      29.391  11.139   1.006  0.00  0.00    -0.243 OA
ATOM     23  O   UNL     1      28.884   9.931   3.218  0.00  0.00    -0.243 OA
ENDBRANCH  12  21
ENDBRANCH   8  10
ENDBRANCH   6   8
ENDBRANCH   5   6
ENDBRANCH   2   5
BRANCH   1  24
ATOM     24  O   UNL     1      28.039  17.017  -1.779  0.00  0.00    -0.450 OA
BRANCH  24  25
ATOM     25  C   UNL     1      26.984  16.752  -2.674  0.00  0.00    +0.240 C 
BRANCH  25  26
ATOM     26  C   UNL     1      26.718  15.280  -3.044  0.00  0.00    +0.100 C 
BRANCH  26  28
ATOM     27  N   UNL     1      24.301  15.747  -2.707  0.00  0.00    -0.134 NA
ATOM     28  C   UNL     1      25.361  14.885  -2.625  0.00  0.00    +0.086 A 
ATOM     29  C   UNL     1      24.916  13.674  -2.148  0.00  0.00    +0.134 A 
ATOM     30  N   UNL     1      23.555  13.808  -2.106  0.00  0.00    -0.240 N 
ATOM     31  N   UNL     1      23.201  15.086  -2.367  0.00  0.00    -0.065 NA
BRANCH  30  32
ATOM     32  C   UNL     1      22.521  12.783  -1.866  0.00  0.00    +0.169 C 
BRANCH  32  33
ATOM     33  C   UNL     1      22.588  12.192  -0.450  0.00  0.00    -0.019 A 
ATOM     34  C   UNL     1      23.806  11.747   0.096  0.00  0.00    +0.006 A 
ATOM     35  C   UNL     1      23.860  11.206   1.384  0.00  0.00    +0.000 A 
ATOM     36  C   UNL     1      22.707  11.124   2.157  0.00  0.00    +0.000 A 
ATOM     37  C   UNL     1      21.504  11.608   1.660  0.00  0.00    +0.000 A 
ATOM     38  C   UNL     1      21.449  12.153   0.378  0.00  0.00    +0.006 A 
ENDBRANCH  32  33
BRANCH  32  39
ATOM     39  C   UNL     1      22.537  11.749  -3.000  0.00  0.00    -0.019 A 
ATOM     40  C   UNL     1      22.566  12.170  -4.341  0.00  0.00    +0.006 A 
ATOM     41  C   UNL     1      22.521  11.238  -5.381  0.00  0.00    +0.000 A 
ATOM     42  C   UNL     1      22.463   9.875  -5.102  0.00  0.00    +0.000 A 
ATOM     43  C   UNL     1      22.431   9.437  -3.784  0.00  0.00    +0.000 A 
ATOM     44  C   UNL     1      22.456  10.366  -2.744  0.00  0.00    +0.006 A 
ENDBRANCH  32  39
ENDBRANCH  30  32
ENDBRANCH  26  28
ENDBRANCH  25  26
ENDBRANCH  24  25
ENDBRANCH   1  24
TORSDOF 13
