REMARK VINA RESULT:    -6.129      2.274      8.000
REMARK INTER + INTRA:         -13.941
REMARK INTER:                 -11.537
REMARK INTRA:                  -2.404
REMARK UNBOUND:                -1.720
REMARK  Name = lig_assembled_54.pdb
REMARK  19 active torsions:
REMARK  status: ('A' for Active; 'I' for Inactive)
REMARK    1  A    between atoms: _2  and  _8
REMARK    2  A    between atoms: _4  and  _13
REMARK    3  A    between atoms: _5  and  _6
REMARK    4  A    between atoms: _5  and  _16
REMARK    5  A    between atoms: _8  and  _9
REMARK    6  A    between atoms: _9  and  _10
REMARK    7  A    between atoms: _10  and  _14
REMARK    8  A    between atoms: _10  and  _15
REMARK    9  A    between atoms: _11  and  _12
REMARK   10  A    between atoms: _11  and  _15
REMARK   11  A    between atoms: _13  and  _14
REMARK   12  A    between atoms: _16  and  _18
REMARK   13  A    between atoms: _17  and  _22
REMARK   14  A    between atoms: _18  and  _21
REMARK   15  A    between atoms: _26  and  _36
REMARK   16  A    between atoms: _28  and  _29
REMARK   17  A    between atoms: _30  and  _32
REMARK   18  A    between atoms: _32  and  _34
REMARK   19  A    between atoms: _34  and  _36
REMARK                            x       y       z     vdW  Elec       q    Type
REMARK                         _______ _______ _______ _____ _____    ______ ____
ROOT
ATOM      1  C   UNL     1      27.883  17.570  -0.830  0.00  0.00    +0.400 C 
ATOM      2  N   UNL     1      26.981  17.067  -1.738  0.00  0.00    -0.278 N 
ATOM      3  H   UNL     1      26.055  17.508  -1.437  0.00  0.00    +0.152 HD
ATOM      4  O   UNL     1      27.509  18.465  -0.076  0.00  0.00    -0.226 OA
ENDROOT
BRANCH   1   5
ATOM      5  O   UNL     1      29.052  17.018  -0.837  0.00  0.00    -0.450 OA
BRANCH   5   6
ATOM      6  C   UNL     1      30.196  16.929  -0.021  0.00  0.00    +0.240 C 
BRANCH   6   7
ATOM      7  C   UNL     1      31.229  15.838  -0.362  0.00  0.00    +0.100 C 
BRANCH   7   9
ATOM      8  N   UNL     1      31.157  13.435   0.230  0.00  0.00    -0.134 NA
ATOM      9  C   UNL     1      31.155  14.746   0.627  0.00  0.00    +0.086 A 
ATOM     10  C   UNL     1      31.097  14.801   2.003  0.00  0.00    +0.133 A 
ATOM     11  N   UNL     1      31.104  13.493   2.384  0.00  0.00    -0.251 N 
ATOM     12  N   UNL     1      31.134  12.674   1.317  0.00  0.00    -0.065 NA
BRANCH  11  13
ATOM     13  C   UNL     1      31.145  12.947   3.726  0.00  0.00    +0.150 C 
BRANCH  13  14
ATOM     14  C   UNL     1      32.137  11.799   3.839  0.00  0.00    +0.084 C 
BRANCH  14  15
ATOM     15  C   UNL     1      33.449  12.192   4.527  0.00  0.00    +0.252 C 
BRANCH  15  16
ATOM     16  O   UNL     1      33.533  11.577   5.816  0.00  0.00    -0.352 OA
BRANCH  16  17
ATOM     17  C   UNL     1      32.895  12.314   6.857  0.00  0.00    +0.159 C 
ATOM     18  C   UNL     1      33.561  11.974   8.175  0.00  0.00    +0.034 C 
ENDBRANCH  16  17
ENDBRANCH  15  16
BRANCH  15  19
ATOM     19  O   UNL     1      33.455  13.618   4.668  0.00  0.00    -0.352 OA
BRANCH  19  20
ATOM     20  C   UNL     1      34.644  14.214   4.144  0.00  0.00    +0.159 C 
ATOM     21  C   UNL     1      34.742  13.907   2.664  0.00  0.00    +0.034 C 
ENDBRANCH  19  20
ENDBRANCH  15  19
ENDBRANCH  14  15
ENDBRANCH  13  14
ENDBRANCH  11  13
ENDBRANCH   7   9
ENDBRANCH   6   7
ENDBRANCH   5   6
ENDBRANCH   1   5
BRANCH   2  22
ATOM     22  C   UNL     1      26.730  16.233  -2.910  0.00  0.00    +0.152 C 
BRANCH  22  23
ATOM     23  C   UNL     1      25.535  15.262  -2.809  0.00  0.00    +0.193 C 
ATOM     24  O   UNL     1      24.841  15.326  -4.075  0.00  0.00    -0.219 OA
BRANCH  23  25
ATOM     25  C   UNL     1      25.846  13.762  -2.615  0.00  0.00    +0.212 C 
ATOM     26  O   UNL     1      27.117  13.434  -3.200  0.00  0.00    -0.218 OA
BRANCH  25  27
ATOM     27  C   UNL     1      25.858  13.317  -1.103  0.00  0.00    +0.171 C 
ATOM     28  O   UNL     1      27.042  12.610  -0.749  0.00  0.00    -0.343 OA
ATOM     29  C   UNL     1      27.208  11.898   0.441  0.00  0.00    +0.220 C 
ATOM     30  C   UNL     1      26.039  10.931   0.695  0.00  0.00    +0.076 C 
ATOM     31  C   UNL     1      24.738  11.744   0.605  0.00  0.00    +0.177 C 
ATOM     32  O   UNL     1      23.624  10.903   0.872  0.00  0.00    -0.221 OA
ATOM     33  C   UNL     1      24.618  12.413  -0.800  0.00  0.00    +0.155 C 
BRANCH  33  34
ATOM     34  N   UNL     1      23.379  13.181  -0.893  0.00  0.00    -0.202 NA
ATOM     35  C   UNL     1      22.320  13.022  -1.727  0.00  0.00    +0.242 C 
ATOM     36  C   UNL     1      21.047  13.765  -1.415  0.00  0.00    +0.096 C 
ATOM     37  O   UNL     1      22.422  12.284  -2.704  0.00  0.00    -0.273 OA
ENDBRANCH  33  34
BRANCH  29  38
ATOM     38  C   UNL     1      27.489  12.847   1.729  0.00  0.00    +0.391 C 
ATOM     39  O   UNL     1      27.530  12.005   2.779  0.00  0.00    -0.243 OA
ATOM     40  O   UNL     1      27.868  14.034   1.238  0.00  0.00    -0.243 OA
ENDBRANCH  29  38
ENDBRANCH  25  27
ENDBRANCH  23  25
ENDBRANCH  22  23
ENDBRANCH   2  22
TORSDOF 17
