REMARK VINA RESULT:    -7.199      3.276      7.608
REMARK INTER + INTRA:         -13.327
REMARK INTER:                 -10.834
REMARK INTRA:                  -2.494
REMARK UNBOUND:                -1.499
REMARK  Name = lig_assembled_15.pdb
REMARK  11 active torsions:
REMARK  status: ('A' for Active; 'I' for Inactive)
REMARK    1  A    between atoms: _2  and  _8
REMARK    2  A    between atoms: _5  and  _6
REMARK    3  A    between atoms: _5  and  _13
REMARK    4  A    between atoms: _13  and  _15
REMARK    5  A    between atoms: _14  and  _19
REMARK    6  A    between atoms: _15  and  _18
REMARK    7  A    between atoms: _23  and  _33
REMARK    8  A    between atoms: _25  and  _26
REMARK    9  A    between atoms: _27  and  _29
REMARK   10  A    between atoms: _29  and  _31
REMARK   11  A    between atoms: _31  and  _33
REMARK                            x       y       z     vdW  Elec       q    Type
REMARK                         _______ _______ _______ _____ _____    ______ ____
ROOT
ATOM      1  C   UNL     1      29.039  17.028  -0.480  0.00  0.00    +0.400 C 
ATOM      2  N   UNL     1      27.879  16.664  -1.123  0.00  0.00    -0.278 N 
ATOM      3  H   UNL     1      27.164  17.372  -0.763  0.00  0.00    +0.152 HD
ATOM      4  O   UNL     1      29.047  18.085   0.146  0.00  0.00    -0.226 OA
ENDROOT
BRANCH   1   5
ATOM      5  O   UNL     1      30.018  16.189  -0.574  0.00  0.00    -0.450 OA
BRANCH   5   6
ATOM      6  C   UNL     1      30.341  14.876  -0.180  0.00  0.00    +0.240 C 
BRANCH   6   7
ATOM      7  C   UNL     1      30.245  14.540   1.321  0.00  0.00    +0.100 C 
BRANCH   7   9
ATOM      8  N   UNL     1      28.440  13.858   2.869  0.00  0.00    -0.134 NA
ATOM      9  C   UNL     1      28.971  13.855   1.612  0.00  0.00    +0.086 A 
ATOM     10  C   UNL     1      28.135  13.156   0.772  0.00  0.00    +0.139 A 
ATOM     11  N   UNL     1      27.077  12.770   1.563  0.00  0.00    -0.220 N 
ATOM     12  N   UNL     1      27.293  13.193   2.833  0.00  0.00    -0.061 NA
BRANCH  11  13
ATOM     13  C   UNL     1      25.899  12.072   1.191  0.00  0.00    +0.067 A 
ATOM     14  C   UNL     1      25.274  12.318  -0.040  0.00  0.00    +0.029 A 
ATOM     15  C   UNL     1      24.092  11.650  -0.372  0.00  0.00    +0.017 A 
ATOM     16  C   UNL     1      23.534  10.737   0.520  0.00  0.00    +0.018 A 
ATOM     17 BR   UNL     1      21.920   9.860   0.077  0.00  0.00    -0.050 Br
ATOM     18  C   UNL     1      24.153  10.474   1.740  0.00  0.00    +0.017 A 
ATOM     19  C   UNL     1      25.336  11.138   2.076  0.00  0.00    +0.029 A 
ENDBRANCH  11  13
ENDBRANCH   7   9
ENDBRANCH   6   7
ENDBRANCH   5   6
ENDBRANCH   1   5
BRANCH   2  20
ATOM     20  C   UNL     1      27.205  15.775  -2.066  0.00  0.00    +0.152 C 
BRANCH  20  21
ATOM     21  C   UNL     1      26.254  16.449  -3.076  0.00  0.00    +0.193 C 
ATOM     22  O   UNL     1      27.051  17.385  -3.835  0.00  0.00    -0.219 OA
BRANCH  21  23
ATOM     23  C   UNL     1      25.593  15.552  -4.145  0.00  0.00    +0.212 C 
ATOM     24  O   UNL     1      26.209  15.759  -5.426  0.00  0.00    -0.218 OA
BRANCH  23  25
ATOM     25  C   UNL     1      25.657  14.015  -3.797  0.00  0.00    +0.171 C 
ATOM     26  O   UNL     1      26.669  13.330  -4.528  0.00  0.00    -0.343 OA
ATOM     27  C   UNL     1      26.785  11.940  -4.599  0.00  0.00    +0.220 C 
ATOM     28  C   UNL     1      25.452  11.275  -4.984  0.00  0.00    +0.076 C 
ATOM     29  C   UNL     1      24.381  11.785  -4.006  0.00  0.00    +0.177 C 
ATOM     30  O   UNL     1      23.134  11.169  -4.293  0.00  0.00    -0.221 OA
ATOM     31  C   UNL     1      24.277  13.340  -4.087  0.00  0.00    +0.155 C 
BRANCH  31  32
ATOM     32  N   UNL     1      23.255  13.829  -3.165  0.00  0.00    -0.202 NA
ATOM     33  C   UNL     1      22.110  14.511  -3.421  0.00  0.00    +0.242 C 
ATOM     34  C   UNL     1      21.090  14.635  -2.319  0.00  0.00    +0.096 C 
ATOM     35  O   UNL     1      21.933  15.005  -4.532  0.00  0.00    -0.273 OA
ENDBRANCH  31  32
BRANCH  27  36
ATOM     36  C   UNL     1      27.420  11.275  -3.259  0.00  0.00    +0.391 C 
ATOM     37  O   UNL     1      27.194   9.953  -3.387  0.00  0.00    -0.243 OA
ATOM     38  O   UNL     1      28.176  12.226  -2.697  0.00  0.00    -0.243 OA
ENDBRANCH  27  36
ENDBRANCH  23  25
ENDBRANCH  21  23
ENDBRANCH  20  21
ENDBRANCH   2  20
TORSDOF 11
