REMARK VINA RESULT:    -6.143      4.114      9.933
REMARK INTER + INTRA:         -12.285
REMARK INTER:                 -10.621
REMARK INTRA:                  -1.664
REMARK UNBOUND:                -2.191
REMARK  Name = lig_assembled_93.pdb
REMARK  11 active torsions:
REMARK  status: ('A' for Active; 'I' for Inactive)
REMARK    1  A    between atoms: _2  and  _8
REMARK    2  A    between atoms: _5  and  _6
REMARK    3  A    between atoms: _5  and  _13
REMARK    4  A    between atoms: _13  and  _15
REMARK    5  A    between atoms: _14  and  _19
REMARK    6  A    between atoms: _15  and  _18
REMARK    7  A    between atoms: _23  and  _33
REMARK    8  A    between atoms: _25  and  _26
REMARK    9  A    between atoms: _27  and  _29
REMARK   10  A    between atoms: _29  and  _31
REMARK   11  A    between atoms: _31  and  _33
REMARK                            x       y       z     vdW  Elec       q    Type
REMARK                         _______ _______ _______ _____ _____    ______ ____
ROOT
ATOM      1  C   UNL     1      27.372  17.455  -2.140  0.00  0.00    +0.400 C 
ATOM      2  N   UNL     1      26.564  17.192  -3.221  0.00  0.00    -0.278 N 
ATOM      3  H   UNL     1      25.975  18.079  -3.310  0.00  0.00    +0.152 HD
ATOM      4  O   UNL     1      27.378  18.596  -1.685  0.00  0.00    -0.226 OA
ENDROOT
BRANCH   1   5
ATOM      5  O   UNL     1      28.038  16.447  -1.680  0.00  0.00    -0.450 OA
BRANCH   5   6
ATOM      6  C   UNL     1      28.692  16.048  -0.497  0.00  0.00    +0.240 C 
BRANCH   6   7
ATOM      7  C   UNL     1      30.032  16.730  -0.162  0.00  0.00    +0.100 C 
BRANCH   7   9
ATOM      8  N   UNL     1      31.821  15.057  -0.457  0.00  0.00    -0.134 NA
ATOM      9  C   UNL     1      30.988  15.742   0.369  0.00  0.00    +0.086 A 
ATOM     10  C   UNL     1      31.225  15.346   1.666  0.00  0.00    +0.139 A 
ATOM     11  N   UNL     1      32.245  14.411   1.590  0.00  0.00    -0.219 N 
ATOM     12  N   UNL     1      32.569  14.256   0.287  0.00  0.00    -0.061 NA
BRANCH  11  13
ATOM     13  C   UNL     1      32.886  13.715   2.661  0.00  0.00    +0.080 A 
ATOM     14  C   UNL     1      33.846  14.425   3.422  0.00  0.00    +0.029 A 
ATOM     15  C   UNL     1      34.540  13.825   4.477  0.00  0.00    +0.002 A 
ATOM     16  C   UNL     1      34.297  12.501   4.801  0.00  0.00    +0.001 A 
ATOM     17  C   UNL     1      33.354  11.779   4.073  0.00  0.00    +0.016 A 
ATOM     18  C   UNL     1      32.642  12.368   3.007  0.00  0.00    +0.039 A 
ATOM     19  I   UNL     1      31.281  11.021   2.105  0.00  0.00    -0.042 I 
ENDBRANCH  11  13
ENDBRANCH   7   9
ENDBRANCH   6   7
ENDBRANCH   5   6
ENDBRANCH   1   5
BRANCH   2  20
ATOM     20  C   UNL     1      26.169  16.272  -4.284  0.00  0.00    +0.152 C 
BRANCH  20  21
ATOM     21  C   UNL     1      25.692  14.876  -3.833  0.00  0.00    +0.193 C 
ATOM     22  O   UNL     1      26.879  14.086  -3.603  0.00  0.00    -0.219 OA
BRANCH  21  23
ATOM     23  C   UNL     1      24.904  14.784  -2.507  0.00  0.00    +0.212 C 
ATOM     24  O   UNL     1      24.079  15.947  -2.332  0.00  0.00    -0.218 OA
BRANCH  23  25
ATOM     25  C   UNL     1      23.994  13.500  -2.410  0.00  0.00    +0.171 C 
ATOM     26  O   UNL     1      22.606  13.815  -2.373  0.00  0.00    -0.343 OA
ATOM     27  C   UNL     1      21.600  12.903  -2.047  0.00  0.00    +0.220 C 
ATOM     28  C   UNL     1      21.906  12.160  -0.735  0.00  0.00    +0.076 C 
ATOM     29  C   UNL     1      23.313  11.553  -0.864  0.00  0.00    +0.177 C 
ATOM     30  O   UNL     1      23.631  10.819   0.310  0.00  0.00    -0.221 OA
ATOM     31  C   UNL     1      24.361  12.678  -1.132  0.00  0.00    +0.155 C 
BRANCH  31  32
ATOM     32  N   UNL     1      25.700  12.106  -1.249  0.00  0.00    -0.202 NA
ATOM     33  C   UNL     1      26.741  12.147  -0.378  0.00  0.00    +0.242 C 
ATOM     34  C   UNL     1      27.909  11.226  -0.615  0.00  0.00    +0.096 C 
ATOM     35  O   UNL     1      26.706  12.925   0.574  0.00  0.00    -0.273 OA
ENDBRANCH  31  32
BRANCH  27  36
ATOM     36  C   UNL     1      21.249  11.869  -3.250  0.00  0.00    +0.391 C 
ATOM     37  O   UNL     1      21.878  12.368  -4.331  0.00  0.00    -0.243 OA
ATOM     38  O   UNL     1      20.736  10.780  -2.664  0.00  0.00    -0.243 OA
ENDBRANCH  27  36
ENDBRANCH  23  25
ENDBRANCH  21  23
ENDBRANCH  20  21
ENDBRANCH   2  20
TORSDOF 11
