REMARK VINA RESULT:    -7.460      2.056      4.317
REMARK INTER + INTRA:         -14.610
REMARK INTER:                 -12.744
REMARK INTRA:                  -1.865
REMARK UNBOUND:                -1.480
REMARK  Name = lig_assembled_58.pdb
REMARK  13 active torsions:
REMARK  status: ('A' for Active; 'I' for Inactive)
REMARK    1  A    between atoms: _2  and  _8
REMARK    2  A    between atoms: _5  and  _6
REMARK    3  A    between atoms: _5  and  _20
REMARK    4  A    between atoms: _8  and  _9
REMARK    5  A    between atoms: _8  and  _15
REMARK    6  A    between atoms: _20  and  _22
REMARK    7  A    between atoms: _21  and  _26
REMARK    8  A    between atoms: _22  and  _25
REMARK    9  A    between atoms: _30  and  _40
REMARK   10  A    between atoms: _32  and  _33
REMARK   11  A    between atoms: _34  and  _36
REMARK   12  A    between atoms: _36  and  _38
REMARK   13  A    between atoms: _38  and  _40
REMARK                            x       y       z     vdW  Elec       q    Type
REMARK                         _______ _______ _______ _____ _____    ______ ____
ROOT
ATOM      1  C   UNL     1      28.278  17.598  -0.493  0.00  0.00    +0.400 C 
ATOM      2  N   UNL     1      29.524  17.278  -0.008  0.00  0.00    -0.278 N 
ATOM      3  H   UNL     1      29.539  17.735   0.958  0.00  0.00    +0.152 HD
ATOM      4  O   UNL     1      27.472  18.114   0.277  0.00  0.00    -0.226 OA
ENDROOT
BRANCH   2   5
ATOM      5  C   UNL     1      30.801  16.598  -0.210  0.00  0.00    +0.152 C 
BRANCH   5   6
ATOM      6  C   UNL     1      30.774  15.059  -0.110  0.00  0.00    +0.193 C 
ATOM      7  O   UNL     1      31.741  14.563  -1.063  0.00  0.00    -0.219 OA
BRANCH   6   8
ATOM      8  C   UNL     1      31.196  14.422   1.233  0.00  0.00    +0.212 C 
ATOM      9  O   UNL     1      31.335  15.432   2.245  0.00  0.00    -0.218 OA
BRANCH   8  10
ATOM     10  C   UNL     1      30.186  13.327   1.749  0.00  0.00    +0.171 C 
ATOM     11  O   UNL     1      28.838  13.784   1.754  0.00  0.00    -0.343 OA
ATOM     12  C   UNL     1      27.783  13.118   2.382  0.00  0.00    +0.220 C 
ATOM     13  C   UNL     1      28.120  12.762   3.841  0.00  0.00    +0.076 C 
ATOM     14  C   UNL     1      29.454  11.998   3.833  0.00  0.00    +0.177 C 
ATOM     15  O   UNL     1      29.794  11.609   5.157  0.00  0.00    -0.221 OA
ATOM     16  C   UNL     1      30.574  12.878   3.196  0.00  0.00    +0.155 C 
BRANCH  16  17
ATOM     17  N   UNL     1      31.845  12.159   3.194  0.00  0.00    -0.202 NA
ATOM     18  C   UNL     1      32.999  12.432   3.855  0.00  0.00    +0.242 C 
ATOM     19  C   UNL     1      34.063  11.367   3.908  0.00  0.00    +0.096 C 
ATOM     20  O   UNL     1      33.147  13.529   4.390  0.00  0.00    -0.273 OA
ENDBRANCH  16  17
BRANCH  12  21
ATOM     21  C   UNL     1      27.253  11.822   1.558  0.00  0.00    +0.391 C 
ATOM     22  O   UNL     1      26.567  11.093   2.460  0.00  0.00    -0.243 OA
ATOM     23  O   UNL     1      27.431  12.109   0.263  0.00  0.00    -0.243 OA
ENDBRANCH  12  21
ENDBRANCH   8  10
ENDBRANCH   6   8
ENDBRANCH   5   6
ENDBRANCH   2   5
BRANCH   1  24
ATOM     24  O   UNL     1      28.083  17.347  -1.746  0.00  0.00    -0.450 OA
BRANCH  24  25
ATOM     25  C   UNL     1      27.113  17.571  -2.742  0.00  0.00    +0.240 C 
BRANCH  25  26
ATOM     26  C   UNL     1      26.949  16.493  -3.830  0.00  0.00    +0.100 C 
BRANCH  26  28
ATOM     27  N   UNL     1      25.978  14.217  -3.606  0.00  0.00    -0.134 NA
ATOM     28  C   UNL     1      25.852  15.573  -3.477  0.00  0.00    +0.086 A 
ATOM     29  C   UNL     1      24.611  15.860  -2.958  0.00  0.00    +0.134 A 
ATOM     30  N   UNL     1      24.086  14.635  -2.645  0.00  0.00    -0.240 N 
ATOM     31  N   UNL     1      24.883  13.649  -3.113  0.00  0.00    -0.065 NA
BRANCH  30  32
ATOM     32  C   UNL     1      22.868  14.307  -1.880  0.00  0.00    +0.169 C 
BRANCH  32  33
ATOM     33  C   UNL     1      22.903  12.891  -1.286  0.00  0.00    -0.019 A 
ATOM     34  C   UNL     1      22.064  11.875  -1.778  0.00  0.00    +0.006 A 
ATOM     35  C   UNL     1      22.098  10.588  -1.232  0.00  0.00    +0.000 A 
ATOM     36  C   UNL     1      22.986  10.288  -0.204  0.00  0.00    +0.000 A 
ATOM     37  C   UNL     1      23.862  11.260   0.259  0.00  0.00    +0.000 A 
ATOM     38  C   UNL     1      23.834  12.542  -0.289  0.00  0.00    +0.006 A 
ENDBRANCH  32  33
BRANCH  32  39
ATOM     39  C   UNL     1      21.622  14.625  -2.719  0.00  0.00    -0.019 A 
ATOM     40  C   UNL     1      20.340  14.472  -2.164  0.00  0.00    +0.006 A 
ATOM     41  C   UNL     1      19.199  14.703  -2.936  0.00  0.00    +0.000 A 
ATOM     42  C   UNL     1      19.317  15.103  -4.265  0.00  0.00    +0.000 A 
ATOM     43  C   UNL     1      20.576  15.258  -4.833  0.00  0.00    +0.000 A 
ATOM     44  C   UNL     1      21.716  15.009  -4.071  0.00  0.00    +0.006 A 
ENDBRANCH  32  39
ENDBRANCH  30  32
ENDBRANCH  26  28
ENDBRANCH  25  26
ENDBRANCH  24  25
ENDBRANCH   1  24
TORSDOF 13
