REMARK VINA RESULT:    -6.606      4.479      9.007
REMARK INTER + INTRA:         -14.540
REMARK INTER:                 -12.219
REMARK INTRA:                  -2.321
REMARK UNBOUND:                -2.913
REMARK  Name = lig_assembled_92.pdb
REMARK  13 active torsions:
REMARK  status: ('A' for Active; 'I' for Inactive)
REMARK    1  A    between atoms: _2  and  _10
REMARK    2  A    between atoms: _3  and  _49
REMARK    3  A    between atoms: _7  and  _8
REMARK    4  A    between atoms: _7  and  _20
REMARK    5  A    between atoms: _13  and  _49
REMARK    6  A    between atoms: _20  and  _22
REMARK    7  A    between atoms: _21  and  _26
REMARK    8  A    between atoms: _22  and  _25
REMARK    9  A    between atoms: _30  and  _40
REMARK   10  A    between atoms: _32  and  _33
REMARK   11  A    between atoms: _34  and  _36
REMARK   12  A    between atoms: _36  and  _38
REMARK   13  A    between atoms: _38  and  _40
REMARK                            x       y       z     vdW  Elec       q    Type
REMARK                         _______ _______ _______ _____ _____    ______ ____
ROOT
ATOM      1  O   UNL     1      29.855  16.982  -0.478  0.00  0.00    -0.450 OA
ENDROOT
BRANCH   1   2
ATOM      2  C   UNL     1      28.566  17.055  -0.527  0.00  0.00    +0.400 C 
ATOM      3  N   UNL     1      27.910  15.868  -0.753  0.00  0.00    -0.278 N 
ATOM      4  H   UNL     1      26.887  16.110  -0.561  0.00  0.00    +0.152 HD
ATOM      5  O   UNL     1      27.890  18.068  -0.364  0.00  0.00    -0.226 OA
BRANCH   3   6
ATOM      6  C   UNL     1      27.981  14.462  -1.142  0.00  0.00    +0.152 C 
BRANCH   6   7
ATOM      7  C   UNL     1      26.707  13.867  -1.775  0.00  0.00    +0.193 C 
ATOM      8  O   UNL     1      27.027  13.570  -3.152  0.00  0.00    -0.219 OA
BRANCH   7   9
ATOM      9  C   UNL     1      26.181  12.531  -1.205  0.00  0.00    +0.212 C 
ATOM     10  O   UNL     1      26.949  11.430  -1.717  0.00  0.00    -0.218 OA
BRANCH   9  11
ATOM     11  C   UNL     1      26.204  12.473   0.370  0.00  0.00    +0.171 C 
ATOM     12  O   UNL     1      27.458  12.035   0.884  0.00  0.00    -0.343 OA
ATOM     13  C   UNL     1      27.680  11.662   2.211  0.00  0.00    +0.220 C 
ATOM     14  C   UNL     1      26.637  10.640   2.698  0.00  0.00    +0.076 C 
ATOM     15  C   UNL     1      25.245  11.229   2.414  0.00  0.00    +0.177 C 
ATOM     16  O   UNL     1      24.242  10.339   2.882  0.00  0.00    -0.221 OA
ATOM     17  C   UNL     1      25.083  11.514   0.889  0.00  0.00    +0.155 C 
BRANCH  17  18
ATOM     18  N   UNL     1      23.759  12.066   0.614  0.00  0.00    -0.202 NA
ATOM     19  C   UNL     1      22.716  11.523  -0.063  0.00  0.00    +0.242 C 
ATOM     20  C   UNL     1      21.366  12.183   0.054  0.00  0.00    +0.096 C 
ATOM     21  O   UNL     1      22.892  10.516  -0.746  0.00  0.00    -0.273 OA
ENDBRANCH  17  18
BRANCH  13  22
ATOM     22  C   UNL     1      27.798  12.925   3.227  0.00  0.00    +0.391 C 
ATOM     23  O   UNL     1      27.852  12.377   4.457  0.00  0.00    -0.243 OA
ATOM     24  O   UNL     1      28.096  13.985   2.466  0.00  0.00    -0.243 OA
ENDBRANCH  13  22
ENDBRANCH   9  11
ENDBRANCH   7   9
ENDBRANCH   6   7
ENDBRANCH   3   6
ENDBRANCH   1   2
BRANCH   1  25
ATOM     25  C   UNL     1      30.864  16.442   0.343  0.00  0.00    +0.240 C 
BRANCH  25  26
ATOM     26  C   UNL     1      31.495  15.105  -0.092  0.00  0.00    +0.100 C 
BRANCH  26  28
ATOM     27  N   UNL     1      30.971  12.901   0.915  0.00  0.00    -0.134 NA
ATOM     28  C   UNL     1      31.504  14.152   1.033  0.00  0.00    +0.086 A 
ATOM     29  C   UNL     1      32.011  14.305   2.302  0.00  0.00    +0.139 A 
ATOM     30  N   UNL     1      31.789  13.098   2.923  0.00  0.00    -0.220 N 
ATOM     31  N   UNL     1      31.141  12.268   2.069  0.00  0.00    -0.061 NA
BRANCH  30  32
ATOM     32  C   UNL     1      32.175  12.694   4.227  0.00  0.00    +0.067 A 
ATOM     33  C   UNL     1      31.443  11.712   4.911  0.00  0.00    +0.030 A 
ATOM     34  C   UNL     1      31.790  11.360   6.214  0.00  0.00    +0.031 A 
ATOM     35  C   UNL     1      32.878  11.976   6.835  0.00  0.00    +0.109 A 
ATOM     36  C   UNL     1      33.623  12.948   6.162  0.00  0.00    +0.031 A 
ATOM     37  C   UNL     1      33.278  13.300   4.853  0.00  0.00    +0.030 A 
BRANCH  35  38
ATOM     38  S   UNL     1      33.195  11.613   8.541  0.00  0.00    +0.074 S 
ATOM     39  O   UNL     1      32.956  12.826   9.298  0.00  0.00    -0.150 OA
ATOM     40  O   UNL     1      32.504  10.393   8.890  0.00  0.00    -0.150 OA
BRANCH  38  41
ATOM     41  N   UNL     1      34.868  11.388   8.592  0.00  0.00    -0.194 N 
ATOM     42  H   UNL     1      35.212  11.992   9.335  0.00  0.00    +0.176 HD
ATOM     43  C   UNL     1      35.217  10.033   8.762  0.00  0.00    +0.177 A 
ATOM     44  S   UNL     1      35.611   9.365  10.285  0.00  0.00    -0.059 S 
ATOM     45  C   UNL     1      35.984   7.879   9.511  0.00  0.00    +0.068 A 
ATOM     46  C   UNL     1      35.855   8.028   8.145  0.00  0.00    +0.120 A 
ATOM     47  N   UNL     1      35.384   9.256   7.720  0.00  0.00    -0.232 NA
ENDBRANCH  38  41
ENDBRANCH  35  38
ENDBRANCH  30  32
ENDBRANCH  26  28
ENDBRANCH  25  26
ENDBRANCH   1  25
TORSDOF 13
