REMARK VINA RESULT:    -5.796      2.576      4.265
REMARK INTER + INTRA:         -12.493
REMARK INTER:                 -10.579
REMARK INTRA:                  -1.914
REMARK UNBOUND:                -1.953
REMARK  Name = lig_assembled_13.pdb
REMARK  15 active torsions:
REMARK  status: ('A' for Active; 'I' for Inactive)
REMARK    1  A    between atoms: _2  and  _8
REMARK    2  A    between atoms: _4  and  _10
REMARK    3  A    between atoms: _5  and  _6
REMARK    4  A    between atoms: _5  and  _13
REMARK    5  A    between atoms: _8  and  _9
REMARK    6  A    between atoms: _9  and  _11
REMARK    7  A    between atoms: _10  and  _11
REMARK    8  A    between atoms: _13  and  _15
REMARK    9  A    between atoms: _14  and  _19
REMARK   10  A    between atoms: _15  and  _18
REMARK   11  A    between atoms: _23  and  _33
REMARK   12  A    between atoms: _25  and  _26
REMARK   13  A    between atoms: _27  and  _29
REMARK   14  A    between atoms: _29  and  _31
REMARK   15  A    between atoms: _31  and  _33
REMARK                            x       y       z     vdW  Elec       q    Type
REMARK                         _______ _______ _______ _____ _____    ______ ____
ROOT
ATOM      1  C   UNL     1      30.820  12.956  -2.025  0.00  0.00    +0.152 C 
ENDROOT
BRANCH   1   3
ATOM      2  C   UNL     1      28.977  11.699  -0.454  0.00  0.00    +0.400 C 
ATOM      3  N   UNL     1      29.930  11.978  -1.405  0.00  0.00    -0.278 N 
ATOM      4  H   UNL     1      30.050  11.046  -1.915  0.00  0.00    +0.152 HD
ATOM      5  O   UNL     1      28.395  10.619  -0.516  0.00  0.00    -0.226 OA
BRANCH   2   6
ATOM      6  O   UNL     1      28.805  12.607   0.449  0.00  0.00    -0.450 OA
BRANCH   6   7
ATOM      7  C   UNL     1      28.196  13.869   0.593  0.00  0.00    +0.240 C 
BRANCH   7   8
ATOM      8  C   UNL     1      29.101  15.112   0.489  0.00  0.00    +0.100 C 
BRANCH   8  10
ATOM      9  N   UNL     1      28.528  17.440  -0.125  0.00  0.00    -0.134 NA
ATOM     10  C   UNL     1      28.507  16.105  -0.423  0.00  0.00    +0.086 A 
ATOM     11  C   UNL     1      27.868  15.923  -1.626  0.00  0.00    +0.134 A 
ATOM     12  N   UNL     1      27.465  17.178  -1.978  0.00  0.00    -0.241 N 
ATOM     13  N   UNL     1      27.904  18.092  -1.097  0.00  0.00    -0.065 NA
BRANCH  12  14
ATOM     14  C   UNL     1      26.759  17.593  -3.169  0.00  0.00    +0.265 C 
BRANCH  14  15
ATOM     15  C   UNL     1      26.099  16.435  -3.864  0.00  0.00    +0.329 C 
ATOM     16  O   UNL     1      26.500  15.865  -4.867  0.00  0.00    -0.249 OA
BRANCH  15  17
ATOM     17  O   UNL     1      24.903  16.177  -3.254  0.00  0.00    -0.464 OA
BRANCH  17  18
ATOM     18  C   UNL     1      24.539  14.788  -3.202  0.00  0.00    +0.229 C 
ATOM     19  C   UNL     1      23.597  14.599  -2.025  0.00  0.00    +0.048 C 
ENDBRANCH  17  18
ENDBRANCH  15  17
ENDBRANCH  14  15
ENDBRANCH  12  14
ENDBRANCH   8  10
ENDBRANCH   7   8
ENDBRANCH   6   7
ENDBRANCH   2   6
ENDBRANCH   1   3
BRANCH   1  20
ATOM     20  C   UNL     1      32.321  12.813  -1.698  0.00  0.00    +0.193 C 
ATOM     21  O   UNL     1      33.030  12.902  -2.953  0.00  0.00    -0.219 OA
BRANCH  20  22
ATOM     22  C   UNL     1      32.966  13.901  -0.812  0.00  0.00    +0.212 C 
ATOM     23  O   UNL     1      32.179  15.102  -0.839  0.00  0.00    -0.218 OA
BRANCH  22  24
ATOM     24  C   UNL     1      33.153  13.455   0.689  0.00  0.00    +0.171 C 
ATOM     25  O   UNL     1      32.437  14.283   1.599  0.00  0.00    -0.343 OA
ATOM     26  C   UNL     1      32.615  14.268   2.985  0.00  0.00    +0.220 C 
ATOM     27  C   UNL     1      34.099  14.389   3.371  0.00  0.00    +0.076 C 
ATOM     28  C   UNL     1      34.866  13.296   2.608  0.00  0.00    +0.177 C 
ATOM     29  O   UNL     1      36.242  13.338   2.960  0.00  0.00    -0.221 OA
ATOM     30  C   UNL     1      34.669  13.475   1.071  0.00  0.00    +0.155 C 
BRANCH  30  31
ATOM     31  N   UNL     1      35.402  12.443   0.342  0.00  0.00    -0.202 NA
ATOM     32  C   UNL     1      36.364  12.568  -0.607  0.00  0.00    +0.242 C 
ATOM     33  C   UNL     1      37.162  11.346  -0.982  0.00  0.00    +0.096 C 
ATOM     34  O   UNL     1      36.561  13.662  -1.132  0.00  0.00    -0.273 OA
ENDBRANCH  30  31
BRANCH  26  35
ATOM     35  C   UNL     1      31.910  12.999   3.714  0.00  0.00    +0.391 C 
ATOM     36  O   UNL     1      32.639  12.789   4.827  0.00  0.00    -0.243 OA
ATOM     37  O   UNL     1      30.724  12.838   3.113  0.00  0.00    -0.243 OA
ENDBRANCH  26  35
ENDBRANCH  22  24
ENDBRANCH  20  22
ENDBRANCH   1  20
TORSDOF 14
