REMARK VINA RESULT:    -7.192      2.404      8.100
REMARK INTER + INTRA:         -15.151
REMARK INTER:                 -11.840
REMARK INTRA:                  -3.311
REMARK UNBOUND:                -2.494
REMARK  Name = lig_assembled_79.pdb
REMARK  15 active torsions:
REMARK  status: ('A' for Active; 'I' for Inactive)
REMARK    1  A    between atoms: _2  and  _9
REMARK    2  A    between atoms: _6  and  _7
REMARK    3  A    between atoms: _6  and  _21
REMARK    4  A    between atoms: _9  and  _10
REMARK    5  A    between atoms: _9  and  _11
REMARK    6  A    between atoms: _9  and  _12
REMARK    7  A    between atoms: _12  and  _13
REMARK    8  A    between atoms: _21  and  _23
REMARK    9  A    between atoms: _22  and  _27
REMARK   10  A    between atoms: _23  and  _26
REMARK   11  A    between atoms: _31  and  _41
REMARK   12  A    between atoms: _33  and  _34
REMARK   13  A    between atoms: _35  and  _37
REMARK   14  A    between atoms: _37  and  _39
REMARK   15  A    between atoms: _39  and  _41
REMARK                            x       y       z     vdW  Elec       q    Type
REMARK                         _______ _______ _______ _____ _____    ______ ____
ROOT
ATOM      1  O   UNL     1      25.627  16.453  -3.633  0.00  0.00    -0.450 OA
ENDROOT
BRANCH   1   2
ATOM      2  C   UNL     1      24.704  15.685  -3.154  0.00  0.00    +0.400 C 
ATOM      3  N   UNL     1      25.101  14.409  -2.830  0.00  0.00    -0.278 N 
ATOM      4  H   UNL     1      24.267  14.022  -2.284  0.00  0.00    +0.152 HD
ATOM      5  O   UNL     1      23.536  16.001  -2.940  0.00  0.00    -0.226 OA
BRANCH   3   6
ATOM      6  C   UNL     1      26.119  13.366  -2.908  0.00  0.00    +0.152 C 
BRANCH   6   7
ATOM      7  C   UNL     1      25.674  12.026  -3.530  0.00  0.00    +0.193 C 
ATOM      8  O   UNL     1      26.779  11.109  -3.377  0.00  0.00    -0.219 OA
BRANCH   7   9
ATOM      9  C   UNL     1      24.477  11.298  -2.879  0.00  0.00    +0.212 C 
ATOM     10  O   UNL     1      24.555   9.885  -3.125  0.00  0.00    -0.218 OA
BRANCH   9  11
ATOM     11  C   UNL     1      24.374  11.534  -1.324  0.00  0.00    +0.171 C 
ATOM     12  O   UNL     1      24.943  10.469  -0.569  0.00  0.00    -0.343 OA
ATOM     13  C   UNL     1      24.775  10.301   0.807  0.00  0.00    +0.220 C 
ATOM     14  C   UNL     1      23.293  10.370   1.214  0.00  0.00    +0.076 C 
ATOM     15  C   UNL     1      22.718  11.679   0.647  0.00  0.00    +0.177 C 
ATOM     16  O   UNL     1      21.356  11.812   1.029  0.00  0.00    -0.221 OA
ATOM     17  C   UNL     1      22.877  11.708  -0.905  0.00  0.00    +0.155 C 
BRANCH  17  18
ATOM     18  N   UNL     1      22.326  12.946  -1.448  0.00  0.00    -0.202 NA
ATOM     19  C   UNL     1      21.163  13.160  -2.115  0.00  0.00    +0.242 C 
ATOM     20  C   UNL     1      20.697  14.580  -2.304  0.00  0.00    +0.096 C 
ATOM     21  O   UNL     1      20.523  12.201  -2.543  0.00  0.00    -0.273 OA
ENDBRANCH  17  18
BRANCH  13  22
ATOM     22  C   UNL     1      25.686  11.308   1.698  0.00  0.00    +0.391 C 
ATOM     23  O   UNL     1      25.084  11.349   2.902  0.00  0.00    -0.243 OA
ATOM     24  O   UNL     1      26.828  11.473   1.018  0.00  0.00    -0.243 OA
ENDBRANCH  13  22
ENDBRANCH   9  11
ENDBRANCH   7   9
ENDBRANCH   6   7
ENDBRANCH   3   6
ENDBRANCH   1   2
BRANCH   1  25
ATOM     25  C   UNL     1      26.908  16.927  -3.290  0.00  0.00    +0.240 C 
BRANCH  25  26
ATOM     26  C   UNL     1      27.101  17.488  -1.868  0.00  0.00    +0.100 C 
BRANCH  26  28
ATOM     27  N   UNL     1      29.361  17.596  -0.888  0.00  0.00    -0.134 NA
ATOM     28  C   UNL     1      28.268  16.854  -1.227  0.00  0.00    +0.086 A 
ATOM     29  C   UNL     1      28.487  15.541  -0.882  0.00  0.00    +0.134 A 
ATOM     30  N   UNL     1      29.699  15.549  -0.250  0.00  0.00    -0.238 N 
ATOM     31  N   UNL     1      30.250  16.785  -0.334  0.00  0.00    -0.065 NA
BRANCH  30  32
ATOM     32  C   UNL     1      30.526  14.431   0.292  0.00  0.00    +0.122 C 
ATOM     33  C   UNL     1      31.964  14.654  -0.233  0.00  0.00    +0.044 C 
ATOM     34  C   UNL     1      29.844  13.147  -0.218  0.00  0.00    +0.044 C 
BRANCH  32  35
ATOM     35  C   UNL     1      30.598  14.411   1.834  0.00  0.00    +0.192 C 
ATOM     36  O   UNL     1      31.459  15.068   2.425  0.00  0.00    -0.289 OA
BRANCH  35  37
ATOM     37  C   UNL     1      29.669  13.599   2.671  0.00  0.00    +0.045 A 
ATOM     38  C   UNL     1      28.347  14.004   2.830  0.00  0.00    +0.095 A 
ATOM     39  N   UNL     1      27.696  13.134   3.650  0.00  0.00    -0.360 N 
ATOM     40  H   UNL     1      26.728  13.211   3.932  0.00  0.00    +0.165 HD
ATOM     41  C   UNL     1      28.549  12.140   4.052  0.00  0.00    +0.047 A 
ATOM     42  C   UNL     1      28.294  11.054   4.902  0.00  0.00    +0.026 A 
ATOM     43  C   UNL     1      29.336  10.167   5.171  0.00  0.00    +0.002 A 
ATOM     44  C   UNL     1      30.586  10.361   4.605  0.00  0.00    +0.001 A 
ATOM     45  C   UNL     1      30.820  11.450   3.758  0.00  0.00    +0.011 A 
ATOM     46  C   UNL     1      29.794  12.383   3.457  0.00  0.00    +0.010 A 
ENDBRANCH  35  37
ENDBRANCH  32  35
ENDBRANCH  30  32
ENDBRANCH  26  28
ENDBRANCH  25  26
ENDBRANCH   1  25
TORSDOF 13
