REMARK VINA RESULT:    -6.930      4.337      9.547
REMARK INTER + INTRA:         -15.038
REMARK INTER:                 -11.892
REMARK INTRA:                  -3.146
REMARK UNBOUND:                -2.234
REMARK  Name = lig_assembled_83.pdb
REMARK  15 active torsions:
REMARK  status: ('A' for Active; 'I' for Inactive)
REMARK    1  A    between atoms: _2  and  _11
REMARK    2  A    between atoms: _3  and  _13
REMARK    3  A    between atoms: _8  and  _9
REMARK    4  A    between atoms: _8  and  _19
REMARK    5  A    between atoms: _11  and  _12
REMARK    6  A    between atoms: _12  and  _13
REMARK    7  A    between atoms: _12  and  _17
REMARK    8  A    between atoms: _19  and  _21
REMARK    9  A    between atoms: _20  and  _25
REMARK   10  A    between atoms: _21  and  _24
REMARK   11  A    between atoms: _29  and  _39
REMARK   12  A    between atoms: _31  and  _32
REMARK   13  A    between atoms: _33  and  _35
REMARK   14  A    between atoms: _35  and  _37
REMARK   15  A    between atoms: _37  and  _39
REMARK                            x       y       z     vdW  Elec       q    Type
REMARK                         _______ _______ _______ _____ _____    ______ ____
ROOT
ATOM      1  C   UNL     1      31.743  14.488   1.842  0.00  0.00    +0.400 C 
ATOM      2  N   UNL     1      30.850  15.458   1.450  0.00  0.00    -0.278 N 
ATOM      3  H   UNL     1      30.098  15.422   2.208  0.00  0.00    +0.152 HD
ATOM      4  O   UNL     1      31.599  13.984   2.953  0.00  0.00    -0.226 OA
ENDROOT
BRANCH   2   5
ATOM      5  C   UNL     1      30.486  16.499   0.493  0.00  0.00    +0.152 C 
BRANCH   5   6
ATOM      6  C   UNL     1      29.127  16.326  -0.215  0.00  0.00    +0.193 C 
ATOM      7  O   UNL     1      29.105  17.270  -1.308  0.00  0.00    -0.219 OA
BRANCH   6   8
ATOM      8  C   UNL     1      28.835  14.962  -0.878  0.00  0.00    +0.212 C 
ATOM      9  O   UNL     1      30.062  14.285  -1.195  0.00  0.00    -0.218 OA
BRANCH   8  10
ATOM     10  C   UNL     1      27.950  14.010   0.014  0.00  0.00    +0.171 C 
ATOM     11  O   UNL     1      28.725  13.239   0.927  0.00  0.00    -0.343 OA
ATOM     12  C   UNL     1      28.234  12.154   1.656  0.00  0.00    +0.220 C 
ATOM     13  C   UNL     1      27.503  11.144   0.754  0.00  0.00    +0.076 C 
ATOM     14  C   UNL     1      26.443  11.920  -0.045  0.00  0.00    +0.177 C 
ATOM     15  O   UNL     1      25.709  11.025  -0.868  0.00  0.00    -0.221 OA
ATOM     16  C   UNL     1      27.122  13.041  -0.891  0.00  0.00    +0.155 C 
BRANCH  16  17
ATOM     17  N   UNL     1      26.119  13.776  -1.657  0.00  0.00    -0.202 NA
ATOM     18  C   UNL     1      26.040  14.001  -2.993  0.00  0.00    +0.242 C 
ATOM     19  C   UNL     1      24.748  14.537  -3.554  0.00  0.00    +0.096 C 
ATOM     20  O   UNL     1      27.012  13.764  -3.708  0.00  0.00    -0.273 OA
ENDBRANCH  16  17
BRANCH  12  21
ATOM     21  C   UNL     1      27.321  12.589   2.927  0.00  0.00    +0.391 C 
ATOM     22  O   UNL     1      26.663  11.468   3.283  0.00  0.00    -0.243 OA
ATOM     23  O   UNL     1      27.782  13.781   3.323  0.00  0.00    -0.243 OA
ENDBRANCH  12  21
ENDBRANCH   8  10
ENDBRANCH   6   8
ENDBRANCH   5   6
ENDBRANCH   2   5
BRANCH   1  24
ATOM     24  O   UNL     1      32.646  14.174   0.973  0.00  0.00    -0.450 OA
BRANCH  24  25
ATOM     25  C   UNL     1      33.266  13.024   0.444  0.00  0.00    +0.240 C 
BRANCH  25  26
ATOM     26  C   UNL     1      34.670  12.668   0.969  0.00  0.00    +0.100 C 
BRANCH  26  28
ATOM     27  N   UNL     1      35.064  13.747   3.171  0.00  0.00    -0.134 NA
ATOM     28  C   UNL     1      34.680  12.649   2.443  0.00  0.00    +0.086 A 
ATOM     29  C   UNL     1      34.343  11.635   3.310  0.00  0.00    +0.133 A 
ATOM     30  N   UNL     1      34.528  12.181   4.542  0.00  0.00    -0.249 N 
ATOM     31  N   UNL     1      34.971  13.446   4.460  0.00  0.00    -0.065 NA
BRANCH  30  32
ATOM     32  C   UNL     1      34.338  11.548   5.829  0.00  0.00    +0.178 C 
BRANCH  32  33
ATOM     33  C   UNL     1      33.213  12.207   6.632  0.00  0.00    +0.156 C 
BRANCH  33  34
ATOM     34  O   UNL     1      32.113  12.511   5.767  0.00  0.00    -0.388 OA
ATOM     35  H   UNL     1      31.904  11.733   5.212  0.00  0.00    +0.210 HD
ENDBRANCH  33  34
BRANCH  33  36
ATOM     36  C   UNL     1      32.755  11.289   7.775  0.00  0.00    +0.162 C 
BRANCH  36  37
ATOM     37  N   UNL     1      32.454  12.022   8.994  0.00  0.00    -0.269 N 
ATOM     38  C   UNL     1      33.420  12.479   9.862  0.00  0.00    +0.113 A 
ATOM     39  C   UNL     1      32.739  13.138  10.858  0.00  0.00    +0.137 A 
ATOM     40  N   UNL     1      31.389  13.076  10.647  0.00  0.00    -0.172 NA
ATOM     41  C   UNL     1      31.243  12.406   9.518  0.00  0.00    +0.450 A 
ATOM     42  N   UNL     1      29.948  12.136   8.939  0.00  0.00    +0.120 N 
ATOM     43  O   UNL     1      29.914  11.498   7.873  0.00  0.00    +0.045 OA
ATOM     44  O   UNL     1      28.953  12.546   9.548  0.00  0.00    -0.573 OA
ENDBRANCH  36  37
ENDBRANCH  33  36
ENDBRANCH  32  33
ENDBRANCH  30  32
ENDBRANCH  26  28
ENDBRANCH  25  26
ENDBRANCH  24  25
ENDBRANCH   1  24
TORSDOF 15
