REMARK VINA RESULT:    -7.122      2.248      3.698
REMARK INTER + INTRA:         -14.246
REMARK INTER:                 -12.557
REMARK INTRA:                  -1.689
REMARK UNBOUND:                -2.128
REMARK  Name = lig_assembled_0.pdb
REMARK  12 active torsions:
REMARK  status: ('A' for Active; 'I' for Inactive)
REMARK    1  A    between atoms: _2  and  _9
REMARK    2  A    between atoms: _6  and  _7
REMARK    3  A    between atoms: _6  and  _16
REMARK    4  A    between atoms: _10  and  _11
REMARK    5  A    between atoms: _16  and  _18
REMARK    6  A    between atoms: _17  and  _22
REMARK    7  A    between atoms: _18  and  _21
REMARK    8  A    between atoms: _26  and  _36
REMARK    9  A    between atoms: _28  and  _29
REMARK   10  A    between atoms: _30  and  _32
REMARK   11  A    between atoms: _32  and  _34
REMARK   12  A    between atoms: _34  and  _36
REMARK                            x       y       z     vdW  Elec       q    Type
REMARK                         _______ _______ _______ _____ _____    ______ ____
ROOT
ATOM      1  C   UNL     1      27.946  17.228  -0.713  0.00  0.00    +0.400 C 
ATOM      2  N   UNL     1      28.641  16.257  -0.031  0.00  0.00    -0.278 N 
ATOM      3  H   UNL     1      28.919  16.745   0.878  0.00  0.00    +0.152 HD
ATOM      4  O   UNL     1      27.660  18.263  -0.117  0.00  0.00    -0.226 OA
ENDROOT
BRANCH   2   5
ATOM      5  C   UNL     1      29.145  14.887   0.013  0.00  0.00    +0.152 C 
BRANCH   5   6
ATOM      6  C   UNL     1      30.673  14.729   0.162  0.00  0.00    +0.193 C 
ATOM      7  O   UNL     1      31.082  15.630   1.215  0.00  0.00    -0.219 OA
BRANCH   6   8
ATOM      8  C   UNL     1      31.209  13.350   0.603  0.00  0.00    +0.212 C 
ATOM      9  O   UNL     1      32.246  12.907  -0.287  0.00  0.00    -0.218 OA
BRANCH   8  10
ATOM     10  C   UNL     1      31.772  13.341   2.076  0.00  0.00    +0.171 C 
ATOM     11  O   UNL     1      33.142  12.956   2.137  0.00  0.00    -0.343 OA
ATOM     12  C   UNL     1      33.818  12.631   3.315  0.00  0.00    +0.220 C 
ATOM     13  C   UNL     1      33.044  11.596   4.149  0.00  0.00    +0.076 C 
ATOM     14  C   UNL     1      31.618  12.134   4.349  0.00  0.00    +0.177 C 
ATOM     15  O   UNL     1      30.869  11.231   5.150  0.00  0.00    -0.221 OA
ATOM     16  C   UNL     1      30.933  12.367   2.966  0.00  0.00    +0.155 C 
BRANCH  16  17
ATOM     17  N   UNL     1      29.575  12.872   3.151  0.00  0.00    -0.202 NA
ATOM     18  C   UNL     1      28.389  12.333   2.770  0.00  0.00    +0.242 C 
ATOM     19  C   UNL     1      27.122  12.912   3.344  0.00  0.00    +0.096 C 
ATOM     20  O   UNL     1      28.375  11.394   1.976  0.00  0.00    -0.273 OA
ENDBRANCH  16  17
BRANCH  12  21
ATOM     21  C   UNL     1      34.228  13.928   4.204  0.00  0.00    +0.391 C 
ATOM     22  O   UNL     1      33.991  13.564   5.479  0.00  0.00    -0.243 OA
ATOM     23  O   UNL     1      34.915  14.735   3.386  0.00  0.00    -0.243 OA
ENDBRANCH  12  21
ENDBRANCH   8  10
ENDBRANCH   6   8
ENDBRANCH   5   6
ENDBRANCH   2   5
BRANCH   1  24
ATOM     24  O   UNL     1      27.683  16.962  -1.951  0.00  0.00    -0.450 OA
BRANCH  24  25
ATOM     25  C   UNL     1      26.821  17.397  -2.977  0.00  0.00    +0.240 C 
BRANCH  25  26
ATOM     26  C   UNL     1      26.510  16.405  -4.113  0.00  0.00    +0.100 C 
BRANCH  26  28
ATOM     27  N   UNL     1      24.883  14.616  -4.602  0.00  0.00    -0.134 NA
ATOM     28  C   UNL     1      25.444  15.472  -3.702  0.00  0.00    +0.086 A 
ATOM     29  C   UNL     1      24.871  15.267  -2.466  0.00  0.00    +0.139 A 
ATOM     30  N   UNL     1      23.885  14.332  -2.678  0.00  0.00    -0.219 N 
ATOM     31  N   UNL     1      23.975  13.893  -3.965  0.00  0.00    -0.061 NA
BRANCH  30  32
ATOM     32  C   UNL     1      22.958  13.736  -1.778  0.00  0.00    +0.079 A 
ATOM     33  C   UNL     1      23.246  12.643  -0.934  0.00  0.00    +0.062 A 
ATOM     34  C   UNL     1      22.216  12.124  -0.118  0.00  0.00    +0.015 A 
ATOM     35  C   UNL     1      20.928  12.660  -0.144  0.00  0.00    +0.001 A 
ATOM     36  C   UNL     1      20.650  13.745  -0.962  0.00  0.00    +0.002 A 
ATOM     37  C   UNL     1      21.655  14.285  -1.762  0.00  0.00    +0.028 A 
BRANCH  33  38
ATOM     38  C   UNL     1      24.616  12.107  -0.700  0.00  0.00    +0.244 C 
ATOM     39  O   UNL     1      25.389  12.617   0.096  0.00  0.00    -0.270 OA
ATOM     40  N   UNL     1      24.982  10.980  -1.387  0.00  0.00    -0.325 N 
ATOM     41  H   UNL     1      25.896  10.593  -1.182  0.00  0.00    +0.145 HD
ATOM     42  H   UNL     1      24.398  10.492  -2.049  0.00  0.00    +0.145 HD
ENDBRANCH  33  38
ENDBRANCH  30  32
ENDBRANCH  26  28
ENDBRANCH  25  26
ENDBRANCH  24  25
ENDBRANCH   1  24
TORSDOF 12
