REMARK VINA RESULT:    -6.192      2.723     10.281
REMARK INTER + INTRA:         -13.495
REMARK INTER:                 -11.391
REMARK INTRA:                  -2.104
REMARK UNBOUND:                -2.235
REMARK  Name = lig_assembled_50.pdb
REMARK  15 active torsions:
REMARK  status: ('A' for Active; 'I' for Inactive)
REMARK    1  A    between atoms: _2  and  _8
REMARK    2  A    between atoms: _4  and  _9
REMARK    3  A    between atoms: _4  and  _10
REMARK    4  A    between atoms: _5  and  _6
REMARK    5  A    between atoms: _5  and  _12
REMARK    6  A    between atoms: _8  and  _9
REMARK    7  A    between atoms: _9  and  _11
REMARK    8  A    between atoms: _12  and  _14
REMARK    9  A    between atoms: _13  and  _18
REMARK   10  A    between atoms: _14  and  _17
REMARK   11  A    between atoms: _22  and  _32
REMARK   12  A    between atoms: _24  and  _25
REMARK   13  A    between atoms: _26  and  _28
REMARK   14  A    between atoms: _28  and  _30
REMARK   15  A    between atoms: _30  and  _32
REMARK                            x       y       z     vdW  Elec       q    Type
REMARK                         _______ _______ _______ _____ _____    ______ ____
ROOT
ATOM      1  C   UNL     1      27.167  16.528  -2.429  0.00  0.00    +0.400 C 
ATOM      2  N   UNL     1      26.950  15.194  -2.683  0.00  0.00    -0.278 N 
ATOM      3  H   UNL     1      25.978  15.182  -3.128  0.00  0.00    +0.152 HD
ATOM      4  O   UNL     1      26.372  17.342  -2.892  0.00  0.00    -0.226 OA
ENDROOT
BRANCH   2   5
ATOM      5  C   UNL     1      27.446  13.821  -2.632  0.00  0.00    +0.152 C 
BRANCH   5   6
ATOM      6  C   UNL     1      26.437  12.719  -3.014  0.00  0.00    +0.193 C 
ATOM      7  O   UNL     1      27.157  11.467  -2.980  0.00  0.00    -0.219 OA
BRANCH   6   8
ATOM      8  C   UNL     1      25.232  12.496  -2.074  0.00  0.00    +0.212 C 
ATOM      9  O   UNL     1      25.438  13.174  -0.824  0.00  0.00    -0.218 OA
BRANCH   8  10
ATOM     10  C   UNL     1      23.863  12.979  -2.689  0.00  0.00    +0.171 C 
ATOM     11  O   UNL     1      23.936  14.297  -3.222  0.00  0.00    -0.343 OA
ATOM     12  C   UNL     1      22.827  15.057  -3.602  0.00  0.00    +0.220 C 
ATOM     13  C   UNL     1      21.759  15.101  -2.495  0.00  0.00    +0.076 C 
ATOM     14  C   UNL     1      21.445  13.649  -2.098  0.00  0.00    +0.177 C 
ATOM     15  O   UNL     1      20.431  13.630  -1.103  0.00  0.00    -0.221 OA
ATOM     16  C   UNL     1      22.740  12.934  -1.602  0.00  0.00    +0.155 C 
BRANCH  16  17
ATOM     17  N   UNL     1      22.444  11.557  -1.217  0.00  0.00    -0.202 NA
ATOM     18  C   UNL     1      22.540  10.955  -0.004  0.00  0.00    +0.242 C 
ATOM     19  C   UNL     1      21.892   9.607   0.178  0.00  0.00    +0.096 C 
ATOM     20  O   UNL     1      23.144  11.516   0.907  0.00  0.00    -0.273 OA
ENDBRANCH  16  17
BRANCH  12  21
ATOM     21  C   UNL     1      22.191  14.605  -5.027  0.00  0.00    +0.391 C 
ATOM     22  O   UNL     1      20.976  15.186  -5.065  0.00  0.00    -0.243 OA
ATOM     23  O   UNL     1      23.204  14.095  -5.739  0.00  0.00    -0.243 OA
ENDBRANCH  12  21
ENDBRANCH   8  10
ENDBRANCH   6   8
ENDBRANCH   5   6
ENDBRANCH   2   5
BRANCH   1  24
ATOM     24  O   UNL     1      28.189  16.797  -1.685  0.00  0.00    -0.450 OA
BRANCH  24  25
ATOM     25  C   UNL     1      28.676  16.513  -0.395  0.00  0.00    +0.240 C 
BRANCH  25  26
ATOM     26  C   UNL     1      30.074  17.049  -0.028  0.00  0.00    +0.100 C 
BRANCH  26  28
ATOM     27  N   UNL     1      31.765  15.350  -0.657  0.00  0.00    -0.134 NA
ATOM     28  C   UNL     1      30.981  15.933   0.307  0.00  0.00    +0.086 A 
ATOM     29  C   UNL     1      31.220  15.315   1.516  0.00  0.00    +0.133 A 
ATOM     30  N   UNL     1      32.146  14.366   1.221  0.00  0.00    -0.249 N 
ATOM     31  N   UNL     1      32.485  14.399  -0.082  0.00  0.00    -0.065 NA
BRANCH  30  32
ATOM     32  C   UNL     1      32.747  13.393   2.104  0.00  0.00    +0.178 C 
BRANCH  32  33
ATOM     33  C   UNL     1      34.131  13.795   2.625  0.00  0.00    +0.161 C 
BRANCH  33  34
ATOM     34  O   UNL     1      34.890  14.534   1.664  0.00  0.00    -0.388 OA
ATOM     35  H   UNL     1      35.490  15.142   2.142  0.00  0.00    +0.210 HD
ENDBRANCH  33  34
BRANCH  33  36
ATOM     36  C   UNL     1      34.088  14.563   3.953  0.00  0.00    +0.189 C 
BRANCH  36  37
ATOM     37  O   UNL     1      33.912  15.963   3.738  0.00  0.00    -0.392 OA
ATOM     38  H   UNL     1      34.621  16.271   3.142  0.00  0.00    +0.210 HD
ENDBRANCH  36  37
ENDBRANCH  33  36
ENDBRANCH  32  33
ENDBRANCH  30  32
ENDBRANCH  26  28
ENDBRANCH  25  26
ENDBRANCH  24  25
ENDBRANCH   1  24
TORSDOF 15
