REMARK VINA RESULT:    -7.470      1.750      2.288
REMARK INTER + INTRA:         -15.360
REMARK INTER:                 -13.138
REMARK INTRA:                  -2.222
REMARK UNBOUND:                -1.120
REMARK  Name = lig_assembled_76.pdb
REMARK  16 active torsions:
REMARK  status: ('A' for Active; 'I' for Inactive)
REMARK    1  A    between atoms: _2  and  _8
REMARK    2  A    between atoms: _5  and  _6
REMARK    3  A    between atoms: _5  and  _18
REMARK    4  A    between atoms: _8  and  _9
REMARK    5  A    between atoms: _9  and  _10
REMARK    6  A    between atoms: _9  and  _17
REMARK    7  A    between atoms: _10  and  _11
REMARK    8  A    between atoms: _11  and  _12
REMARK    9  A    between atoms: _18  and  _20
REMARK   10  A    between atoms: _19  and  _24
REMARK   11  A    between atoms: _20  and  _23
REMARK   12  A    between atoms: _28  and  _38
REMARK   13  A    between atoms: _30  and  _31
REMARK   14  A    between atoms: _32  and  _34
REMARK   15  A    between atoms: _34  and  _36
REMARK   16  A    between atoms: _36  and  _38
REMARK                            x       y       z     vdW  Elec       q    Type
REMARK                         _______ _______ _______ _____ _____    ______ ____
ROOT
ATOM      1  C   UNL     1      27.598  17.485  -1.786  0.00  0.00    +0.400 C 
ATOM      2  N   UNL     1      28.001  16.404  -1.039  0.00  0.00    -0.278 N 
ATOM      3  H   UNL     1      28.279  16.841  -0.103  0.00  0.00    +0.152 HD
ATOM      4  O   UNL     1      27.473  18.568  -1.219  0.00  0.00    -0.226 OA
ENDROOT
BRANCH   1   5
ATOM      5  O   UNL     1      27.415  17.258  -3.046  0.00  0.00    -0.450 OA
BRANCH   5   6
ATOM      6  C   UNL     1      26.382  16.876  -3.924  0.00  0.00    +0.240 C 
BRANCH   6   7
ATOM      7  C   UNL     1      26.144  15.368  -4.127  0.00  0.00    +0.100 C 
BRANCH   7   9
ATOM      8  N   UNL     1      24.339  15.718  -2.463  0.00  0.00    -0.134 NA
ATOM      9  C   UNL     1      24.909  14.947  -3.443  0.00  0.00    +0.086 A 
ATOM     10  C   UNL     1      24.160  13.804  -3.613  0.00  0.00    +0.133 A 
ATOM     11  N   UNL     1      23.147  13.944  -2.715  0.00  0.00    -0.249 N 
ATOM     12  N   UNL     1      23.259  15.087  -2.017  0.00  0.00    -0.065 NA
BRANCH  11  13
ATOM     13  C   UNL     1      22.126  12.979  -2.377  0.00  0.00    +0.176 C 
BRANCH  13  14
ATOM     14  C   UNL     1      21.440  13.279  -1.040  0.00  0.00    +0.136 C 
BRANCH  14  15
ATOM     15  O   UNL     1      20.206  13.977  -1.263  0.00  0.00    -0.390 OA
ATOM     16  H   UNL     1      20.164  14.261  -2.192  0.00  0.00    +0.210 HD
ENDBRANCH  14  15
BRANCH  14  17
ATOM     17  C   UNL     1      21.110  12.003  -0.250  0.00  0.00    +0.038 C 
BRANCH  17  18
ATOM     18  C   UNL     1      22.168  10.908  -0.390  0.00  0.00    +0.038 C 
BRANCH  18  19
ATOM     19  C   UNL     1      23.314  11.100   0.569  0.00  0.00    -0.047 A 
ATOM     20  C   UNL     1      24.539  11.609   0.116  0.00  0.00    +0.003 A 
ATOM     21  C   UNL     1      25.596  11.804   1.005  0.00  0.00    +0.000 A 
ATOM     22  C   UNL     1      25.439  11.488   2.353  0.00  0.00    +0.000 A 
ATOM     23  C   UNL     1      24.229  10.971   2.812  0.00  0.00    +0.000 A 
ATOM     24  C   UNL     1      23.170  10.773   1.924  0.00  0.00    +0.003 A 
ENDBRANCH  18  19
ENDBRANCH  17  18
ENDBRANCH  14  17
ENDBRANCH  13  14
ENDBRANCH  11  13
ENDBRANCH   7   9
ENDBRANCH   6   7
ENDBRANCH   5   6
ENDBRANCH   1   5
BRANCH   2  25
ATOM     25  C   UNL     1      28.203  14.961  -0.947  0.00  0.00    +0.152 C 
BRANCH  25  26
ATOM     26  C   UNL     1      29.178  14.479   0.147  0.00  0.00    +0.193 C 
ATOM     27  O   UNL     1      29.119  13.035   0.150  0.00  0.00    -0.219 OA
BRANCH  26  28
ATOM     28  C   UNL     1      30.677  14.803  -0.038  0.00  0.00    +0.212 C 
ATOM     29  O   UNL     1      30.920  16.200   0.190  0.00  0.00    -0.218 OA
BRANCH  28  30
ATOM     30  C   UNL     1      31.618  13.966   0.910  0.00  0.00    +0.171 C 
ATOM     31  O   UNL     1      31.712  14.522   2.218  0.00  0.00    -0.343 OA
ATOM     32  C   UNL     1      32.652  14.132   3.174  0.00  0.00    +0.220 C 
ATOM     33  C   UNL     1      34.081  14.134   2.604  0.00  0.00    +0.076 C 
ATOM     34  C   UNL     1      34.069  13.283   1.323  0.00  0.00    +0.177 C 
ATOM     35  O   UNL     1      35.378  13.220   0.775  0.00  0.00    -0.221 OA
ATOM     36  C   UNL     1      33.053  13.873   0.296  0.00  0.00    +0.155 C 
BRANCH  36  37
ATOM     37  N   UNL     1      33.044  13.071  -0.925  0.00  0.00    -0.202 NA
ATOM     38  C   UNL     1      33.300  13.439  -2.206  0.00  0.00    +0.242 C 
ATOM     39  C   UNL     1      33.511  12.357  -3.233  0.00  0.00    +0.096 C 
ATOM     40  O   UNL     1      33.354  14.633  -2.497  0.00  0.00    -0.273 OA
ENDBRANCH  36  37
BRANCH  32  41
ATOM     41  C   UNL     1      32.298  12.717   3.891  0.00  0.00    +0.391 C 
ATOM     42  O   UNL     1      31.011  12.477   3.569  0.00  0.00    -0.243 OA
ATOM     43  O   UNL     1      33.469  12.188   4.264  0.00  0.00    -0.243 OA
ENDBRANCH  32  41
ENDBRANCH  28  30
ENDBRANCH  26  28
ENDBRANCH  25  26
ENDBRANCH   2  25
TORSDOF 16
