REMARK VINA RESULT:    -7.133      3.076      7.784
REMARK INTER + INTRA:         -15.086
REMARK INTER:                 -12.057
REMARK INTRA:                  -3.029
REMARK UNBOUND:                -2.115
REMARK  Name = lig_assembled_26.pdb
REMARK  15 active torsions:
REMARK  status: ('A' for Active; 'I' for Inactive)
REMARK    1  A    between atoms: _2  and  _8
REMARK    2  A    between atoms: _5  and  _6
REMARK    3  A    between atoms: _5  and  _18
REMARK    4  A    between atoms: _8  and  _9
REMARK    5  A    between atoms: _8  and  _10
REMARK    6  A    between atoms: _10  and  _11
REMARK    7  A    between atoms: _11  and  _12
REMARK    8  A    between atoms: _18  and  _20
REMARK    9  A    between atoms: _19  and  _24
REMARK   10  A    between atoms: _20  and  _23
REMARK   11  A    between atoms: _28  and  _38
REMARK   12  A    between atoms: _30  and  _31
REMARK   13  A    between atoms: _32  and  _34
REMARK   14  A    between atoms: _34  and  _36
REMARK   15  A    between atoms: _36  and  _38
REMARK                            x       y       z     vdW  Elec       q    Type
REMARK                         _______ _______ _______ _____ _____    ______ ____
ROOT
ATOM      1  C   UNL     1      28.789  17.071  -0.604  0.00  0.00    +0.400 C 
ATOM      2  N   UNL     1      27.685  16.750  -1.359  0.00  0.00    -0.278 N 
ATOM      3  H   UNL     1      27.033  17.584  -1.211  0.00  0.00    +0.152 HD
ATOM      4  O   UNL     1      28.859  18.204  -0.133  0.00  0.00    -0.226 OA
ENDROOT
BRANCH   2   5
ATOM      5  C   UNL     1      27.027  15.811  -2.263  0.00  0.00    +0.152 C 
BRANCH   5   6
ATOM      6  C   UNL     1      26.011  16.418  -3.252  0.00  0.00    +0.193 C 
ATOM      7  O   UNL     1      26.687  17.499  -3.932  0.00  0.00    -0.219 OA
BRANCH   6   8
ATOM      8  C   UNL     1      25.491  15.513  -4.390  0.00  0.00    +0.212 C 
ATOM      9  O   UNL     1      26.346  15.613  -5.541  0.00  0.00    -0.218 OA
BRANCH   8  10
ATOM     10  C   UNL     1      25.377  13.995  -3.978  0.00  0.00    +0.171 C 
ATOM     11  O   UNL     1      26.353  13.179  -4.617  0.00  0.00    -0.343 OA
ATOM     12  C   UNL     1      26.329  11.783  -4.625  0.00  0.00    +0.220 C 
ATOM     13  C   UNL     1      24.960  11.237  -5.066  0.00  0.00    +0.076 C 
ATOM     14  C   UNL     1      23.892  11.898  -4.178  0.00  0.00    +0.177 C 
ATOM     15  O   UNL     1      22.606  11.397  -4.517  0.00  0.00    -0.221 OA
ATOM     16  C   UNL     1      23.954  13.450  -4.327  0.00  0.00    +0.155 C 
BRANCH  16  17
ATOM     17  N   UNL     1      22.936  14.081  -3.491  0.00  0.00    -0.202 NA
ATOM     18  C   UNL     1      21.809  14.747  -3.849  0.00  0.00    +0.242 C 
ATOM     19  C   UNL     1      20.783  15.041  -2.786  0.00  0.00    +0.096 C 
ATOM     20  O   UNL     1      21.652  15.090  -5.019  0.00  0.00    -0.273 OA
ENDBRANCH  16  17
BRANCH  12  21
ATOM     21  C   UNL     1      26.813  11.119  -3.223  0.00  0.00    +0.391 C 
ATOM     22  O   UNL     1      26.415   9.834  -3.291  0.00  0.00    -0.243 OA
ATOM     23  O   UNL     1      27.668  11.993  -2.677  0.00  0.00    -0.243 OA
ENDBRANCH  12  21
ENDBRANCH   8  10
ENDBRANCH   6   8
ENDBRANCH   5   6
ENDBRANCH   2   5
BRANCH   1  24
ATOM     24  O   UNL     1      29.647  16.120  -0.435  0.00  0.00    -0.450 OA
BRANCH  24  25
ATOM     25  C   UNL     1      30.951  15.934   0.064  0.00  0.00    +0.240 C 
BRANCH  25  26
ATOM     26  C   UNL     1      31.375  14.498   0.428  0.00  0.00    +0.100 C 
BRANCH  26  28
ATOM     27  N   UNL     1      30.147  13.832   2.480  0.00  0.00    -0.134 NA
ATOM     28  C   UNL     1      30.277  13.797   1.117  0.00  0.00    +0.086 A 
ATOM     29  C   UNL     1      29.256  13.044   0.587  0.00  0.00    +0.134 A 
ATOM     30  N   UNL     1      28.550  12.622   1.674  0.00  0.00    -0.248 N 
ATOM     31  N   UNL     1      29.074  13.124   2.811  0.00  0.00    -0.065 NA
BRANCH  30  32
ATOM     32  C   UNL     1      27.341  11.817   1.737  0.00  0.00    +0.113 C 
ATOM     33  C   UNL     1      26.648  11.818   3.108  0.00  0.00    +0.033 C 
BRANCH  32  34
ATOM     34  C   UNL     1      26.353  12.136   0.600  0.00  0.00    +0.106 C 
BRANCH  34  35
ATOM     35  C   UNL     1      25.321  11.050   0.355  0.00  0.00    +0.165 C 
ATOM     36  O   UNL     1      25.632   9.921  -0.017  0.00  0.00    -0.292 OA
BRANCH  35  37
ATOM     37  C   UNL     1      23.876  11.378   0.533  0.00  0.00    +0.017 A 
ATOM     38  C   UNL     1      23.174  11.074   1.706  0.00  0.00    +0.011 A 
ATOM     39  C   UNL     1      21.832  11.442   1.834  0.00  0.00    +0.001 A 
ATOM     40  C   UNL     1      21.184  12.105   0.793  0.00  0.00    +0.000 A 
ATOM     41  C   UNL     1      21.871  12.400  -0.381  0.00  0.00    +0.001 A 
ATOM     42  C   UNL     1      23.212  12.038  -0.513  0.00  0.00    +0.011 A 
ENDBRANCH  35  37
ENDBRANCH  34  35
ENDBRANCH  32  34
ENDBRANCH  30  32
ENDBRANCH  26  28
ENDBRANCH  25  26
ENDBRANCH  24  25
ENDBRANCH   1  24
TORSDOF 14
