REMARK VINA RESULT:    -6.821      2.437      3.795
REMARK INTER + INTRA:         -13.056
REMARK INTER:                 -11.643
REMARK INTRA:                  -1.414
REMARK UNBOUND:                -1.850
REMARK  Name = lig_assembled_2.pdb
REMARK  11 active torsions:
REMARK  status: ('A' for Active; 'I' for Inactive)
REMARK    1  A    between atoms: _2  and  _8
REMARK    2  A    between atoms: _5  and  _6
REMARK    3  A    between atoms: _5  and  _13
REMARK    4  A    between atoms: _13  and  _15
REMARK    5  A    between atoms: _14  and  _19
REMARK    6  A    between atoms: _15  and  _18
REMARK    7  A    between atoms: _23  and  _33
REMARK    8  A    between atoms: _25  and  _26
REMARK    9  A    between atoms: _27  and  _29
REMARK   10  A    between atoms: _29  and  _31
REMARK   11  A    between atoms: _31  and  _33
REMARK                            x       y       z     vdW  Elec       q    Type
REMARK                         _______ _______ _______ _____ _____    ______ ____
ROOT
ATOM      1  C   UNL     1      27.983  17.404  -0.672  0.00  0.00    +0.400 C 
ATOM      2  N   UNL     1      28.575  16.436   0.104  0.00  0.00    -0.278 N 
ATOM      3  H   UNL     1      28.669  16.907   1.059  0.00  0.00    +0.152 HD
ATOM      4  O   UNL     1      27.560  18.414  -0.115  0.00  0.00    -0.226 OA
ENDROOT
BRANCH   1   5
ATOM      5  O   UNL     1      27.955  17.165  -1.942  0.00  0.00    -0.450 OA
BRANCH   5   6
ATOM      6  C   UNL     1      27.054  17.233  -3.022  0.00  0.00    +0.240 C 
BRANCH   6   7
ATOM      7  C   UNL     1      26.742  15.924  -3.771  0.00  0.00    +0.100 C 
BRANCH   7   9
ATOM      8  N   UNL     1      25.506  14.424  -2.238  0.00  0.00    -0.134 NA
ATOM      9  C   UNL     1      25.492  15.328  -3.261  0.00  0.00    +0.086 A 
ATOM     10  C   UNL     1      24.191  15.540  -3.655  0.00  0.00    +0.139 A 
ATOM     11  N   UNL     1      23.433  14.757  -2.816  0.00  0.00    -0.220 N 
ATOM     12  N   UNL     1      24.254  14.077  -1.978  0.00  0.00    -0.061 NA
BRANCH  11  13
ATOM     13  C   UNL     1      22.020  14.641  -2.744  0.00  0.00    +0.067 A 
ATOM     14  C   UNL     1      21.402  14.040  -1.637  0.00  0.00    +0.029 A 
ATOM     15  C   UNL     1      20.009  13.902  -1.603  0.00  0.00    +0.022 A 
ATOM     16  C   UNL     1      19.236  14.362  -2.667  0.00  0.00    +0.041 A 
ATOM     17 CL   UNL     1      17.527  14.168  -2.625  0.00  0.00    -0.084 Cl
ATOM     18  C   UNL     1      19.840  14.973  -3.763  0.00  0.00    +0.022 A 
ATOM     19  C   UNL     1      21.229  15.115  -3.805  0.00  0.00    +0.029 A 
ENDBRANCH  11  13
ENDBRANCH   7   9
ENDBRANCH   6   7
ENDBRANCH   5   6
ENDBRANCH   1   5
BRANCH   2  20
ATOM     20  C   UNL     1      29.108  15.080   0.209  0.00  0.00    +0.152 C 
BRANCH  20  21
ATOM     21  C   UNL     1      30.644  14.956   0.273  0.00  0.00    +0.193 C 
ATOM     22  O   UNL     1      31.070  15.680   1.449  0.00  0.00    -0.219 OA
BRANCH  21  23
ATOM     23  C   UNL     1      31.241  13.543   0.454  0.00  0.00    +0.212 C 
ATOM     24  O   UNL     1      32.191  13.263  -0.587  0.00  0.00    -0.218 OA
BRANCH  23  25
ATOM     25  C   UNL     1      31.946  13.336   1.849  0.00  0.00    +0.171 C 
ATOM     26  O   UNL     1      33.274  12.839   1.723  0.00  0.00    -0.343 OA
ATOM     27  C   UNL     1      34.033  12.341   2.784  0.00  0.00    +0.220 C 
ATOM     28  C   UNL     1      33.256  11.289   3.596  0.00  0.00    +0.076 C 
ATOM     29  C   UNL     1      31.912  11.916   4.000  0.00  0.00    +0.177 C 
ATOM     30  O   UNL     1      31.169  10.997   4.789  0.00  0.00    -0.221 OA
ATOM     31  C   UNL     1      31.115  12.345   2.729  0.00  0.00    +0.155 C 
BRANCH  31  32
ATOM     32  N   UNL     1      29.834  12.936   3.108  0.00  0.00    -0.202 NA
ATOM     33  C   UNL     1      28.572  12.534   2.811  0.00  0.00    +0.242 C 
ATOM     34  C   UNL     1      27.428  13.151   3.572  0.00  0.00    +0.096 C 
ATOM     35  O   UNL     1      28.394  11.686   1.939  0.00  0.00    -0.273 OA
ENDBRANCH  31  32
BRANCH  27  36
ATOM     36  C   UNL     1      34.646  13.501   3.742  0.00  0.00    +0.391 C 
ATOM     37  O   UNL     1      34.792  12.916   4.947  0.00  0.00    -0.243 OA
ATOM     38  O   UNL     1      35.051  14.480   2.924  0.00  0.00    -0.243 OA
ENDBRANCH  27  36
ENDBRANCH  23  25
ENDBRANCH  21  23
ENDBRANCH  20  21
ENDBRANCH   2  20
TORSDOF 11
