REMARK VINA RESULT:    -7.092      1.506      3.755
REMARK INTER + INTRA:         -13.737
REMARK INTER:                 -11.988
REMARK INTRA:                  -1.749
REMARK UNBOUND:                -2.085
REMARK  Name = lig_assembled_51.pdb
REMARK  11 active torsions:
REMARK  status: ('A' for Active; 'I' for Inactive)
REMARK    1  A    between atoms: _2  and  _8
REMARK    2  A    between atoms: _5  and  _6
REMARK    3  A    between atoms: _5  and  _17
REMARK    4  A    between atoms: _17  and  _19
REMARK    5  A    between atoms: _18  and  _23
REMARK    6  A    between atoms: _19  and  _22
REMARK    7  A    between atoms: _27  and  _37
REMARK    8  A    between atoms: _29  and  _30
REMARK    9  A    between atoms: _31  and  _33
REMARK   10  A    between atoms: _33  and  _35
REMARK   11  A    between atoms: _35  and  _37
REMARK                            x       y       z     vdW  Elec       q    Type
REMARK                         _______ _______ _______ _____ _____    ______ ____
ROOT
ATOM      1  C   UNL     1      27.786  14.669  -1.596  0.00  0.00    +0.400 C 
ATOM      2  N   UNL     1      28.296  14.444  -0.339  0.00  0.00    -0.278 N 
ATOM      3  H   UNL     1      27.955  13.458  -0.107  0.00  0.00    +0.152 HD
ATOM      4  O   UNL     1      27.273  13.724  -2.191  0.00  0.00    -0.226 OA
ENDROOT
BRANCH   1   5
ATOM      5  O   UNL     1      27.870  15.886  -2.025  0.00  0.00    -0.450 OA
BRANCH   5   6
ATOM      6  C   UNL     1      27.025  16.960  -2.362  0.00  0.00    +0.240 C 
BRANCH   6   7
ATOM      7  C   UNL     1      26.346  16.924  -3.745  0.00  0.00    +0.100 C 
BRANCH   7   9
ATOM      8  N   UNL     1      25.038  15.133  -4.846  0.00  0.00    -0.134 NA
ATOM      9  C   UNL     1      25.257  15.930  -3.756  0.00  0.00    +0.086 A 
ATOM     10  C   UNL     1      24.332  15.625  -2.785  0.00  0.00    +0.134 A 
ATOM     11  N   UNL     1      23.568  14.637  -3.343  0.00  0.00    -0.245 N 
ATOM     12  N   UNL     1      24.004  14.347  -4.584  0.00  0.00    -0.065 NA
BRANCH  11  13
ATOM     13  C   UNL     1      22.420  13.947  -2.749  0.00  0.00    +0.066 C 
ATOM     14  C   UNL     1      22.042  12.707  -3.604  0.00  0.00    +0.034 C 
ATOM     15  C   UNL     1      20.868  11.942  -2.971  0.00  0.00    -0.008 C 
ATOM     16  C   UNL     1      21.263  11.487  -1.557  0.00  0.00    +0.007 C 
ATOM     17  C   UNL     1      21.597  12.707  -0.683  0.00  0.00    -0.008 C 
ATOM     18  C   UNL     1      20.371  13.629  -0.609  0.00  0.00    +0.007 C 
ATOM     19  C   UNL     1      19.977  14.094  -2.019  0.00  0.00    -0.008 C 
ATOM     20  C   UNL     1      19.645  12.868  -2.884  0.00  0.00    +0.007 C 
ATOM     21  C   UNL     1      22.772  13.474  -1.313  0.00  0.00    +0.034 C 
ATOM     22  C   UNL     1      21.157  14.855  -2.651  0.00  0.00    +0.034 C 
ENDBRANCH  11  13
ENDBRANCH   7   9
ENDBRANCH   6   7
ENDBRANCH   5   6
ENDBRANCH   1   5
BRANCH   2  23
ATOM     23  C   UNL     1      29.087  14.930   0.788  0.00  0.00    +0.152 C 
BRANCH  23  24
ATOM     24  C   UNL     1      30.618  14.810   0.645  0.00  0.00    +0.193 C 
ATOM     25  O   UNL     1      31.193  15.378   1.843  0.00  0.00    -0.219 OA
BRANCH  24  26
ATOM     26  C   UNL     1      31.220  13.390   0.565  0.00  0.00    +0.212 C 
ATOM     27  O   UNL     1      30.286  12.483  -0.043  0.00  0.00    -0.218 OA
BRANCH  26  28
ATOM     28  C   UNL     1      32.575  13.331  -0.238  0.00  0.00    +0.171 C 
ATOM     29  O   UNL     1      32.464  12.585  -1.446  0.00  0.00    -0.343 OA
ATOM     30  C   UNL     1      33.551  12.170  -2.219  0.00  0.00    +0.220 C 
ATOM     31  C   UNL     1      34.615  11.453  -1.370  0.00  0.00    +0.076 C 
ATOM     32  C   UNL     1      34.971  12.381  -0.196  0.00  0.00    +0.177 C 
ATOM     33  O   UNL     1      35.983  11.782   0.601  0.00  0.00    -0.221 OA
ATOM     34  C   UNL     1      33.697  12.695   0.647  0.00  0.00    +0.155 C 
BRANCH  34  35
ATOM     35  N   UNL     1      34.033  13.571   1.767  0.00  0.00    -0.202 NA
ATOM     36  C   UNL     1      33.807  13.406   3.095  0.00  0.00    +0.242 C 
ATOM     37  C   UNL     1      34.517  14.319   4.060  0.00  0.00    +0.096 C 
ATOM     38  O   UNL     1      33.040  12.524   3.476  0.00  0.00    -0.273 OA
ENDBRANCH  34  35
BRANCH  30  39
ATOM     39  C   UNL     1      34.202  13.361  -3.112  0.00  0.00    +0.391 C 
ATOM     40  O   UNL     1      35.330  12.833  -3.626  0.00  0.00    -0.243 OA
ATOM     41  O   UNL     1      33.247  14.289  -3.244  0.00  0.00    -0.243 OA
ENDBRANCH  30  39
ENDBRANCH  26  28
ENDBRANCH  24  26
ENDBRANCH  23  24
ENDBRANCH   2  23
TORSDOF 11
