REMARK VINA RESULT:    -7.173      1.801      3.876
REMARK INTER + INTRA:         -13.613
REMARK INTER:                 -11.761
REMARK INTRA:                  -1.851
REMARK UNBOUND:                -1.407
REMARK  Name = lig_assembled_82.pdb
REMARK  14 active torsions:
REMARK  status: ('A' for Active; 'I' for Inactive)
REMARK    1  A    between atoms: _2  and  _8
REMARK    2  A    between atoms: _4  and  _15
REMARK    3  A    between atoms: _5  and  _6
REMARK    4  A    between atoms: _5  and  _17
REMARK    5  A    between atoms: _8  and  _9
REMARK    6  A    between atoms: _15  and  _16
REMARK    7  A    between atoms: _17  and  _19
REMARK    8  A    between atoms: _18  and  _23
REMARK    9  A    between atoms: _19  and  _22
REMARK   10  A    between atoms: _27  and  _37
REMARK   11  A    between atoms: _29  and  _30
REMARK   12  A    between atoms: _31  and  _33
REMARK   13  A    between atoms: _33  and  _35
REMARK   14  A    between atoms: _35  and  _37
REMARK                            x       y       z     vdW  Elec       q    Type
REMARK                         _______ _______ _______ _____ _____    ______ ____
ROOT
ATOM      1  C   UNL     1      27.536  14.089  -2.013  0.00  0.00    +0.400 C 
ATOM      2  N   UNL     1      27.930  14.965  -1.028  0.00  0.00    -0.278 N 
ATOM      3  H   UNL     1      27.968  14.352  -0.153  0.00  0.00    +0.152 HD
ATOM      4  O   UNL     1      27.506  12.891  -1.744  0.00  0.00    -0.226 OA
ENDROOT
BRANCH   2   5
ATOM      5  C   UNL     1      28.324  16.320  -0.653  0.00  0.00    +0.152 C 
BRANCH   5   6
ATOM      6  C   UNL     1      29.824  16.538  -0.369  0.00  0.00    +0.193 C 
ATOM      7  O   UNL     1      29.941  17.818   0.291  0.00  0.00    -0.219 OA
BRANCH   6   8
ATOM      8  C   UNL     1      30.523  15.546   0.587  0.00  0.00    +0.212 C 
ATOM      9  O   UNL     1      29.551  14.736   1.268  0.00  0.00    -0.218 OA
BRANCH   8  10
ATOM     10  C   UNL     1      31.550  14.596  -0.140  0.00  0.00    +0.171 C 
ATOM     11  O   UNL     1      30.988  13.949  -1.276  0.00  0.00    -0.343 OA
ATOM     12  C   UNL     1      31.587  12.883  -1.953  0.00  0.00    +0.220 C 
ATOM     13  C   UNL     1      32.014  11.763  -0.988  0.00  0.00    +0.076 C 
ATOM     14  C   UNL     1      32.881  12.403   0.109  0.00  0.00    +0.177 C 
ATOM     15  O   UNL     1      33.337  11.402   1.008  0.00  0.00    -0.221 OA
ATOM     16  C   UNL     1      32.073  13.509   0.856  0.00  0.00    +0.155 C 
BRANCH  16  17
ATOM     17  N   UNL     1      32.891  14.115   1.903  0.00  0.00    -0.202 NA
ATOM     18  C   UNL     1      32.913  13.869   3.238  0.00  0.00    +0.242 C 
ATOM     19  C   UNL     1      34.057  14.421   4.048  0.00  0.00    +0.096 C 
ATOM     20  O   UNL     1      32.012  13.208   3.749  0.00  0.00    -0.273 OA
ENDBRANCH  16  17
BRANCH  12  21
ATOM     21  C   UNL     1      32.810  13.337  -2.920  0.00  0.00    +0.391 C 
ATOM     22  O   UNL     1      33.116  14.590  -2.529  0.00  0.00    -0.243 OA
ATOM     23  O   UNL     1      33.244  12.220  -3.517  0.00  0.00    -0.243 OA
ENDBRANCH  12  21
ENDBRANCH   8  10
ENDBRANCH   6   8
ENDBRANCH   5   6
ENDBRANCH   2   5
BRANCH   1  24
ATOM     24  O   UNL     1      27.200  14.628  -3.138  0.00  0.00    -0.450 OA
BRANCH  24  25
ATOM     25  C   UNL     1      26.436  14.323  -4.282  0.00  0.00    +0.240 C 
BRANCH  25  26
ATOM     26  C   UNL     1      25.172  15.166  -4.539  0.00  0.00    +0.100 C 
BRANCH  26  28
ATOM     27  N   UNL     1      23.985  15.243  -2.370  0.00  0.00    -0.134 NA
ATOM     28  C   UNL     1      24.080  14.755  -3.652  0.00  0.00    +0.086 A 
ATOM     29  C   UNL     1      23.031  13.880  -3.866  0.00  0.00    +0.134 A 
ATOM     30  N   UNL     1      22.421  13.785  -2.646  0.00  0.00    -0.247 N 
ATOM     31  N   UNL     1      22.944  14.672  -1.780  0.00  0.00    -0.065 NA
BRANCH  30  32
ATOM     32  C   UNL     1      21.408  12.822  -2.206  0.00  0.00    +0.176 C 
BRANCH  32  33
ATOM     33  C   UNL     1      21.784  12.135  -0.916  0.00  0.00    -0.049 C 
ATOM     34  C   UNL     1      22.649  10.918  -1.001  0.00  0.00    +0.023 C 
ATOM     35  C   UNL     1      23.732  10.676   0.144  0.00  0.00    -0.025 C 
ATOM     36  C   UNL     1      24.563  11.663   0.973  0.00  0.00    +0.012 C 
ATOM     37  C   UNL     1      22.435  10.247   0.976  0.00  0.00    -0.000 C 
ATOM     38  C   UNL     1      21.549  11.438   1.460  0.00  0.00    +0.031 C 
ATOM     39  C   UNL     1      24.750   9.705  -0.507  0.00  0.00    +0.012 C 
ATOM     40  C   UNL     1      21.884   9.690  -0.363  0.00  0.00    +0.012 C 
ATOM     41  C   UNL     1      21.280  12.391   0.307  0.00  0.00    -0.025 C 
ENDBRANCH  32  33
ENDBRANCH  30  32
ENDBRANCH  26  28
ENDBRANCH  25  26
ENDBRANCH  24  25
ENDBRANCH   1  24
TORSDOF 12
