REMARK VINA RESULT:    -7.872      2.641      5.102
REMARK INTER + INTRA:         -14.702
REMARK INTER:                 -11.534
REMARK INTRA:                  -3.169
REMARK UNBOUND:                -1.768
REMARK  Name = lig_assembled_91.pdb
REMARK  11 active torsions:
REMARK  status: ('A' for Active; 'I' for Inactive)
REMARK    1  A    between atoms: _2  and  _9
REMARK    2  A    between atoms: _6  and  _7
REMARK    3  A    between atoms: _6  and  _21
REMARK    4  A    between atoms: _21  and  _23
REMARK    5  A    between atoms: _22  and  _27
REMARK    6  A    between atoms: _23  and  _26
REMARK    7  A    between atoms: _31  and  _41
REMARK    8  A    between atoms: _33  and  _34
REMARK    9  A    between atoms: _35  and  _37
REMARK   10  A    between atoms: _37  and  _39
REMARK   11  A    between atoms: _39  and  _41
REMARK                            x       y       z     vdW  Elec       q    Type
REMARK                         _______ _______ _______ _____ _____    ______ ____
ROOT
ATOM      1  C   UNL     1      28.202  12.790   3.694  0.00  0.00    +0.400 C 
ATOM      2  N   UNL     1      29.545  12.830   3.985  0.00  0.00    -0.278 N 
ATOM      3  H   UNL     1      29.865  13.753   3.552  0.00  0.00    +0.152 HD
ATOM      4  O   UNL     1      27.681  13.799   3.224  0.00  0.00    -0.226 OA
ENDROOT
BRANCH   1   5
ATOM      5  O   UNL     1      27.613  11.662   3.919  0.00  0.00    -0.450 OA
BRANCH   5   6
ATOM      6  C   UNL     1      27.061  10.583   3.202  0.00  0.00    +0.240 C 
BRANCH   6   7
ATOM      7  C   UNL     1      27.644  10.284   1.807  0.00  0.00    +0.100 C 
BRANCH   7   9
ATOM      8  N   UNL     1      26.465  10.063  -0.351  0.00  0.00    -0.134 NA
ATOM      9  C   UNL     1      26.756  10.808   0.752  0.00  0.00    +0.086 A 
ATOM     10  C   UNL     1      26.090  12.009   0.666  0.00  0.00    +0.139 A 
ATOM     11  N   UNL     1      25.428  11.980  -0.545  0.00  0.00    -0.219 N 
ATOM     12  N   UNL     1      25.661  10.775  -1.126  0.00  0.00    -0.060 NA
BRANCH  11  13
ATOM     13  C   UNL     1      24.625  12.984  -1.169  0.00  0.00    +0.085 A 
ATOM     14  C   UNL     1      23.198  13.003  -0.962  0.00  0.00    +0.026 A 
ATOM     15  C   UNL     1      22.499  14.019  -1.642  0.00  0.00    +0.074 A 
ATOM     16  C   UNL     1      21.123  14.138  -1.521  0.00  0.00    +0.028 A 
ATOM     17  C   UNL     1      20.370  13.279  -0.727  0.00  0.00    +0.002 A 
ATOM     18  C   UNL     1      21.017  12.291  -0.014  0.00  0.00    +0.001 A 
ATOM     19  N   UNL     1      23.082  14.933  -2.414  0.00  0.00    -0.247 NA
ATOM     20  C   UNL     1      24.405  14.929  -2.581  0.00  0.00    +0.074 A 
ATOM     21  C   UNL     1      24.907  15.927  -3.409  0.00  0.00    +0.028 A 
ATOM     22  C   UNL     1      26.262  16.031  -3.709  0.00  0.00    +0.002 A 
ATOM     23  C   UNL     1      27.138  15.104  -3.177  0.00  0.00    +0.001 A 
ATOM     24  C   UNL     1      26.647  14.092  -2.347  0.00  0.00    +0.012 A 
ATOM     25  C   UNL     1      22.408  12.168  -0.110  0.00  0.00    +0.012 A 
ATOM     26  C   UNL     1      25.261  13.978  -2.001  0.00  0.00    +0.026 A 
ENDBRANCH  11  13
ENDBRANCH   7   9
ENDBRANCH   6   7
ENDBRANCH   5   6
ENDBRANCH   1   5
BRANCH   2  27
ATOM     27  C   UNL     1      30.700  12.199   4.618  0.00  0.00    +0.152 C 
BRANCH  27  28
ATOM     28  C   UNL     1      32.024  12.257   3.828  0.00  0.00    +0.193 C 
ATOM     29  O   UNL     1      32.931  11.334   4.469  0.00  0.00    -0.219 OA
BRANCH  28  30
ATOM     30  C   UNL     1      31.996  11.807   2.351  0.00  0.00    +0.212 C 
ATOM     31  O   UNL     1      30.915  10.888   2.127  0.00  0.00    -0.218 OA
BRANCH  30  32
ATOM     32  C   UNL     1      31.858  13.005   1.336  0.00  0.00    +0.171 C 
ATOM     33  O   UNL     1      30.651  13.739   1.515  0.00  0.00    -0.343 OA
ATOM     34  C   UNL     1      30.162  14.684   0.611  0.00  0.00    +0.220 C 
ATOM     35  C   UNL     1      30.118  14.132  -0.824  0.00  0.00    +0.076 C 
ATOM     36  C   UNL     1      31.518  13.586  -1.153  0.00  0.00    +0.177 C 
ATOM     37  O   UNL     1      31.544  13.099  -2.487  0.00  0.00    -0.221 OA
ATOM     38  C   UNL     1      31.913  12.473  -0.134  0.00  0.00    +0.155 C 
BRANCH  38  39
ATOM     39  N   UNL     1      33.239  11.946  -0.447  0.00  0.00    -0.202 NA
ATOM     40  C   UNL     1      33.600  10.723  -0.910  0.00  0.00    +0.242 C 
ATOM     41  C   UNL     1      35.003  10.539  -1.428  0.00  0.00    +0.096 C 
ATOM     42  O   UNL     1      32.784   9.804  -0.899  0.00  0.00    -0.273 OA
ENDBRANCH  38  39
BRANCH  34  43
ATOM     43  C   UNL     1      30.941  16.109   0.680  0.00  0.00    +0.391 C 
ATOM     44  O   UNL     1      30.609  16.741  -0.463  0.00  0.00    -0.243 OA
ATOM     45  O   UNL     1      31.359  16.241   1.944  0.00  0.00    -0.243 OA
ENDBRANCH  34  43
ENDBRANCH  30  32
ENDBRANCH  28  30
ENDBRANCH  27  28
ENDBRANCH   2  27
TORSDOF 11
