REMARK VINA RESULT:    -6.314      2.040      3.454
REMARK INTER + INTRA:         -16.609
REMARK INTER:                 -13.579
REMARK INTRA:                  -3.030
REMARK UNBOUND:                -2.358
REMARK  Name = lig_assembled_30.pdb
REMARK  22 active torsions:
REMARK  status: ('A' for Active; 'I' for Inactive)
REMARK    1  A    between atoms: _2  and  _8
REMARK    2  A    between atoms: _4  and  _17
REMARK    3  A    between atoms: _4  and  _18
REMARK    4  A    between atoms: _5  and  _6
REMARK    5  A    between atoms: _5  and  _20
REMARK    6  A    between atoms: _8  and  _9
REMARK    7  A    between atoms: _9  and  _10
REMARK    8  A    between atoms: _10  and  _11
REMARK    9  A    between atoms: _11  and  _12
REMARK   10  A    between atoms: _12  and  _13
REMARK   11  A    between atoms: _13  and  _14
REMARK   12  A    between atoms: _14  and  _15
REMARK   13  A    between atoms: _15  and  _16
REMARK   14  A    between atoms: _16  and  _17
REMARK   15  A    between atoms: _20  and  _22
REMARK   16  A    between atoms: _21  and  _26
REMARK   17  A    between atoms: _22  and  _25
REMARK   18  A    between atoms: _30  and  _40
REMARK   19  A    between atoms: _32  and  _33
REMARK   20  A    between atoms: _34  and  _36
REMARK   21  A    between atoms: _36  and  _38
REMARK   22  A    between atoms: _38  and  _40
REMARK                            x       y       z     vdW  Elec       q    Type
REMARK                         _______ _______ _______ _____ _____    ______ ____
ROOT
ATOM      1  C   UNL     1      27.254  14.302  -1.516  0.00  0.00    +0.400 C 
ATOM      2  N   UNL     1      27.830  14.252  -0.268  0.00  0.00    -0.278 N 
ATOM      3  H   UNL     1      27.324  13.438   0.205  0.00  0.00    +0.152 HD
ATOM      4  O   UNL     1      26.508  13.384  -1.847  0.00  0.00    -0.226 OA
ENDROOT
BRANCH   1   5
ATOM      5  O   UNL     1      27.536  15.348  -2.221  0.00  0.00    -0.450 OA
BRANCH   5   6
ATOM      6  C   UNL     1      27.274  16.732  -2.232  0.00  0.00    +0.240 C 
BRANCH   6   7
ATOM      7  C   UNL     1      26.522  17.304  -3.448  0.00  0.00    +0.100 C 
BRANCH   7   9
ATOM      8  N   UNL     1      26.125  15.689  -5.283  0.00  0.00    -0.134 NA
ATOM      9  C   UNL     1      25.723  16.249  -4.098  0.00  0.00    +0.086 A 
ATOM     10  C   UNL     1      24.538  15.668  -3.704  0.00  0.00    +0.133 A 
ATOM     11  N   UNL     1      24.275  14.766  -4.690  0.00  0.00    -0.251 N 
ATOM     12  N   UNL     1      25.225  14.782  -5.638  0.00  0.00    -0.065 NA
BRANCH  11  13
ATOM     13  C   UNL     1      23.125  13.897  -4.816  0.00  0.00    +0.145 C 
BRANCH  13  14
ATOM     14  C   UNL     1      22.180  14.057  -3.631  0.00  0.00    +0.023 C 
BRANCH  14  15
ATOM     15  C   UNL     1      20.900  13.242  -3.807  0.00  0.00    +0.002 C 
BRANCH  15  16
ATOM     16  C   UNL     1      20.434  12.695  -2.457  0.00  0.00    +0.000 C 
BRANCH  16  17
ATOM     17  C   UNL     1      20.320  13.797  -1.408  0.00  0.00    +0.000 C 
BRANCH  17  18
ATOM     18  C   UNL     1      20.565  13.237  -0.005  0.00  0.00    +0.000 C 
BRANCH  18  19
ATOM     19  C   UNL     1      21.603  12.119  -0.038  0.00  0.00    +0.000 C 
BRANCH  19  20
ATOM     20  C   UNL     1      21.803  11.496   1.344  0.00  0.00    +0.001 C 
BRANCH  20  21
ATOM     21  C   UNL     1      23.161  10.799   1.423  0.00  0.00    +0.011 C 
BRANCH  21  22
ATOM     22  C   UNL     1      24.217  11.515   0.586  0.00  0.00    +0.120 C 
BRANCH  22  23
ATOM     23  C   UNL     1      25.519  11.656   1.343  0.00  0.00    +0.305 C 
ATOM     24  O   UNL     1      25.625  11.813   2.549  0.00  0.00    -0.251 OA
BRANCH  23  25
ATOM     25  O   UNL     1      26.597  11.589   0.528  0.00  0.00    -0.481 OA
ATOM     26  H   UNL     1      26.373  11.418  -0.406  0.00  0.00    +0.295 HD
ENDBRANCH  23  25
ENDBRANCH  22  23
ENDBRANCH  21  22
ENDBRANCH  20  21
ENDBRANCH  19  20
ENDBRANCH  18  19
ENDBRANCH  17  18
ENDBRANCH  16  17
ENDBRANCH  15  16
ENDBRANCH  14  15
ENDBRANCH  13  14
ENDBRANCH  11  13
ENDBRANCH   7   9
ENDBRANCH   6   7
ENDBRANCH   5   6
ENDBRANCH   1   5
BRANCH   2  27
ATOM     27  C   UNL     1      28.809  14.790   0.673  0.00  0.00    +0.152 C 
BRANCH  27  28
ATOM     28  C   UNL     1      30.288  14.684   0.249  0.00  0.00    +0.193 C 
ATOM     29  O   UNL     1      30.634  15.943  -0.370  0.00  0.00    -0.219 OA
BRANCH  28  30
ATOM     30  C   UNL     1      31.340  14.501   1.365  0.00  0.00    +0.212 C 
ATOM     31  O   UNL     1      31.299  15.608   2.281  0.00  0.00    -0.218 OA
BRANCH  30  32
ATOM     32  C   UNL     1      31.159  13.165   2.182  0.00  0.00    +0.171 C 
ATOM     33  O   UNL     1      29.808  12.940   2.570  0.00  0.00    -0.343 OA
ATOM     34  C   UNL     1      29.404  11.975   3.496  0.00  0.00    +0.220 C 
ATOM     35  C   UNL     1      30.216  12.061   4.800  0.00  0.00    +0.076 C 
ATOM     36  C   UNL     1      31.705  12.013   4.422  0.00  0.00    +0.177 C 
ATOM     37  O   UNL     1      32.502  12.049   5.598  0.00  0.00    -0.221 OA
ATOM     38  C   UNL     1      32.055  13.193   3.463  0.00  0.00    +0.155 C 
BRANCH  38  39
ATOM     39  N   UNL     1      33.471  13.154   3.107  0.00  0.00    -0.202 NA
ATOM     40  C   UNL     1      34.483  13.978   3.480  0.00  0.00    +0.242 C 
ATOM     41  C   UNL     1      35.899  13.542   3.208  0.00  0.00    +0.096 C 
ATOM     42  O   UNL     1      34.224  15.049   4.026  0.00  0.00    -0.273 OA
ENDBRANCH  38  39
BRANCH  34  43
ATOM     43  C   UNL     1      29.397  10.465   2.896  0.00  0.00    +0.391 C 
ATOM     44  O   UNL     1      29.386   9.662   3.977  0.00  0.00    -0.243 OA
ATOM     45  O   UNL     1      29.104  10.586   1.595  0.00  0.00    -0.243 OA
ENDBRANCH  34  43
ENDBRANCH  30  32
ENDBRANCH  28  30
ENDBRANCH  27  28
ENDBRANCH   2  27
TORSDOF 22
