REMARK VINA RESULT:    -6.615      1.810      3.390
REMARK INTER + INTRA:         -13.400
REMARK INTER:                 -12.212
REMARK INTRA:                  -1.188
REMARK UNBOUND:                -2.144
REMARK  Name = lig_assembled_63.pdb
REMARK  12 active torsions:
REMARK  status: ('A' for Active; 'I' for Inactive)
REMARK    1  A    between atoms: _2  and  _10
REMARK    2  A    between atoms: _6  and  _14
REMARK    3  A    between atoms: _7  and  _8
REMARK    4  A    between atoms: _7  and  _15
REMARK    5  A    between atoms: _15  and  _17
REMARK    6  A    between atoms: _16  and  _21
REMARK    7  A    between atoms: _17  and  _20
REMARK    8  A    between atoms: _25  and  _35
REMARK    9  A    between atoms: _27  and  _28
REMARK   10  A    between atoms: _29  and  _31
REMARK   11  A    between atoms: _31  and  _33
REMARK   12  A    between atoms: _33  and  _35
REMARK                            x       y       z     vdW  Elec       q    Type
REMARK                         _______ _______ _______ _____ _____    ______ ____
ROOT
ATOM      1  C   UNL     1      28.447  17.131  -0.629  0.00  0.00    +0.400 C 
ATOM      2  N   UNL     1      29.173  16.082  -0.117  0.00  0.00    -0.278 N 
ATOM      3  H   UNL     1      29.487  16.442   0.839  0.00  0.00    +0.152 HD
ATOM      4  O   UNL     1      28.183  18.071   0.116  0.00  0.00    -0.226 OA
ENDROOT
BRANCH   2   5
ATOM      5  C   UNL     1      29.683  14.723  -0.283  0.00  0.00    +0.152 C 
BRANCH   5   6
ATOM      6  C   UNL     1      31.207  14.545  -0.124  0.00  0.00    +0.193 C 
ATOM      7  O   UNL     1      31.826  15.688  -0.754  0.00  0.00    -0.219 OA
BRANCH   6   8
ATOM      8  C   UNL     1      31.781  14.537   1.310  0.00  0.00    +0.212 C 
ATOM      9  O   UNL     1      31.264  15.645   2.063  0.00  0.00    -0.218 OA
BRANCH   8  10
ATOM     10  C   UNL     1      31.475  13.206   2.097  0.00  0.00    +0.171 C 
ATOM     11  O   UNL     1      30.105  13.091   2.467  0.00  0.00    -0.343 OA
ATOM     12  C   UNL     1      29.609  12.146   3.369  0.00  0.00    +0.220 C 
ATOM     13  C   UNL     1      30.410  12.137   4.683  0.00  0.00    +0.076 C 
ATOM     14  C   UNL     1      31.894  11.966   4.318  0.00  0.00    +0.177 C 
ATOM     15  O   UNL     1      32.677  11.911   5.502  0.00  0.00    -0.221 OA
ATOM     16  C   UNL     1      32.356  13.130   3.387  0.00  0.00    +0.155 C 
BRANCH  16  17
ATOM     17  N   UNL     1      33.767  12.976   3.044  0.00  0.00    -0.202 NA
ATOM     18  C   UNL     1      34.824  13.776   3.336  0.00  0.00    +0.242 C 
ATOM     19  C   UNL     1      36.213  13.236   3.118  0.00  0.00    +0.096 C 
ATOM     20  O   UNL     1      34.626  14.910   3.768  0.00  0.00    -0.273 OA
ENDBRANCH  16  17
BRANCH  12  21
ATOM     21  C   UNL     1      29.478  10.655   2.738  0.00  0.00    +0.391 C 
ATOM     22  O   UNL     1      29.319   9.841   3.800  0.00  0.00    -0.243 OA
ATOM     23  O   UNL     1      29.277  10.825   1.426  0.00  0.00    -0.243 OA
ENDBRANCH  12  21
ENDBRANCH   8  10
ENDBRANCH   6   8
ENDBRANCH   5   6
ENDBRANCH   2   5
BRANCH   1  24
ATOM     24  O   UNL     1      28.134  17.037  -1.880  0.00  0.00    -0.450 OA
BRANCH  24  25
ATOM     25  C   UNL     1      27.166  17.527  -2.778  0.00  0.00    +0.240 C 
BRANCH  25  26
ATOM     26  C   UNL     1      26.671  16.572  -3.881  0.00  0.00    +0.100 C 
BRANCH  26  28
ATOM     27  N   UNL     1      25.999  14.300  -3.179  0.00  0.00    -0.134 NA
ATOM     28  C   UNL     1      25.687  15.620  -3.333  0.00  0.00    +0.087 A 
ATOM     29  C   UNL     1      24.391  15.822  -2.922  0.00  0.00    +0.141 A 
ATOM     30  N   UNL     1      23.933  14.572  -2.556  0.00  0.00    -0.201 N 
ATOM     31  N   UNL     1      24.931  13.675  -2.701  0.00  0.00    -0.059 NA
BRANCH  30  32
ATOM     32  C   UNL     1      22.606  14.242  -2.148  0.00  0.00    +0.173 A 
ATOM     33  C   UNL     1      22.341  13.255  -1.195  0.00  0.00    +0.096 A 
ATOM     34  C   UNL     1      20.996  12.943  -0.939  0.00  0.00    +0.024 A 
ATOM     35  C   UNL     1      19.974  13.620  -1.598  0.00  0.00    +0.021 A 
ATOM     36  C   UNL     1      20.324  14.608  -2.496  0.00  0.00    +0.113 A 
ATOM     37  N   UNL     1      21.603  14.928  -2.785  0.00  0.00    -0.235 NA
BRANCH  33  38
ATOM     38  C   UNL     1      23.326  12.541  -0.438  0.00  0.00    +0.103 C 
ATOM     39  N   UNL     1      24.112  11.882   0.108  0.00  0.00    -0.191 NA
ENDBRANCH  33  38
ENDBRANCH  30  32
ENDBRANCH  26  28
ENDBRANCH  25  26
ENDBRANCH  24  25
ENDBRANCH   1  24
TORSDOF 12
