REMARK VINA RESULT:    -6.477      2.775      8.229
REMARK INTER + INTRA:         -12.398
REMARK INTER:                 -10.228
REMARK INTRA:                  -2.170
REMARK UNBOUND:                -1.188
REMARK  Name = lig_assembled_35.pdb
REMARK  14 active torsions:
REMARK  status: ('A' for Active; 'I' for Inactive)
REMARK    1  A    between atoms: _2  and  _8
REMARK    2  A    between atoms: _4  and  _8
REMARK    3  A    between atoms: _4  and  _10
REMARK    4  A    between atoms: _5  and  _6
REMARK    5  A    between atoms: _5  and  _12
REMARK    6  A    between atoms: _8  and  _9
REMARK    7  A    between atoms: _12  and  _14
REMARK    8  A    between atoms: _13  and  _18
REMARK    9  A    between atoms: _14  and  _17
REMARK   10  A    between atoms: _22  and  _32
REMARK   11  A    between atoms: _24  and  _25
REMARK   12  A    between atoms: _26  and  _28
REMARK   13  A    between atoms: _28  and  _30
REMARK   14  A    between atoms: _30  and  _32
REMARK                            x       y       z     vdW  Elec       q    Type
REMARK                         _______ _______ _______ _____ _____    ______ ____
ROOT
ATOM      1  C   UNL     1      27.825  13.943  -0.947  0.00  0.00    +0.152 C 
ENDROOT
BRANCH   1   3
ATOM      2  C   UNL     1      28.720  16.497  -0.600  0.00  0.00    +0.400 C 
ATOM      3  N   UNL     1      27.925  15.381  -0.715  0.00  0.00    -0.278 N 
ATOM      4  H   UNL     1      26.937  15.767  -0.579  0.00  0.00    +0.152 HD
ATOM      5  O   UNL     1      28.174  17.597  -0.566  0.00  0.00    -0.226 OA
BRANCH   2   6
ATOM      6  O   UNL     1      29.989  16.273  -0.507  0.00  0.00    -0.450 OA
BRANCH   6   7
ATOM      7  C   UNL     1      30.960  16.021   0.483  0.00  0.00    +0.240 C 
BRANCH   7   8
ATOM      8  C   UNL     1      31.718  14.682   0.411  0.00  0.00    +0.100 C 
BRANCH   8  10
ATOM      9  N   UNL     1      30.983  12.320   0.343  0.00  0.00    -0.134 NA
ATOM     10  C   UNL     1      30.853  13.579   0.868  0.00  0.00    +0.086 A 
ATOM     11  C   UNL     1      29.844  13.572   1.806  0.00  0.00    +0.134 A 
ATOM     12  N   UNL     1      29.411  12.279   1.816  0.00  0.00    -0.238 N 
ATOM     13  N   UNL     1      30.083  11.536   0.919  0.00  0.00    -0.065 NA
BRANCH  12  14
ATOM     14  C   UNL     1      28.360  11.660   2.601  0.00  0.00    +0.214 C 
ATOM     15  C   UNL     1      28.763  10.255   3.040  0.00  0.00    +0.045 C 
BRANCH  14  16
ATOM     16  C   UNL     1      27.956  12.531   3.772  0.00  0.00    +0.329 C 
ATOM     17  O   UNL     1      27.240  13.519   3.684  0.00  0.00    -0.249 OA
BRANCH  16  18
ATOM     18  O   UNL     1      28.481  12.147   4.962  0.00  0.00    -0.479 OA
ATOM     19  H   UNL     1      28.736  11.204   5.030  0.00  0.00    +0.295 HD
ENDBRANCH  16  18
ENDBRANCH  14  16
ENDBRANCH  12  14
ENDBRANCH   8  10
ENDBRANCH   7   8
ENDBRANCH   6   7
ENDBRANCH   2   6
ENDBRANCH   1   3
BRANCH   1  20
ATOM     20  C   UNL     1      27.994  13.477  -2.408  0.00  0.00    +0.193 C 
ATOM     21  O   UNL     1      28.936  12.382  -2.389  0.00  0.00    -0.219 OA
BRANCH  20  22
ATOM     22  C   UNL     1      26.751  12.905  -3.124  0.00  0.00    +0.212 C 
ATOM     23  O   UNL     1      26.855  11.477  -3.245  0.00  0.00    -0.218 OA
BRANCH  22  24
ATOM     24  C   UNL     1      25.396  13.252  -2.397  0.00  0.00    +0.171 C 
ATOM     25  O   UNL     1      24.495  12.150  -2.364  0.00  0.00    -0.343 OA
ATOM     26  C   UNL     1      23.148  12.245  -2.004  0.00  0.00    +0.220 C 
ATOM     27  C   UNL     1      22.429  13.364  -2.776  0.00  0.00    +0.076 C 
ATOM     28  C   UNL     1      23.242  14.655  -2.584  0.00  0.00    +0.177 C 
ATOM     29  O   UNL     1      22.597  15.734  -3.246  0.00  0.00    -0.221 OA
ATOM     30  C   UNL     1      24.698  14.456  -3.109  0.00  0.00    +0.155 C 
BRANCH  30  31
ATOM     31  N   UNL     1      25.472  15.683  -2.935  0.00  0.00    -0.202 NA
ATOM     32  C   UNL     1      26.122  16.437  -3.857  0.00  0.00    +0.242 C 
ATOM     33  C   UNL     1      26.593  17.810  -3.454  0.00  0.00    +0.096 C 
ATOM     34  O   UNL     1      26.309  15.989  -4.986  0.00  0.00    -0.273 OA
ENDBRANCH  30  31
BRANCH  26  35
ATOM     35  C   UNL     1      22.914  12.378  -0.402  0.00  0.00    +0.391 C 
ATOM     36  O   UNL     1      21.598  12.629  -0.263  0.00  0.00    -0.243 OA
ATOM     37  O   UNL     1      24.024  11.900   0.175  0.00  0.00    -0.243 OA
ENDBRANCH  26  35
ENDBRANCH  22  24
ENDBRANCH  20  22
ENDBRANCH   1  20
TORSDOF 13
