REMARK VINA RESULT:    -6.920      3.445      8.991
REMARK INTER + INTRA:         -13.635
REMARK INTER:                 -11.832
REMARK INTRA:                  -1.804
REMARK UNBOUND:                -1.658
REMARK  Name = lig_assembled_60.pdb
REMARK  13 active torsions:
REMARK  status: ('A' for Active; 'I' for Inactive)
REMARK    1  A    between atoms: _2  and  _9
REMARK    2  A    between atoms: _3  and  _44
REMARK    3  A    between atoms: _6  and  _7
REMARK    4  A    between atoms: _6  and  _16
REMARK    5  A    between atoms: _12  and  _44
REMARK    6  A    between atoms: _16  and  _18
REMARK    7  A    between atoms: _17  and  _22
REMARK    8  A    between atoms: _18  and  _21
REMARK    9  A    between atoms: _26  and  _36
REMARK   10  A    between atoms: _28  and  _29
REMARK   11  A    between atoms: _30  and  _32
REMARK   12  A    between atoms: _32  and  _34
REMARK   13  A    between atoms: _34  and  _36
REMARK                            x       y       z     vdW  Elec       q    Type
REMARK                         _______ _______ _______ _____ _____    ______ ____
ROOT
ATOM      1  C   UNL     1      28.499  17.162  -0.619  0.00  0.00    +0.400 C 
ATOM      2  N   UNL     1      27.613  16.288  -1.202  0.00  0.00    -0.278 N 
ATOM      3  H   UNL     1      26.659  16.670  -0.908  0.00  0.00    +0.152 HD
ATOM      4  O   UNL     1      28.052  18.187  -0.109  0.00  0.00    -0.226 OA
ENDROOT
BRANCH   2   5
ATOM      5  C   UNL     1      27.395  15.107  -2.034  0.00  0.00    +0.152 C 
BRANCH   5   6
ATOM      6  C   UNL     1      27.833  13.758  -1.427  0.00  0.00    +0.193 C 
ATOM      7  O   UNL     1      27.861  13.937   0.006  0.00  0.00    -0.219 OA
BRANCH   6   8
ATOM      8  C   UNL     1      26.906  12.542  -1.646  0.00  0.00    +0.212 C 
ATOM      9  O   UNL     1      27.680  11.337  -1.765  0.00  0.00    -0.218 OA
BRANCH   8  10
ATOM     10  C   UNL     1      25.847  12.349  -0.495  0.00  0.00    +0.171 C 
ATOM     11  O   UNL     1      26.010  11.116   0.199  0.00  0.00    -0.343 OA
ATOM     12  C   UNL     1      25.075  10.583   1.090  0.00  0.00    +0.220 C 
ATOM     13  C   UNL     1      23.663  10.548   0.481  0.00  0.00    +0.076 C 
ATOM     14  C   UNL     1      23.341  11.964  -0.024  0.00  0.00    +0.177 C 
ATOM     15  O   UNL     1      22.027  11.997  -0.562  0.00  0.00    -0.221 OA
ATOM     16  C   UNL     1      24.398  12.411  -1.082  0.00  0.00    +0.155 C 
BRANCH  16  17
ATOM     17  N   UNL     1      24.093  13.754  -1.569  0.00  0.00    -0.202 NA
ATOM     18  C   UNL     1      23.792  14.173  -2.824  0.00  0.00    +0.242 C 
ATOM     19  C   UNL     1      23.229  15.560  -2.999  0.00  0.00    +0.096 C 
ATOM     20  O   UNL     1      23.981  13.422  -3.778  0.00  0.00    -0.273 OA
ENDBRANCH  16  17
BRANCH  12  21
ATOM     21  C   UNL     1      25.081  11.308   2.544  0.00  0.00    +0.391 C 
ATOM     22  O   UNL     1      24.133  10.667   3.255  0.00  0.00    -0.243 OA
ATOM     23  O   UNL     1      26.200  12.041   2.588  0.00  0.00    -0.243 OA
ENDBRANCH  12  21
ENDBRANCH   8  10
ENDBRANCH   6   8
ENDBRANCH   5   6
ENDBRANCH   2   5
BRANCH   1  24
ATOM     24  O   UNL     1      29.739  16.799  -0.638  0.00  0.00    -0.450 OA
BRANCH  24  25
ATOM     25  C   UNL     1      30.752  16.410   0.260  0.00  0.00    +0.240 C 
BRANCH  25  26
ATOM     26  C   UNL     1      31.537  15.125  -0.066  0.00  0.00    +0.100 C 
BRANCH  26  28
ATOM     27  N   UNL     1      30.869  12.979   0.974  0.00  0.00    -0.134 NA
ATOM     28  C   UNL     1      31.488  14.191   1.075  0.00  0.00    +0.086 A 
ATOM     29  C   UNL     1      32.010  14.326   2.339  0.00  0.00    +0.139 A 
ATOM     30  N   UNL     1      31.716  13.140   2.973  0.00  0.00    -0.220 N 
ATOM     31  N   UNL     1      31.003  12.350   2.134  0.00  0.00    -0.061 NA
BRANCH  30  32
ATOM     32  C   UNL     1      32.094  12.713   4.273  0.00  0.00    +0.067 A 
ATOM     33  C   UNL     1      31.143  12.176   5.154  0.00  0.00    +0.030 A 
ATOM     34  C   UNL     1      31.513  11.824   6.454  0.00  0.00    +0.030 A 
ATOM     35  C   UNL     1      32.835  11.995   6.870  0.00  0.00    +0.105 A 
ATOM     36  C   UNL     1      33.796  12.513   5.996  0.00  0.00    +0.030 A 
ATOM     37  C   UNL     1      33.425  12.865   4.695  0.00  0.00    +0.030 A 
BRANCH  35  38
ATOM     38  S   UNL     1      33.273  11.619   8.542  0.00  0.00    +0.056 S 
ATOM     39  O   UNL     1      33.217  12.824   9.333  0.00  0.00    -0.153 OA
ATOM     40  O   UNL     1      32.610  10.397   8.940  0.00  0.00    -0.153 OA
BRANCH  38  41
ATOM     41  N   UNL     1      34.899  11.235   8.391  0.00  0.00    -0.204 NA
ATOM     42  H   UNL     1      35.461  12.083   8.451  0.00  0.00    +0.144 HD
ATOM     43  H   UNL     1      35.048  10.702   7.533  0.00  0.00    +0.144 HD
ENDBRANCH  38  41
ENDBRANCH  35  38
ENDBRANCH  30  32
ENDBRANCH  26  28
ENDBRANCH  25  26
ENDBRANCH  24  25
ENDBRANCH   1  24
TORSDOF 13
