REMARK VINA RESULT:    -7.903      2.535      4.683
REMARK INTER + INTRA:         -14.753
REMARK INTER:                 -11.779
REMARK INTRA:                  -2.974
REMARK UNBOUND:                -1.768
REMARK  Name = lig_assembled_91.pdb
REMARK  11 active torsions:
REMARK  status: ('A' for Active; 'I' for Inactive)
REMARK    1  A    between atoms: _2  and  _9
REMARK    2  A    between atoms: _6  and  _7
REMARK    3  A    between atoms: _6  and  _21
REMARK    4  A    between atoms: _21  and  _23
REMARK    5  A    between atoms: _22  and  _27
REMARK    6  A    between atoms: _23  and  _26
REMARK    7  A    between atoms: _31  and  _41
REMARK    8  A    between atoms: _33  and  _34
REMARK    9  A    between atoms: _35  and  _37
REMARK   10  A    between atoms: _37  and  _39
REMARK   11  A    between atoms: _39  and  _41
REMARK                            x       y       z     vdW  Elec       q    Type
REMARK                         _______ _______ _______ _____ _____    ______ ____
ROOT
ATOM      1  C   UNL     1      27.943  12.619   3.739  0.00  0.00    +0.400 C 
ATOM      2  N   UNL     1      29.276  12.889   3.943  0.00  0.00    -0.278 N 
ATOM      3  H   UNL     1      29.338  13.946   3.799  0.00  0.00    +0.152 HD
ATOM      4  O   UNL     1      27.168  13.567   3.639  0.00  0.00    -0.226 OA
ENDROOT
BRANCH   1   5
ATOM      5  O   UNL     1      27.635  11.367   3.638  0.00  0.00    -0.450 OA
BRANCH   5   6
ATOM      6  C   UNL     1      27.371  10.409   2.640  0.00  0.00    +0.240 C 
BRANCH   6   7
ATOM      7  C   UNL     1      28.024  10.621   1.261  0.00  0.00    +0.100 C 
BRANCH   7   9
ATOM      8  N   UNL     1      26.712  10.364  -0.814  0.00  0.00    -0.134 NA
ATOM      9  C   UNL     1      27.029  11.103   0.285  0.00  0.00    +0.086 A 
ATOM     10  C   UNL     1      26.275  12.255   0.279  0.00  0.00    +0.139 A 
ATOM     11  N   UNL     1      25.532  12.205  -0.883  0.00  0.00    -0.219 N 
ATOM     12  N   UNL     1      25.807  11.033  -1.512  0.00  0.00    -0.060 NA
BRANCH  11  13
ATOM     13  C   UNL     1      24.617  13.163  -1.422  0.00  0.00    +0.085 A 
ATOM     14  C   UNL     1      23.218  13.099  -1.082  0.00  0.00    +0.026 A 
ATOM     15  C   UNL     1      22.401  14.074  -1.686  0.00  0.00    +0.074 A 
ATOM     16  C   UNL     1      21.038  14.113  -1.437  0.00  0.00    +0.028 A 
ATOM     17  C   UNL     1      20.413  13.209  -0.583  0.00  0.00    +0.002 A 
ATOM     18  C   UNL     1      21.180  12.258   0.059  0.00  0.00    +0.001 A 
ATOM     19  N   UNL     1      22.856  15.023  -2.502  0.00  0.00    -0.247 NA
ATOM     20  C   UNL     1      24.155  15.095  -2.791  0.00  0.00    +0.074 A 
ATOM     21  C   UNL     1      24.520  16.123  -3.654  0.00  0.00    +0.028 A 
ATOM     22  C   UNL     1      25.833  16.306  -4.078  0.00  0.00    +0.002 A 
ATOM     23  C   UNL     1      26.806  15.430  -3.638  0.00  0.00    +0.001 A 
ATOM     24  C   UNL     1      26.454  14.389  -2.774  0.00  0.00    +0.012 A 
ATOM     25  C   UNL     1      22.560  12.217  -0.167  0.00  0.00    +0.012 A 
ATOM     26  C   UNL     1      25.115  14.194  -2.302  0.00  0.00    +0.026 A 
ENDBRANCH  11  13
ENDBRANCH   7   9
ENDBRANCH   6   7
ENDBRANCH   5   6
ENDBRANCH   1   5
BRANCH   2  27
ATOM     27  C   UNL     1      30.609  12.394   4.274  0.00  0.00    +0.152 C 
BRANCH  27  28
ATOM     28  C   UNL     1      31.525  12.056   3.079  0.00  0.00    +0.193 C 
ATOM     29  O   UNL     1      31.231  10.692   2.703  0.00  0.00    -0.219 OA
BRANCH  28  30
ATOM     30  C   UNL     1      31.330  12.865   1.778  0.00  0.00    +0.212 C 
ATOM     31  O   UNL     1      31.092  14.249   2.078  0.00  0.00    -0.218 OA
BRANCH  30  32
ATOM     32  C   UNL     1      32.556  12.766   0.791  0.00  0.00    +0.171 C 
ATOM     33  O   UNL     1      33.730  13.378   1.315  0.00  0.00    -0.343 OA
ATOM     34  C   UNL     1      34.878  13.649   0.567  0.00  0.00    +0.220 C 
ATOM     35  C   UNL     1      34.546  14.401  -0.734  0.00  0.00    +0.076 C 
ATOM     36  C   UNL     1      33.467  13.593  -1.474  0.00  0.00    +0.177 C 
ATOM     37  O   UNL     1      33.152  14.226  -2.706  0.00  0.00    -0.221 OA
ATOM     38  C   UNL     1      32.201  13.439  -0.575  0.00  0.00    +0.155 C 
BRANCH  38  39
ATOM     39  N   UNL     1      31.171  12.678  -1.277  0.00  0.00    -0.202 NA
ATOM     40  C   UNL     1      29.922  13.051  -1.655  0.00  0.00    +0.242 C 
ATOM     41  C   UNL     1      29.175  12.172  -2.624  0.00  0.00    +0.096 C 
ATOM     42  O   UNL     1      29.435  14.087  -1.206  0.00  0.00    -0.273 OA
ENDBRANCH  38  39
BRANCH  34  43
ATOM     43  C   UNL     1      35.789  12.335   0.281  0.00  0.00    +0.391 C 
ATOM     44  O   UNL     1      36.632  12.704  -0.703  0.00  0.00    -0.243 OA
ATOM     45  O   UNL     1      35.573  11.504   1.308  0.00  0.00    -0.243 OA
ENDBRANCH  34  43
ENDBRANCH  30  32
ENDBRANCH  28  30
ENDBRANCH  27  28
ENDBRANCH   2  27
TORSDOF 11
