REMARK VINA RESULT:    -6.379      3.122      9.448
REMARK INTER + INTRA:         -13.998
REMARK INTER:                 -11.587
REMARK INTRA:                  -2.411
REMARK UNBOUND:                -2.025
REMARK  Name = lig_assembled_10.pdb
REMARK  16 active torsions:
REMARK  status: ('A' for Active; 'I' for Inactive)
REMARK    1  A    between atoms: _2  and  _8
REMARK    2  A    between atoms: _4  and  _8
REMARK    3  A    between atoms: _4  and  _11
REMARK    4  A    between atoms: _5  and  _6
REMARK    5  A    between atoms: _5  and  _15
REMARK    6  A    between atoms: _8  and  _9
REMARK    7  A    between atoms: _9  and  _10
REMARK    8  A    between atoms: _10  and  _13
REMARK    9  A    between atoms: _15  and  _17
REMARK   10  A    between atoms: _16  and  _21
REMARK   11  A    between atoms: _17  and  _20
REMARK   12  A    between atoms: _25  and  _35
REMARK   13  A    between atoms: _27  and  _28
REMARK   14  A    between atoms: _29  and  _31
REMARK   15  A    between atoms: _31  and  _33
REMARK   16  A    between atoms: _33  and  _35
REMARK                            x       y       z     vdW  Elec       q    Type
REMARK                         _______ _______ _______ _____ _____    ______ ____
ROOT
ATOM      1  C   UNL     1      25.946  15.704  -4.864  0.00  0.00    +0.400 C 
ATOM      2  N   UNL     1      24.693  15.149  -4.978  0.00  0.00    -0.278 N 
ATOM      3  H   UNL     1      24.699  14.725  -5.959  0.00  0.00    +0.152 HD
ATOM      4  O   UNL     1      26.773  15.452  -5.737  0.00  0.00    -0.226 OA
ENDROOT
BRANCH   2   5
ATOM      5  C   UNL     1      23.394  14.873  -4.370  0.00  0.00    +0.152 C 
BRANCH   5   6
ATOM      6  C   UNL     1      23.177  13.435  -3.854  0.00  0.00    +0.193 C 
ATOM      7  O   UNL     1      23.479  12.550  -4.955  0.00  0.00    -0.219 OA
BRANCH   6   8
ATOM      8  C   UNL     1      24.083  12.943  -2.704  0.00  0.00    +0.212 C 
ATOM      9  O   UNL     1      24.158  13.934  -1.666  0.00  0.00    -0.218 OA
BRANCH   8  10
ATOM     10  C   UNL     1      23.603  11.583  -2.069  0.00  0.00    +0.171 C 
ATOM     11  O   UNL     1      22.195  11.541  -1.863  0.00  0.00    -0.343 OA
ATOM     12  C   UNL     1      21.538  10.571  -1.103  0.00  0.00    +0.220 C 
ATOM     13  C   UNL     1      22.180  10.403   0.285  0.00  0.00    +0.076 C 
ATOM     14  C   UNL     1      23.682  10.151   0.073  0.00  0.00    +0.177 C 
ATOM     15  O   UNL     1      24.318   9.949   1.327  0.00  0.00    -0.221 OA
ATOM     16  C   UNL     1      24.322  11.345  -0.701  0.00  0.00    +0.155 C 
BRANCH  16  17
ATOM     17  N   UNL     1      25.751  11.113  -0.898  0.00  0.00    -0.202 NA
ATOM     18  C   UNL     1      26.816  11.683  -0.279  0.00  0.00    +0.242 C 
ATOM     19  C   UNL     1      28.172  11.052  -0.462  0.00  0.00    +0.096 C 
ATOM     20  O   UNL     1      26.652  12.688   0.410  0.00  0.00    -0.273 OA
ENDBRANCH  16  17
BRANCH  12  21
ATOM     21  C   UNL     1      21.385   9.145  -1.866  0.00  0.00    +0.391 C 
ATOM     22  O   UNL     1      21.290   8.231  -0.881  0.00  0.00    -0.243 OA
ATOM     23  O   UNL     1      21.110   9.437  -3.144  0.00  0.00    -0.243 OA
ENDBRANCH  12  21
ENDBRANCH   8  10
ENDBRANCH   6   8
ENDBRANCH   5   6
ENDBRANCH   2   5
BRANCH   1  24
ATOM     24  O   UNL     1      26.125  16.477  -3.844  0.00  0.00    -0.450 OA
BRANCH  24  25
ATOM     25  C   UNL     1      27.127  17.294  -3.285  0.00  0.00    +0.240 C 
BRANCH  25  26
ATOM     26  C   UNL     1      27.055  17.574  -1.772  0.00  0.00    +0.100 C 
BRANCH  26  28
ATOM     27  N   UNL     1      29.277  17.938  -0.740  0.00  0.00    -0.134 NA
ATOM     28  C   UNL     1      28.275  17.082  -1.104  0.00  0.00    +0.086 A 
ATOM     29  C   UNL     1      28.622  15.801  -0.739  0.00  0.00    +0.134 A 
ATOM     30  N   UNL     1      29.825  15.945  -0.118  0.00  0.00    -0.237 N 
ATOM     31  N   UNL     1      30.226  17.233  -0.144  0.00  0.00    -0.065 NA
BRANCH  30  32
ATOM     32  C   UNL     1      30.686  14.970   0.531  0.00  0.00    +0.227 C 
BRANCH  32  33
ATOM     33  C   UNL     1      31.994  14.711  -0.184  0.00  0.00    +0.330 C 
ATOM     34  O   UNL     1      32.540  13.614  -0.153  0.00  0.00    -0.249 OA
BRANCH  33  35
ATOM     35  O   UNL     1      32.521  15.725  -0.902  0.00  0.00    -0.479 OA
ATOM     36  H   UNL     1      32.821  15.509  -1.823  0.00  0.00    +0.295 HD
ENDBRANCH  33  35
ENDBRANCH  32  33
BRANCH  32  37
ATOM     37  C   UNL     1      29.975  13.670   0.934  0.00  0.00    +0.158 C 
BRANCH  37  38
ATOM     38  C   UNL     1      29.497  13.705   2.358  0.00  0.00    +0.307 C 
ATOM     39  O   UNL     1      30.170  13.332   3.310  0.00  0.00    -0.251 OA
BRANCH  38  40
ATOM     40  O   UNL     1      28.281  14.264   2.507  0.00  0.00    -0.481 OA
ATOM     41  H   UNL     1      28.277  15.149   2.924  0.00  0.00    +0.295 HD
ENDBRANCH  38  40
ENDBRANCH  37  38
ENDBRANCH  32  37
ENDBRANCH  30  32
ENDBRANCH  26  28
ENDBRANCH  25  26
ENDBRANCH  24  25
ENDBRANCH   1  24
TORSDOF 16
