REMARK VINA RESULT:    -7.417      2.071      2.933
REMARK INTER + INTRA:         -14.028
REMARK INTER:                 -12.405
REMARK INTRA:                  -1.623
REMARK UNBOUND:                -1.407
REMARK  Name = lig_assembled_82.pdb
REMARK  14 active torsions:
REMARK  status: ('A' for Active; 'I' for Inactive)
REMARK    1  A    between atoms: _2  and  _8
REMARK    2  A    between atoms: _4  and  _15
REMARK    3  A    between atoms: _5  and  _6
REMARK    4  A    between atoms: _5  and  _17
REMARK    5  A    between atoms: _8  and  _9
REMARK    6  A    between atoms: _15  and  _16
REMARK    7  A    between atoms: _17  and  _19
REMARK    8  A    between atoms: _18  and  _23
REMARK    9  A    between atoms: _19  and  _22
REMARK   10  A    between atoms: _27  and  _37
REMARK   11  A    between atoms: _29  and  _30
REMARK   12  A    between atoms: _31  and  _33
REMARK   13  A    between atoms: _33  and  _35
REMARK   14  A    between atoms: _35  and  _37
REMARK                            x       y       z     vdW  Elec       q    Type
REMARK                         _______ _______ _______ _____ _____    ______ ____
ROOT
ATOM      1  C   UNL     1      28.281  17.718  -0.509  0.00  0.00    +0.400 C 
ATOM      2  N   UNL     1      29.481  17.615   0.156  0.00  0.00    -0.278 N 
ATOM      3  H   UNL     1      29.404  18.359   0.920  0.00  0.00    +0.152 HD
ATOM      4  O   UNL     1      27.405  18.425  -0.018  0.00  0.00    -0.226 OA
ENDROOT
BRANCH   2   5
ATOM      5  C   UNL     1      30.775  16.952   0.293  0.00  0.00    +0.152 C 
BRANCH   5   6
ATOM      6  C   UNL     1      30.770  15.416   0.151  0.00  0.00    +0.193 C 
ATOM      7  O   UNL     1      31.635  15.099  -0.961  0.00  0.00    -0.219 OA
BRANCH   6   8
ATOM      8  C   UNL     1      31.334  14.588   1.327  0.00  0.00    +0.212 C 
ATOM      9  O   UNL     1      31.586  15.434   2.461  0.00  0.00    -0.218 OA
BRANCH   8  10
ATOM     10  C   UNL     1      30.383  13.414   1.776  0.00  0.00    +0.171 C 
ATOM     11  O   UNL     1      30.096  13.444   3.170  0.00  0.00    -0.343 OA
ATOM     12  C   UNL     1      29.489  12.400   3.873  0.00  0.00    +0.220 C 
ATOM     13  C   UNL     1      30.183  11.053   3.607  0.00  0.00    +0.076 C 
ATOM     14  C   UNL     1      30.246  10.858   2.083  0.00  0.00    +0.177 C 
ATOM     15  O   UNL     1      30.845   9.605   1.782  0.00  0.00    -0.221 OA
ATOM     16  C   UNL     1      31.029  12.034   1.422  0.00  0.00    +0.155 C 
BRANCH  16  17
ATOM     17  N   UNL     1      31.096  11.849  -0.026  0.00  0.00    -0.202 NA
ATOM     18  C   UNL     1      32.179  11.751  -0.839  0.00  0.00    +0.242 C 
ATOM     19  C   UNL     1      31.972  11.267  -2.250  0.00  0.00    +0.096 C 
ATOM     20  O   UNL     1      33.290  12.054  -0.409  0.00  0.00    -0.273 OA
ENDBRANCH  16  17
BRANCH  12  21
ATOM     21  C   UNL     1      27.885  12.303   3.629  0.00  0.00    +0.391 C 
ATOM     22  O   UNL     1      27.568  11.025   3.912  0.00  0.00    -0.243 OA
ATOM     23  O   UNL     1      27.448  13.565   3.539  0.00  0.00    -0.243 OA
ENDBRANCH  12  21
ENDBRANCH   8  10
ENDBRANCH   6   8
ENDBRANCH   5   6
ENDBRANCH   2   5
BRANCH   1  24
ATOM     24  O   UNL     1      28.203  17.071  -1.625  0.00  0.00    -0.450 OA
BRANCH  24  25
ATOM     25  C   UNL     1      27.431  16.053  -2.218  0.00  0.00    +0.240 C 
BRANCH  25  26
ATOM     26  C   UNL     1      26.536  16.443  -3.410  0.00  0.00    +0.100 C 
BRANCH  26  28
ATOM     27  N   UNL     1      24.755  15.144  -4.533  0.00  0.00    -0.134 NA
ATOM     28  C   UNL     1      25.276  15.695  -3.386  0.00  0.00    +0.086 A 
ATOM     29  C   UNL     1      24.419  15.414  -2.337  0.00  0.00    +0.134 A 
ATOM     30  N   UNL     1      23.347  14.812  -2.934  0.00  0.00    -0.247 N 
ATOM     31  N   UNL     1      23.596  14.574  -4.235  0.00  0.00    -0.065 NA
BRANCH  30  32
ATOM     32  C   UNL     1      22.030  14.519  -2.361  0.00  0.00    +0.176 C 
BRANCH  32  33
ATOM     33  C   UNL     1      21.908  13.092  -1.888  0.00  0.00    -0.049 C 
ATOM     34  C   UNL     1      23.064  12.503  -1.144  0.00  0.00    +0.023 C 
ATOM     35  C   UNL     1      22.760  11.488   0.049  0.00  0.00    -0.025 C 
ATOM     36  C   UNL     1      21.603  11.428   1.054  0.00  0.00    +0.012 C 
ATOM     37  C   UNL     1      22.458  10.494  -1.168  0.00  0.00    -0.000 C 
ATOM     38  C   UNL     1      21.094  10.741  -1.886  0.00  0.00    +0.031 C 
ATOM     39  C   UNL     1      24.058  11.512   0.896  0.00  0.00    +0.012 C 
ATOM     40  C   UNL     1      23.594  11.234  -1.923  0.00  0.00    +0.012 C 
ATOM     41  C   UNL     1      20.937  12.217  -2.216  0.00  0.00    -0.025 C 
ENDBRANCH  32  33
ENDBRANCH  30  32
ENDBRANCH  26  28
ENDBRANCH  25  26
ENDBRANCH  24  25
ENDBRANCH   1  24
TORSDOF 12
