REMARK VINA RESULT:    -6.812      3.434      4.084
REMARK INTER + INTRA:         -13.448
REMARK INTER:                 -12.122
REMARK INTRA:                  -1.327
REMARK UNBOUND:                -1.658
REMARK  Name = lig_assembled_60.pdb
REMARK  13 active torsions:
REMARK  status: ('A' for Active; 'I' for Inactive)
REMARK    1  A    between atoms: _2  and  _9
REMARK    2  A    between atoms: _3  and  _44
REMARK    3  A    between atoms: _6  and  _7
REMARK    4  A    between atoms: _6  and  _16
REMARK    5  A    between atoms: _12  and  _44
REMARK    6  A    between atoms: _16  and  _18
REMARK    7  A    between atoms: _17  and  _22
REMARK    8  A    between atoms: _18  and  _21
REMARK    9  A    between atoms: _26  and  _36
REMARK   10  A    between atoms: _28  and  _29
REMARK   11  A    between atoms: _30  and  _32
REMARK   12  A    between atoms: _32  and  _34
REMARK   13  A    between atoms: _34  and  _36
REMARK                            x       y       z     vdW  Elec       q    Type
REMARK                         _______ _______ _______ _____ _____    ______ ____
ROOT
ATOM      1  C   UNL     1      28.225  16.906  -0.611  0.00  0.00    +0.400 C 
ATOM      2  N   UNL     1      28.736  16.006   0.294  0.00  0.00    -0.278 N 
ATOM      3  H   UNL     1      29.089  16.627   1.088  0.00  0.00    +0.152 HD
ATOM      4  O   UNL     1      28.121  18.080  -0.265  0.00  0.00    -0.226 OA
ENDROOT
BRANCH   2   5
ATOM      5  C   UNL     1      28.992  14.614   0.655  0.00  0.00    +0.152 C 
BRANCH   5   6
ATOM      6  C   UNL     1      30.396  14.072   0.317  0.00  0.00    +0.193 C 
ATOM      7  O   UNL     1      30.531  14.135  -1.120  0.00  0.00    -0.219 OA
BRANCH   6   8
ATOM      8  C   UNL     1      31.614  14.856   0.853  0.00  0.00    +0.212 C 
ATOM      9  O   UNL     1      31.182  16.007   1.597  0.00  0.00    -0.218 OA
BRANCH   8  10
ATOM     10  C   UNL     1      32.561  13.991   1.770  0.00  0.00    +0.171 C 
ATOM     11  O   UNL     1      32.901  14.651   2.984  0.00  0.00    -0.343 OA
ATOM     12  C   UNL     1      33.904  14.226   3.858  0.00  0.00    +0.220 C 
ATOM     13  C   UNL     1      35.231  13.971   3.122  0.00  0.00    +0.076 C 
ATOM     14  C   UNL     1      34.938  13.011   1.957  0.00  0.00    +0.177 C 
ATOM     15  O   UNL     1      36.142  12.710   1.266  0.00  0.00    -0.221 OA
ATOM     16  C   UNL     1      33.875  13.636   1.001  0.00  0.00    +0.155 C 
BRANCH  16  17
ATOM     17  N   UNL     1      33.599  12.730  -0.111  0.00  0.00    -0.202 NA
ATOM     18  C   UNL     1      33.853  12.879  -1.436  0.00  0.00    +0.242 C 
ATOM     19  C   UNL     1      33.735  11.671  -2.328  0.00  0.00    +0.096 C 
ATOM     20  O   UNL     1      34.171  13.983  -1.873  0.00  0.00    -0.273 OA
ENDBRANCH  16  17
BRANCH  12  21
ATOM     21  C   UNL     1      33.472  12.951   4.768  0.00  0.00    +0.391 C 
ATOM     22  O   UNL     1      32.153  12.795   4.544  0.00  0.00    -0.243 OA
ATOM     23  O   UNL     1      34.614  12.365   5.149  0.00  0.00    -0.243 OA
ENDBRANCH  12  21
ENDBRANCH   8  10
ENDBRANCH   6   8
ENDBRANCH   5   6
ENDBRANCH   2   5
BRANCH   1  24
ATOM     24  O   UNL     1      27.927  16.423  -1.773  0.00  0.00    -0.450 OA
BRANCH  24  25
ATOM     25  C   UNL     1      27.107  15.427  -2.337  0.00  0.00    +0.240 C 
BRANCH  25  26
ATOM     26  C   UNL     1      26.052  15.873  -3.368  0.00  0.00    +0.100 C 
BRANCH  26  28
ATOM     27  N   UNL     1      24.557  14.515  -1.936  0.00  0.00    -0.134 NA
ATOM     28  C   UNL     1      24.719  15.368  -2.989  0.00  0.00    +0.086 A 
ATOM     29  C   UNL     1      23.491  15.632  -3.548  0.00  0.00    +0.139 A 
ATOM     30  N   UNL     1      22.591  14.939  -2.770  0.00  0.00    -0.220 N 
ATOM     31  N   UNL     1      23.263  14.251  -1.815  0.00  0.00    -0.061 NA
BRANCH  30  32
ATOM     32  C   UNL     1      21.174  14.927  -2.854  0.00  0.00    +0.067 A 
ATOM     33  C   UNL     1      20.425  13.977  -2.142  0.00  0.00    +0.030 A 
ATOM     34  C   UNL     1      19.037  13.929  -2.287  0.00  0.00    +0.030 A 
ATOM     35  C   UNL     1      18.395  14.838  -3.131  0.00  0.00    +0.105 A 
ATOM     36  C   UNL     1      19.129  15.799  -3.833  0.00  0.00    +0.030 A 
ATOM     37  C   UNL     1      20.518  15.847  -3.688  0.00  0.00    +0.030 A 
BRANCH  35  38
ATOM     38  S   UNL     1      16.646  14.717  -3.366  0.00  0.00    +0.056 S 
ATOM     39  O   UNL     1      16.013  14.431  -2.102  0.00  0.00    -0.153 OA
ATOM     40  O   UNL     1      16.211  15.792  -4.229  0.00  0.00    -0.153 OA
BRANCH  38  41
ATOM     41  N   UNL     1      16.521  13.313  -4.277  0.00  0.00    -0.204 NA
ATOM     42  H   UNL     1      15.803  13.427  -4.991  0.00  0.00    +0.144 HD
ATOM     43  H   UNL     1      16.365  12.515  -3.659  0.00  0.00    +0.144 HD
ENDBRANCH  38  41
ENDBRANCH  35  38
ENDBRANCH  30  32
ENDBRANCH  26  28
ENDBRANCH  25  26
ENDBRANCH  24  25
ENDBRANCH   1  24
TORSDOF 13
