REMARK VINA RESULT:    -6.582      2.263      3.953
REMARK INTER + INTRA:         -12.948
REMARK INTER:                 -11.311
REMARK INTRA:                  -1.637
REMARK UNBOUND:                -2.133
REMARK  Name = lig_assembled_7.pdb
REMARK  14 active torsions:
REMARK  status: ('A' for Active; 'I' for Inactive)
REMARK    1  A    between atoms: _2  and  _8
REMARK    2  A    between atoms: _4  and  _15
REMARK    3  A    between atoms: _5  and  _6
REMARK    4  A    between atoms: _5  and  _16
REMARK    5  A    between atoms: _9  and  _10
REMARK    6  A    between atoms: _12  and  _13
REMARK    7  A    between atoms: _16  and  _18
REMARK    8  A    between atoms: _17  and  _22
REMARK    9  A    between atoms: _18  and  _21
REMARK   10  A    between atoms: _26  and  _36
REMARK   11  A    between atoms: _28  and  _29
REMARK   12  A    between atoms: _30  and  _32
REMARK   13  A    between atoms: _32  and  _34
REMARK   14  A    between atoms: _34  and  _36
REMARK                            x       y       z     vdW  Elec       q    Type
REMARK                         _______ _______ _______ _____ _____    ______ ____
ROOT
ATOM      1  C   UNL     1      27.100  16.333  -2.376  0.00  0.00    +0.400 C 
ATOM      2  N   UNL     1      27.347  15.251  -1.564  0.00  0.00    -0.278 N 
ATOM      3  H   UNL     1      28.129  15.597  -0.923  0.00  0.00    +0.152 HD
ATOM      4  O   UNL     1      27.632  17.403  -2.093  0.00  0.00    -0.226 OA
ENDROOT
BRANCH   1   5
ATOM      5  O   UNL     1      26.339  16.105  -3.396  0.00  0.00    -0.450 OA
BRANCH   5   6
ATOM      6  C   UNL     1      24.968  16.059  -3.717  0.00  0.00    +0.240 C 
BRANCH   6   7
ATOM      7  C   UNL     1      24.477  14.875  -4.571  0.00  0.00    +0.100 C 
BRANCH   7   9
ATOM      8  N   UNL     1      23.060  12.887  -4.233  0.00  0.00    -0.134 NA
ATOM      9  C   UNL     1      23.882  13.836  -3.711  0.00  0.00    +0.086 A 
ATOM     10  C   UNL     1      24.014  13.614  -2.353  0.00  0.00    +0.139 A 
ATOM     11  N   UNL     1      23.204  12.531  -2.081  0.00  0.00    -0.219 N 
ATOM     12  N   UNL     1      22.679  12.088  -3.250  0.00  0.00    -0.061 NA
BRANCH  11  13
ATOM     13  C   UNL     1      22.913  11.901  -0.827  0.00  0.00    +0.073 A 
ATOM     14  C   UNL     1      23.793  10.893  -0.331  0.00  0.00    -0.024 A 
ATOM     15  C   UNL     1      23.514  10.267   0.905  0.00  0.00    +0.008 A 
ATOM     16  C   UNL     1      22.402  10.618   1.664  0.00  0.00    -0.050 A 
ATOM     17  C   UNL     1      22.137   9.935   2.973  0.00  0.00    +0.044 C 
ATOM     18  C   UNL     1      21.548  11.604   1.177  0.00  0.00    +0.008 A 
ATOM     19  C   UNL     1      25.070  10.454  -1.014  0.00  0.00    +0.046 C 
ATOM     20  C   UNL     1      21.766  12.243  -0.066  0.00  0.00    -0.024 A 
ATOM     21  C   UNL     1      20.658  13.187  -0.464  0.00  0.00    +0.046 C 
ENDBRANCH  11  13
ENDBRANCH   7   9
ENDBRANCH   6   7
ENDBRANCH   5   6
ENDBRANCH   1   5
BRANCH   2  22
ATOM     22  C   UNL     1      27.019  13.879  -1.185  0.00  0.00    +0.152 C 
BRANCH  22  23
ATOM     23  C   UNL     1      27.760  12.766  -1.955  0.00  0.00    +0.193 C 
ATOM     24  O   UNL     1      27.882  13.217  -3.322  0.00  0.00    -0.219 OA
BRANCH  23  25
ATOM     25  C   UNL     1      29.207  12.441  -1.525  0.00  0.00    +0.212 C 
ATOM     26  O   UNL     1      30.092  12.502  -2.656  0.00  0.00    -0.218 OA
BRANCH  25  27
ATOM     27  C   UNL     1      29.756  13.401  -0.402  0.00  0.00    +0.171 C 
ATOM     28  O   UNL     1      30.916  14.117  -0.813  0.00  0.00    -0.343 OA
ATOM     29  C   UNL     1      31.741  14.843   0.050  0.00  0.00    +0.220 C 
ATOM     30  C   UNL     1      32.163  14.008   1.272  0.00  0.00    +0.076 C 
ATOM     31  C   UNL     1      30.882  13.452   1.916  0.00  0.00    +0.177 C 
ATOM     32  O   UNL     1      31.213  12.703   3.077  0.00  0.00    -0.221 OA
ATOM     33  C   UNL     1      30.096  12.582   0.886  0.00  0.00    +0.155 C 
BRANCH  33  34
ATOM     34  N   UNL     1      28.882  12.046   1.496  0.00  0.00    -0.202 NA
ATOM     35  C   UNL     1      27.846  12.697   2.083  0.00  0.00    +0.242 C 
ATOM     36  C   UNL     1      26.584  11.924   2.367  0.00  0.00    +0.096 C 
ATOM     37  O   UNL     1      27.958  13.888   2.366  0.00  0.00    -0.273 OA
ENDBRANCH  33  34
BRANCH  29  38
ATOM     38  C   UNL     1      31.115  16.275   0.492  0.00  0.00    +0.391 C 
ATOM     39  O   UNL     1      30.415  16.694  -0.580  0.00  0.00    -0.243 OA
ATOM     40  O   UNL     1      31.272  16.353   1.819  0.00  0.00    -0.243 OA
ENDBRANCH  29  38
ENDBRANCH  25  27
ENDBRANCH  23  25
ENDBRANCH  22  23
ENDBRANCH   2  22
TORSDOF 11
