REMARK VINA RESULT:    -7.617      2.208      3.813
REMARK INTER + INTRA:         -15.604
REMARK INTER:                 -12.784
REMARK INTRA:                  -2.820
REMARK UNBOUND:                -1.975
REMARK  Name = lig_assembled_77.pdb
REMARK  14 active torsions:
REMARK  status: ('A' for Active; 'I' for Inactive)
REMARK    1  A    between atoms: _2  and  _9
REMARK    2  A    between atoms: _3  and  _16
REMARK    3  A    between atoms: _6  and  _7
REMARK    4  A    between atoms: _6  and  _22
REMARK    5  A    between atoms: _12  and  _50
REMARK    6  A    between atoms: _13  and  _50
REMARK    7  A    between atoms: _22  and  _24
REMARK    8  A    between atoms: _23  and  _28
REMARK    9  A    between atoms: _24  and  _27
REMARK   10  A    between atoms: _32  and  _42
REMARK   11  A    between atoms: _34  and  _35
REMARK   12  A    between atoms: _36  and  _38
REMARK   13  A    between atoms: _38  and  _40
REMARK   14  A    between atoms: _40  and  _42
REMARK                            x       y       z     vdW  Elec       q    Type
REMARK                         _______ _______ _______ _____ _____    ______ ____
ROOT
ATOM      1  C   UNL     1      27.123  17.322  -3.448  0.00  0.00    +0.240 C 
ENDROOT
BRANCH   1   2
ATOM      2  C   UNL     1      27.203  17.946  -2.042  0.00  0.00    +0.100 C 
BRANCH   2   4
ATOM      3  N   UNL     1      29.385  17.830  -0.884  0.00  0.00    -0.134 NA
ATOM      4  C   UNL     1      28.202  17.238  -1.219  0.00  0.00    +0.086 A 
ATOM      5  C   UNL     1      28.161  15.975  -0.674  0.00  0.00    +0.139 A 
ATOM      6  N   UNL     1      29.351  15.841   0.004  0.00  0.00    -0.220 N 
ATOM      7  N   UNL     1      30.081  16.973  -0.149  0.00  0.00    -0.061 NA
BRANCH   6   8
ATOM      8  C   UNL     1      29.799  14.764   0.814  0.00  0.00    +0.067 A 
ATOM      9  C   UNL     1      31.015  14.844   1.511  0.00  0.00    +0.030 A 
ATOM     10  C   UNL     1      31.499  13.731   2.205  0.00  0.00    +0.029 A 
ATOM     11  C   UNL     1      30.766  12.542   2.204  0.00  0.00    +0.094 A 
ATOM     12  C   UNL     1      29.512  12.480   1.591  0.00  0.00    +0.029 A 
ATOM     13  C   UNL     1      29.035  13.587   0.885  0.00  0.00    +0.030 A 
BRANCH  11  14
ATOM     14  S   UNL     1      31.418  11.104   3.030  0.00  0.00    +0.025 S 
ATOM     15  O   UNL     1      30.287  10.219   3.253  0.00  0.00    -0.164 OA
ATOM     16  O   UNL     1      32.570  10.655   2.272  0.00  0.00    -0.164 OA
BRANCH  14  17
ATOM     17  C   UNL     1      32.027  11.586   4.632  0.00  0.00    +0.094 A 
ATOM     18  C   UNL     1      31.155  11.779   5.705  0.00  0.00    +0.029 A 
ATOM     19  C   UNL     1      31.661  12.218   6.933  0.00  0.00    +0.024 A 
ATOM     20  C   UNL     1      33.034  12.424   7.118  0.00  0.00    +0.025 A 
ATOM     21  C   UNL     1      33.888  12.256   6.024  0.00  0.00    +0.024 A 
ATOM     22  C   UNL     1      33.396  11.818   4.791  0.00  0.00    +0.029 A 
BRANCH  20  23
ATOM     23  N   UNL     1      33.505  13.023   8.289  0.00  0.00    -0.358 N 
ATOM     24  H   UNL     1      34.509  12.964   8.424  0.00  0.00    +0.142 HD
ATOM     25  H   UNL     1      33.145  13.957   8.456  0.00  0.00    +0.142 HD
ENDBRANCH  20  23
ENDBRANCH  14  17
ENDBRANCH  11  14
ENDBRANCH   6   8
ENDBRANCH   2   4
ENDBRANCH   1   2
BRANCH   1  26
ATOM     26  O   UNL     1      25.887  16.780  -3.849  0.00  0.00    -0.450 OA
BRANCH  26  27
ATOM     27  C   UNL     1      25.427  15.760  -4.498  0.00  0.00    +0.400 C 
ATOM     28  N   UNL     1      24.126  15.414  -4.219  0.00  0.00    -0.278 N 
ATOM     29  H   UNL     1      23.891  14.702  -4.980  0.00  0.00    +0.152 HD
ATOM     30  O   UNL     1      26.032  15.108  -5.345  0.00  0.00    -0.226 OA
BRANCH  28  31
ATOM     31  C   UNL     1      22.955  15.567  -3.360  0.00  0.00    +0.152 C 
BRANCH  31  32
ATOM     32  C   UNL     1      22.784  14.513  -2.248  0.00  0.00    +0.193 C 
ATOM     33  O   UNL     1      21.396  14.551  -1.849  0.00  0.00    -0.219 OA
BRANCH  32  34
ATOM     34  C   UNL     1      23.039  13.035  -2.618  0.00  0.00    +0.212 C 
ATOM     35  O   UNL     1      22.998  12.861  -4.044  0.00  0.00    -0.218 OA
BRANCH  34  36
ATOM     36  C   UNL     1      24.415  12.485  -2.082  0.00  0.00    +0.171 C 
ATOM     37  O   UNL     1      25.307  12.126  -3.132  0.00  0.00    -0.343 OA
ATOM     38  C   UNL     1      26.483  11.394  -2.951  0.00  0.00    +0.220 C 
ATOM     39  C   UNL     1      26.237  10.110  -2.139  0.00  0.00    +0.076 C 
ATOM     40  C   UNL     1      25.520  10.514  -0.841  0.00  0.00    +0.177 C 
ATOM     41  O   UNL     1      25.303   9.366  -0.033  0.00  0.00    -0.221 OA
ATOM     42  C   UNL     1      24.177  11.237  -1.171  0.00  0.00    +0.155 C 
BRANCH  42  43
ATOM     43  N   UNL     1      23.489  11.616   0.060  0.00  0.00    -0.202 NA
ATOM     44  C   UNL     1      22.217  11.360   0.458  0.00  0.00    +0.242 C 
ATOM     45  C   UNL     1      21.853  11.611   1.898  0.00  0.00    +0.096 C 
ATOM     46  O   UNL     1      21.400  10.933  -0.356  0.00  0.00    -0.273 OA
ENDBRANCH  42  43
BRANCH  38  47
ATOM     47  C   UNL     1      27.701  12.270  -2.328  0.00  0.00    +0.391 C 
ATOM     48  O   UNL     1      28.607  11.362  -1.916  0.00  0.00    -0.243 OA
ATOM     49  O   UNL     1      27.490  13.531  -2.724  0.00  0.00    -0.243 OA
ENDBRANCH  38  47
ENDBRANCH  34  36
ENDBRANCH  32  34
ENDBRANCH  31  32
ENDBRANCH  28  31
ENDBRANCH  26  27
ENDBRANCH   1  26
TORSDOF 14
