REMARK VINA RESULT:    -6.419      2.346      4.042
REMARK INTER + INTRA:         -15.567
REMARK INTER:                 -13.582
REMARK INTRA:                  -1.985
REMARK UNBOUND:                -2.957
REMARK  Name = lig_assembled_74.pdb
REMARK  19 active torsions:
REMARK  status: ('A' for Active; 'I' for Inactive)
REMARK    1  A    between atoms: _2  and  _8
REMARK    2  A    between atoms: _4  and  _13
REMARK    3  A    between atoms: _5  and  _6
REMARK    4  A    between atoms: _5  and  _17
REMARK    5  A    between atoms: _8  and  _9
REMARK    6  A    between atoms: _9  and  _10
REMARK    7  A    between atoms: _9  and  _12
REMARK    8  A    between atoms: _10  and  _11
REMARK    9  A    between atoms: _11  and  _15
REMARK   10  A    between atoms: _12  and  _13
REMARK   11  A    between atoms: _13  and  _14
REMARK   12  A    between atoms: _17  and  _19
REMARK   13  A    between atoms: _18  and  _23
REMARK   14  A    between atoms: _19  and  _22
REMARK   15  A    between atoms: _27  and  _37
REMARK   16  A    between atoms: _29  and  _30
REMARK   17  A    between atoms: _31  and  _33
REMARK   18  A    between atoms: _33  and  _35
REMARK   19  A    between atoms: _35  and  _37
REMARK                            x       y       z     vdW  Elec       q    Type
REMARK                         _______ _______ _______ _____ _____    ______ ____
ROOT
ATOM      1  C   UNL     1      27.800  17.433  -1.187  0.00  0.00    +0.400 C 
ATOM      2  N   UNL     1      28.198  16.280  -0.554  0.00  0.00    -0.278 N 
ATOM      3  H   UNL     1      28.466  16.615   0.425  0.00  0.00    +0.152 HD
ATOM      4  O   UNL     1      27.669  18.450  -0.511  0.00  0.00    -0.226 OA
ENDROOT
BRANCH   1   5
ATOM      5  O   UNL     1      27.629  17.340  -2.465  0.00  0.00    -0.450 OA
BRANCH   5   6
ATOM      6  C   UNL     1      26.581  17.350  -3.407  0.00  0.00    +0.240 C 
BRANCH   6   7
ATOM      7  C   UNL     1      26.406  16.100  -4.289  0.00  0.00    +0.100 C 
BRANCH   7   9
ATOM      8  N   UNL     1      25.830  13.931  -3.226  0.00  0.00    -0.134 NA
ATOM      9  C   UNL     1      25.442  15.163  -3.681  0.00  0.00    +0.086 A 
ATOM     10  C   UNL     1      24.107  15.348  -3.390  0.00  0.00    +0.133 A 
ATOM     11  N   UNL     1      23.799  14.275  -2.602  0.00  0.00    -0.251 N 
ATOM     12  N   UNL     1      24.806  13.381  -2.588  0.00  0.00    -0.065 NA
BRANCH  11  13
ATOM     13  C   UNL     1      22.744  14.198  -1.611  0.00  0.00    +0.149 C 
BRANCH  13  14
ATOM     14  C   UNL     1      21.881  12.918  -1.654  0.00  0.00    +0.021 C 
BRANCH  14  15
ATOM     15  C   UNL     1      20.889  12.887  -2.835  0.00  0.00    +0.125 C 
BRANCH  15  16
ATOM     16  C   UNL     1      20.125  14.174  -3.056  0.00  0.00    +0.305 C 
ATOM     17  O   UNL     1      20.446  15.052  -3.841  0.00  0.00    -0.251 OA
BRANCH  16  18
ATOM     18  O   UNL     1      18.989  14.242  -2.337  0.00  0.00    -0.481 OA
ATOM     19  H   UNL     1      18.628  13.387  -2.042  0.00  0.00    +0.295 HD
ENDBRANCH  16  18
ENDBRANCH  15  16
ENDBRANCH  14  15
BRANCH  14  20
ATOM     20  C   UNL     1      21.190  12.722  -0.274  0.00  0.00    +0.009 C 
BRANCH  20  21
ATOM     21  C   UNL     1      21.598  11.457   0.513  0.00  0.00    -0.017 C 
ATOM     22  C   UNL     1      22.980  10.943   0.104  0.00  0.00    +0.007 C 
ATOM     23  C   UNL     1      21.595  11.737   2.020  0.00  0.00    +0.007 C 
ENDBRANCH  20  21
ENDBRANCH  14  20
ENDBRANCH  13  14
ENDBRANCH  11  13
ENDBRANCH   7   9
ENDBRANCH   6   7
ENDBRANCH   5   6
ENDBRANCH   1   5
BRANCH   2  24
ATOM     24  C   UNL     1      28.399  14.834  -0.612  0.00  0.00    +0.152 C 
BRANCH  24  25
ATOM     25  C   UNL     1      29.438  14.253   0.369  0.00  0.00    +0.193 C 
ATOM     26  O   UNL     1      29.604  12.861   0.021  0.00  0.00    -0.219 OA
BRANCH  25  27
ATOM     27  C   UNL     1      30.867  14.835   0.325  0.00  0.00    +0.212 C 
ATOM     28  O   UNL     1      30.870  16.194   0.792  0.00  0.00    -0.218 OA
BRANCH  27  29
ATOM     29  C   UNL     1      31.905  14.008   1.176  0.00  0.00    +0.171 C 
ATOM     30  O   UNL     1      32.155  14.590   2.452  0.00  0.00    -0.343 OA
ATOM     31  C   UNL     1      33.196  14.209   3.301  0.00  0.00    +0.220 C 
ATOM     32  C   UNL     1      34.549  14.183   2.569  0.00  0.00    +0.076 C 
ATOM     33  C   UNL     1      34.382  13.307   1.317  0.00  0.00    +0.177 C 
ATOM     34  O   UNL     1      35.618  13.217   0.623  0.00  0.00    -0.221 OA
ATOM     35  C   UNL     1      33.258  13.886   0.402  0.00  0.00    +0.155 C 
BRANCH  35  36
ATOM     36  N   UNL     1      33.101  13.059  -0.792  0.00  0.00    -0.202 NA
ATOM     37  C   UNL     1      33.262  13.384  -2.100  0.00  0.00    +0.242 C 
ATOM     38  C   UNL     1      33.325  12.270  -3.111  0.00  0.00    +0.096 C 
ATOM     39  O   UNL     1      33.352  14.566  -2.425  0.00  0.00    -0.273 OA
ENDBRANCH  35  36
BRANCH  31  40
ATOM     40  C   UNL     1      32.915  12.814   4.085  0.00  0.00    +0.391 C 
ATOM     41  O   UNL     1      34.096  12.484   4.643  0.00  0.00    -0.243 OA
ATOM     42  O   UNL     1      31.584  12.680   4.135  0.00  0.00    -0.243 OA
ENDBRANCH  31  40
ENDBRANCH  27  29
ENDBRANCH  25  27
ENDBRANCH  24  25
ENDBRANCH   2  24
TORSDOF 17
