REMARK VINA RESULT:    -6.815      0.780      1.128
REMARK INTER + INTRA:         -13.343
REMARK INTER:                 -12.250
REMARK INTRA:                  -1.093
REMARK UNBOUND:                -2.544
REMARK  Name = lig_assembled_65.pdb
REMARK  11 active torsions:
REMARK  status: ('A' for Active; 'I' for Inactive)
REMARK    1  A    between atoms: _8  and  _14
REMARK    2  A    between atoms: _9  and  _10
REMARK    3  A    between atoms: _9  and  _15
REMARK    4  A    between atoms: _15  and  _17
REMARK    5  A    between atoms: _16  and  _21
REMARK    6  A    between atoms: _17  and  _20
REMARK    7  A    between atoms: _25  and  _35
REMARK    8  A    between atoms: _27  and  _28
REMARK    9  A    between atoms: _29  and  _31
REMARK   10  A    between atoms: _31  and  _33
REMARK   11  A    between atoms: _33  and  _35
REMARK                            x       y       z     vdW  Elec       q    Type
REMARK                         _______ _______ _______ _____ _____    ______ ____
ROOT
ATOM      1  C   UNL     1      27.900  17.513  -0.887  0.00  0.00    +0.400 C 
ATOM      2  N   UNL     1      28.631  16.578  -0.192  0.00  0.00    -0.278 N 
ATOM      3  H   UNL     1      28.736  17.017   0.777  0.00  0.00    +0.152 HD
ATOM      4  O   UNL     1      27.416  18.452  -0.261  0.00  0.00    -0.226 OA
ENDROOT
BRANCH   1   5
ATOM      5  O   UNL     1      27.820  17.324  -2.163  0.00  0.00    -0.450 OA
BRANCH   5   6
ATOM      6  C   UNL     1      26.864  17.398  -3.196  0.00  0.00    +0.240 C 
BRANCH   6   7
ATOM      7  C   UNL     1      26.520  16.095  -3.942  0.00  0.00    +0.100 C 
BRANCH   7   9
ATOM      8  N   UNL     1      26.446  14.231  -2.314  0.00  0.00    -0.134 NA
ATOM      9  C   UNL     1      25.787  15.173  -3.054  0.00  0.00    +0.087 A 
ATOM     10  C   UNL     1      24.438  15.072  -2.811  0.00  0.00    +0.146 A 
ATOM     11  N   UNL     1      24.316  14.036  -1.910  0.00  0.00    -0.155 N 
ATOM     12  C   UNL     1      23.111  13.519  -1.351  0.00  0.00    +0.416 C 
ATOM     13  N   UNL     1      23.191  12.503  -0.482  0.00  0.00    +0.041 NA
ATOM     14  C   UNL     1      22.024  12.066  -0.016  0.00  0.00    +0.339 C 
ATOM     15  C   UNL     1      22.047  10.921   0.948  0.00  0.00    +0.149 C 
ATOM     16  N   UNL     1      20.837  12.567  -0.359  0.00  0.00    +0.007 NA
ATOM     17  C   UNL     1      20.867  13.560  -1.234  0.00  0.00    +0.386 C 
ATOM     18  N   UNL     1      19.660  14.100  -1.624  0.00  0.00    -0.296 N 
ATOM     19  H   UNL     1      18.945  13.914  -0.934  0.00  0.00    +0.148 HD
ATOM     20  H   UNL     1      19.769  15.054  -1.939  0.00  0.00    +0.148 HD
ATOM     21  N   UNL     1      21.964  14.090  -1.746  0.00  0.00    -0.290 NA
ATOM     22  N   UNL     1      25.547  13.545  -1.616  0.00  0.00    -0.056 NA
ENDBRANCH   7   9
ENDBRANCH   6   7
ENDBRANCH   5   6
ENDBRANCH   1   5
BRANCH   2  23
ATOM     23  C   UNL     1      29.299  15.279  -0.179  0.00  0.00    +0.152 C 
BRANCH  23  24
ATOM     24  C   UNL     1      30.603  15.194   0.641  0.00  0.00    +0.193 C 
ATOM     25  O   UNL     1      30.912  16.538   1.070  0.00  0.00    -0.219 OA
BRANCH  24  26
ATOM     26  C   UNL     1      30.573  14.370   1.947  0.00  0.00    +0.212 C 
ATOM     27  O   UNL     1      29.526  13.387   1.896  0.00  0.00    -0.218 OA
BRANCH  26  28
ATOM     28  C   UNL     1      31.936  13.639   2.255  0.00  0.00    +0.171 C 
ATOM     29  O   UNL     1      32.741  14.353   3.188  0.00  0.00    -0.343 OA
ATOM     30  C   UNL     1      34.082  14.066   3.453  0.00  0.00    +0.220 C 
ATOM     31  C   UNL     1      34.910  13.966   2.160  0.00  0.00    +0.076 C 
ATOM     32  C   UNL     1      34.204  12.962   1.234  0.00  0.00    +0.177 C 
ATOM     33  O   UNL     1      34.952  12.802   0.037  0.00  0.00    -0.221 OA
ATOM     34  C   UNL     1      32.749  13.439   0.934  0.00  0.00    +0.155 C 
BRANCH  34  35
ATOM     35  N   UNL     1      32.077  12.491   0.049  0.00  0.00    -0.202 NA
ATOM     36  C   UNL     1      31.885  12.543  -1.293  0.00  0.00    +0.242 C 
ATOM     37  C   UNL     1      31.421  11.295  -1.999  0.00  0.00    +0.096 C 
ATOM     38  O   UNL     1      32.093  13.594  -1.896  0.00  0.00    -0.273 OA
ENDBRANCH  34  35
BRANCH  30  39
ATOM     39  C   UNL     1      34.290  12.760   4.397  0.00  0.00    +0.391 C 
ATOM     40  O   UNL     1      35.596  12.450   4.278  0.00  0.00    -0.243 OA
ATOM     41  O   UNL     1      33.189  12.671   5.154  0.00  0.00    -0.243 OA
ENDBRANCH  30  39
ENDBRANCH  26  28
ENDBRANCH  24  26
ENDBRANCH  23  24
ENDBRANCH   2  23
TORSDOF 10
