REMARK VINA RESULT:    -5.896      1.514      2.060
REMARK INTER + INTRA:         -12.627
REMARK INTER:                 -11.353
REMARK INTRA:                  -1.274
REMARK UNBOUND:                -2.422
REMARK  Name = lig_assembled_53.pdb
REMARK  13 active torsions:
REMARK  status: ('A' for Active; 'I' for Inactive)
REMARK    1  A    between atoms: _2  and  _8
REMARK    2  A    between atoms: _4  and  _8
REMARK    3  A    between atoms: _4  and  _9
REMARK    4  A    between atoms: _5  and  _6
REMARK    5  A    between atoms: _5  and  _11
REMARK    6  A    between atoms: _11  and  _13
REMARK    7  A    between atoms: _12  and  _17
REMARK    8  A    between atoms: _13  and  _16
REMARK    9  A    between atoms: _21  and  _31
REMARK   10  A    between atoms: _23  and  _24
REMARK   11  A    between atoms: _25  and  _27
REMARK   12  A    between atoms: _27  and  _29
REMARK   13  A    between atoms: _29  and  _31
REMARK                            x       y       z     vdW  Elec       q    Type
REMARK                         _______ _______ _______ _____ _____    ______ ____
ROOT
ATOM      1  C   UNL     1      28.620  14.532   0.558  0.00  0.00    +0.152 C 
ENDROOT
BRANCH   1   3
ATOM      2  C   UNL     1      28.892  17.053  -0.450  0.00  0.00    +0.400 C 
ATOM      3  N   UNL     1      29.019  15.915   0.311  0.00  0.00    -0.278 N 
ATOM      4  H   UNL     1      29.727  16.197   1.061  0.00  0.00    +0.152 HD
ATOM      5  O   UNL     1      29.410  18.088  -0.037  0.00  0.00    -0.226 OA
BRANCH   2   6
ATOM      6  O   UNL     1      28.252  16.912  -1.565  0.00  0.00    -0.450 OA
BRANCH   6   7
ATOM      7  C   UNL     1      27.115  17.429  -2.216  0.00  0.00    +0.240 C 
BRANCH   7   8
ATOM      8  C   UNL     1      26.992  17.186  -3.732  0.00  0.00    +0.100 C 
BRANCH   8  10
ATOM      9  N   UNL     1      25.825  15.590  -5.223  0.00  0.00    -0.134 NA
ATOM     10  C   UNL     1      25.907  16.229  -4.016  0.00  0.00    +0.086 A 
ATOM     11  C   UNL     1      24.863  15.820  -3.218  0.00  0.00    +0.134 A 
ATOM     12  N   UNL     1      24.141  14.984  -4.016  0.00  0.00    -0.241 N 
ATOM     13  N   UNL     1      24.751  14.812  -5.206  0.00  0.00    -0.065 NA
BRANCH  12  14
ATOM     14  C   UNL     1      22.974  14.180  -3.718  0.00  0.00    +0.265 C 
BRANCH  14  15
ATOM     15  C   UNL     1      21.650  14.843  -3.987  0.00  0.00    +0.326 C 
ATOM     16  O   UNL     1      20.669  14.840  -3.258  0.00  0.00    -0.249 OA
BRANCH  15  17
ATOM     17  O   UNL     1      21.621  15.478  -5.190  0.00  0.00    -0.479 OA
ATOM     18  H   UNL     1      21.984  16.384  -5.203  0.00  0.00    +0.295 HD
ENDBRANCH  15  17
ENDBRANCH  14  15
ENDBRANCH  12  14
ENDBRANCH   8  10
ENDBRANCH   7   8
ENDBRANCH   6   7
ENDBRANCH   2   6
ENDBRANCH   1   3
BRANCH   1  19
ATOM     19  C   UNL     1      29.155  13.891   1.855  0.00  0.00    +0.193 C 
ATOM     20  O   UNL     1      28.059  13.883   2.796  0.00  0.00    -0.219 OA
BRANCH  19  21
ATOM     21  C   UNL     1      29.616  12.419   1.787  0.00  0.00    +0.212 C 
ATOM     22  O   UNL     1      29.565  11.938   0.434  0.00  0.00    -0.218 OA
BRANCH  21  23
ATOM     23  C   UNL     1      31.073  12.194   2.346  0.00  0.00    +0.171 C 
ATOM     24  O   UNL     1      31.127  12.240   3.768  0.00  0.00    -0.343 OA
ATOM     25  C   UNL     1      32.308  12.315   4.510  0.00  0.00    +0.220 C 
ATOM     26  C   UNL     1      33.225  13.445   4.010  0.00  0.00    +0.076 C 
ATOM     27  C   UNL     1      33.422  13.246   2.498  0.00  0.00    +0.177 C 
ATOM     28  O   UNL     1      34.296  14.245   1.991  0.00  0.00    -0.221 OA
ATOM     29  C   UNL     1      32.043  13.276   1.768  0.00  0.00    +0.155 C 
BRANCH  29  30
ATOM     30  N   UNL     1      32.226  13.095   0.330  0.00  0.00    -0.202 NA
ATOM     31  C   UNL     1      32.241  14.017  -0.666  0.00  0.00    +0.242 C 
ATOM     32  C   UNL     1      32.743  13.596  -2.023  0.00  0.00    +0.096 C 
ATOM     33  O   UNL     1      31.852  15.161  -0.441  0.00  0.00    -0.273 OA
ENDBRANCH  29  30
BRANCH  25  34
ATOM     34  C   UNL     1      33.102  10.901   4.608  0.00  0.00    +0.391 C 
ATOM     35  O   UNL     1      32.298  10.008   3.999  0.00  0.00    -0.243 OA
ATOM     36  O   UNL     1      34.354  11.205   4.972  0.00  0.00    -0.243 OA
ENDBRANCH  25  34
ENDBRANCH  21  23
ENDBRANCH  19  21
ENDBRANCH   1  19
TORSDOF 13
