REMARK VINA RESULT:    -7.770      0.727      3.142
REMARK INTER + INTRA:         -17.134
REMARK INTER:                 -13.854
REMARK INTRA:                  -3.280
REMARK UNBOUND:                -3.231
REMARK  Name = lig_assembled_34.pdb
REMARK  14 active torsions:
REMARK  status: ('A' for Active; 'I' for Inactive)
REMARK    1  A    between atoms: _2  and  _8
REMARK    2  A    between atoms: _5  and  _6
REMARK    3  A    between atoms: _5  and  _32
REMARK    4  A    between atoms: _10  and  _11
REMARK    5  A    between atoms: _12  and  _13
REMARK    6  A    between atoms: _17  and  _30
REMARK    7  A    between atoms: _32  and  _34
REMARK    8  A    between atoms: _33  and  _38
REMARK    9  A    between atoms: _34  and  _37
REMARK   10  A    between atoms: _42  and  _52
REMARK   11  A    between atoms: _44  and  _45
REMARK   12  A    between atoms: _46  and  _48
REMARK   13  A    between atoms: _48  and  _50
REMARK   14  A    between atoms: _50  and  _52
REMARK                            x       y       z     vdW  Elec       q    Type
REMARK                         _______ _______ _______ _____ _____    ______ ____
ROOT
ATOM      1  N   UNL     1      29.423  17.118  -0.853  0.00  0.00    -0.134 NA
ATOM      2  C   UNL     1      28.521  16.092  -0.849  0.00  0.00    +0.086 A 
ATOM      3  C   UNL     1      29.037  15.049  -0.122  0.00  0.00    +0.139 A 
ATOM      4  N   UNL     1      30.261  15.486   0.335  0.00  0.00    -0.220 N 
ATOM      5  N   UNL     1      30.485  16.739  -0.144  0.00  0.00    -0.061 NA
ENDROOT
BRANCH   4   6
ATOM      6  C   UNL     1      31.163  14.813   1.202  0.00  0.00    +0.068 A 
ATOM      7  C   UNL     1      31.403  13.446   1.025  0.00  0.00    +0.038 A 
ATOM      8  C   UNL     1      32.187  12.686   1.926  0.00  0.00    +0.007 A 
ATOM      9  C   UNL     1      32.809  13.349   3.002  0.00  0.00    -0.008 A 
ATOM     10  C   UNL     1      32.600  14.742   3.148  0.00  0.00    +0.011 A 
ATOM     11  C   UNL     1      31.774  15.467   2.272  0.00  0.00    +0.028 A 
BRANCH   9  12
ATOM     12  C   UNL     1      33.621  12.672   4.067  0.00  0.00    +0.004 A 
ATOM     13  C   UNL     1      33.068  12.214   5.225  0.00  0.00    +0.026 A 
ATOM     14  C   UNL     1      31.649  12.398   5.554  0.00  0.00    +0.016 A 
ATOM     15  C   UNL     1      31.168  12.109   6.772  0.00  0.00    +0.051 A 
ATOM     16  C   UNL     1      32.056  11.557   7.824  0.00  0.00    +0.183 A 
ATOM     17  O   UNL     1      31.644  11.348   8.962  0.00  0.00    -0.288 OA
ATOM     18  C   UNL     1      33.432  11.196   7.431  0.00  0.00    +0.097 A 
ATOM     19  C   UNL     1      33.888  11.474   6.204  0.00  0.00    +0.140 A 
ATOM     20  O   UNL     1      35.137  10.992   5.840  0.00  0.00    -0.455 OA
ATOM     21  C   UNL     1      35.717  11.476   4.697  0.00  0.00    +0.140 A 
ATOM     22  C   UNL     1      37.011  11.028   4.425  0.00  0.00    +0.092 A 
ATOM     23  C   UNL     1      37.681  11.521   3.318  0.00  0.00    +0.120 A 
ATOM     24  C   UNL     1      37.106  12.512   2.529  0.00  0.00    +0.046 A 
ATOM     25  C   UNL     1      35.804  12.940   2.806  0.00  0.00    +0.016 A 
ATOM     26  C   UNL     1      35.068  12.379   3.860  0.00  0.00    +0.026 A 
BRANCH  23  27
ATOM     27  O   UNL     1      38.907  11.003   3.020  0.00  0.00    -0.507 OA
ATOM     28  H   UNL     1      39.502  11.747   2.832  0.00  0.00    +0.292 HD
ENDBRANCH  23  27
ENDBRANCH   9  12
BRANCH   8  29
ATOM     29  C   UNL     1      32.226  11.188   1.691  0.00  0.00    +0.072 C 
ATOM     30  O   UNL     1      31.316  10.508   2.267  0.00  0.00    -0.545 OA
ATOM     31  O   UNL     1      33.187  10.710   1.019  0.00  0.00    -0.545 OA
ENDBRANCH   8  29
ENDBRANCH   4   6
BRANCH   2  32
ATOM     32  C   UNL     1      27.220  16.180  -1.541  0.00  0.00    +0.100 C 
BRANCH  32  33
ATOM     33  C   UNL     1      27.226  17.323  -2.573  0.00  0.00    +0.240 C 
BRANCH  33  34
ATOM     34  O   UNL     1      26.482  17.137  -3.755  0.00  0.00    -0.450 OA
BRANCH  34  35
ATOM     35  C   UNL     1      26.020  16.172  -4.480  0.00  0.00    +0.400 C 
ATOM     36  N   UNL     1      24.794  15.677  -4.101  0.00  0.00    -0.278 N 
ATOM     37  H   UNL     1      24.516  15.051  -4.921  0.00  0.00    +0.152 HD
ATOM     38  O   UNL     1      26.557  15.690  -5.474  0.00  0.00    -0.226 OA
BRANCH  36  39
ATOM     39  C   UNL     1      23.733  15.615  -3.099  0.00  0.00    +0.152 C 
BRANCH  39  40
ATOM     40  C   UNL     1      22.677  14.508  -3.296  0.00  0.00    +0.193 C 
ATOM     41  O   UNL     1      21.828  14.933  -4.385  0.00  0.00    -0.219 OA
BRANCH  40  42
ATOM     42  C   UNL     1      23.177  13.110  -3.721  0.00  0.00    +0.212 C 
ATOM     43  O   UNL     1      23.549  13.110  -5.108  0.00  0.00    -0.218 OA
BRANCH  42  44
ATOM     44  C   UNL     1      24.403  12.600  -2.870  0.00  0.00    +0.171 C 
ATOM     45  O   UNL     1      25.459  12.096  -3.680  0.00  0.00    -0.343 OA
ATOM     46  C   UNL     1      26.547  11.367  -3.193  0.00  0.00    +0.220 C 
ATOM     47  C   UNL     1      26.096  10.198  -2.300  0.00  0.00    +0.076 C 
ATOM     48  C   UNL     1      25.166  10.773  -1.219  0.00  0.00    +0.177 C 
ATOM     49  O   UNL     1      24.751   9.738  -0.340  0.00  0.00    -0.221 OA
ATOM     50  C   UNL     1      23.942  11.478  -1.883  0.00  0.00    +0.155 C 
BRANCH  50  51
ATOM     51  N   UNL     1      23.053  12.020  -0.859  0.00  0.00    -0.202 NA
ATOM     52  C   UNL     1      21.736  11.778  -0.637  0.00  0.00    +0.242 C 
ATOM     53  C   UNL     1      21.133  12.240   0.664  0.00  0.00    +0.096 C 
ATOM     54  O   UNL     1      21.073  11.192  -1.491  0.00  0.00    -0.273 OA
ENDBRANCH  50  51
BRANCH  46  55
ATOM     55  C   UNL     1      27.663  12.287  -2.454  0.00  0.00    +0.391 C 
ATOM     56  O   UNL     1      28.243  11.471  -1.552  0.00  0.00    -0.243 OA
ATOM     57  O   UNL     1      27.793  13.386  -3.206  0.00  0.00    -0.243 OA
ENDBRANCH  46  55
ENDBRANCH  42  44
ENDBRANCH  40  42
ENDBRANCH  39  40
ENDBRANCH  36  39
ENDBRANCH  34  35
ENDBRANCH  33  34
ENDBRANCH  32  33
ENDBRANCH   2  32
TORSDOF 14
