REMARK VINA RESULT:    -7.585      1.687      2.192
REMARK INTER + INTRA:         -14.086
REMARK INTER:                 -12.767
REMARK INTRA:                  -1.320
REMARK UNBOUND:                -1.624
REMARK  Name = lig_assembled_3.pdb
REMARK  11 active torsions:
REMARK  status: ('A' for Active; 'I' for Inactive)
REMARK    1  A    between atoms: _2  and  _8
REMARK    2  A    between atoms: _5  and  _6
REMARK    3  A    between atoms: _5  and  _13
REMARK    4  A    between atoms: _13  and  _15
REMARK    5  A    between atoms: _14  and  _19
REMARK    6  A    between atoms: _15  and  _18
REMARK    7  A    between atoms: _23  and  _33
REMARK    8  A    between atoms: _25  and  _26
REMARK    9  A    between atoms: _27  and  _29
REMARK   10  A    between atoms: _29  and  _31
REMARK   11  A    between atoms: _31  and  _33
REMARK                            x       y       z     vdW  Elec       q    Type
REMARK                         _______ _______ _______ _____ _____    ______ ____
ROOT
ATOM      1  C   UNL     1      28.818  14.475  -0.317  0.00  0.00    +0.152 C 
ENDROOT
BRANCH   1   3
ATOM      2  C   UNL     1      28.241  17.106  -0.753  0.00  0.00    +0.400 C 
ATOM      3  N   UNL     1      28.660  15.922  -0.194  0.00  0.00    -0.278 N 
ATOM      4  H   UNL     1      29.020  16.216   0.768  0.00  0.00    +0.152 HD
ATOM      5  O   UNL     1      28.195  18.102  -0.034  0.00  0.00    -0.226 OA
BRANCH   2   6
ATOM      6  O   UNL     1      27.959  17.061  -2.014  0.00  0.00    -0.450 OA
BRANCH   6   7
ATOM      7  C   UNL     1      27.015  17.588  -2.916  0.00  0.00    +0.240 C 
BRANCH   7   8
ATOM      8  C   UNL     1      26.352  16.609  -3.904  0.00  0.00    +0.100 C 
BRANCH   8  10
ATOM      9  N   UNL     1      26.334  14.425  -2.742  0.00  0.00    -0.134 NA
ATOM     10  C   UNL     1      25.661  15.532  -3.171  0.00  0.00    +0.086 A 
ATOM     11  C   UNL     1      24.341  15.429  -2.797  0.00  0.00    +0.139 A 
ATOM     12  N   UNL     1      24.257  14.239  -2.109  0.00  0.00    -0.220 N 
ATOM     13  N   UNL     1      25.475  13.642  -2.104  0.00  0.00    -0.061 NA
BRANCH  12  14
ATOM     14  C   UNL     1      23.132  13.664  -1.463  0.00  0.00    +0.067 A 
ATOM     15  C   UNL     1      23.265  12.505  -0.684  0.00  0.00    +0.028 A 
ATOM     16  C   UNL     1      22.140  11.937  -0.080  0.00  0.00    +0.002 A 
ATOM     17  C   UNL     1      20.885  12.519  -0.245  0.00  0.00    +0.000 A 
ATOM     18  C   UNL     1      20.749  13.676  -1.010  0.00  0.00    +0.002 A 
ATOM     19  C   UNL     1      21.867  14.251  -1.618  0.00  0.00    +0.028 A 
ENDBRANCH  12  14
ENDBRANCH   8  10
ENDBRANCH   7   8
ENDBRANCH   6   7
ENDBRANCH   2   6
ENDBRANCH   1   3
BRANCH   1  20
ATOM     20  C   UNL     1      30.220  13.915  -0.001  0.00  0.00    +0.193 C 
ATOM     21  O   UNL     1      30.169  12.495  -0.264  0.00  0.00    -0.219 OA
BRANCH  20  22
ATOM     22  C   UNL     1      31.402  14.423  -0.856  0.00  0.00    +0.212 C 
ATOM     23  O   UNL     1      31.731  15.776  -0.504  0.00  0.00    -0.218 OA
BRANCH  22  24
ATOM     24  C   UNL     1      32.699  13.537  -0.717  0.00  0.00    +0.171 C 
ATOM     25  O   UNL     1      33.554  13.978   0.332  0.00  0.00    -0.343 OA
ATOM     26  C   UNL     1      34.866  13.536   0.518  0.00  0.00    +0.220 C 
ATOM     27  C   UNL     1      35.690  13.634  -0.778  0.00  0.00    +0.076 C 
ATOM     28  C   UNL     1      34.909  12.899  -1.880  0.00  0.00    +0.177 C 
ATOM     29  O   UNL     1      35.648  12.925  -3.093  0.00  0.00    -0.221 OA
ATOM     30  C   UNL     1      33.500  13.543  -2.060  0.00  0.00    +0.155 C 
BRANCH  30  31
ATOM     31  N   UNL     1      32.757  12.852  -3.111  0.00  0.00    -0.202 NA
ATOM     32  C   UNL     1      32.683  13.118  -4.440  0.00  0.00    +0.242 C 
ATOM     33  C   UNL     1      32.083  12.075  -5.347  0.00  0.00    +0.096 C 
ATOM     34  O   UNL     1      33.103  14.191  -4.869  0.00  0.00    -0.273 OA
ENDBRANCH  30  31
BRANCH  26  35
ATOM     35  C   UNL     1      34.962  12.054   1.175  0.00  0.00    +0.391 C 
ATOM     36  O   UNL     1      33.720  11.793   1.627  0.00  0.00    -0.243 OA
ATOM     37  O   UNL     1      36.126  11.540   0.761  0.00  0.00    -0.243 OA
ENDBRANCH  26  35
ENDBRANCH  22  24
ENDBRANCH  20  22
ENDBRANCH   1  20
TORSDOF 11
