REMARK VINA RESULT:    -6.344      3.827      7.450
REMARK INTER + INTRA:         -12.423
REMARK INTER:                 -10.728
REMARK INTRA:                  -1.695
REMARK UNBOUND:                -1.999
REMARK  Name = lig_assembled_57.pdb
REMARK  12 active torsions:
REMARK  status: ('A' for Active; 'I' for Inactive)
REMARK    1  A    between atoms: _2  and  _9
REMARK    2  A    between atoms: _3  and  _12
REMARK    3  A    between atoms: _6  and  _7
REMARK    4  A    between atoms: _6  and  _14
REMARK    5  A    between atoms: _14  and  _16
REMARK    6  A    between atoms: _15  and  _20
REMARK    7  A    between atoms: _16  and  _19
REMARK    8  A    between atoms: _24  and  _34
REMARK    9  A    between atoms: _26  and  _27
REMARK   10  A    between atoms: _28  and  _30
REMARK   11  A    between atoms: _30  and  _32
REMARK   12  A    between atoms: _32  and  _34
REMARK                            x       y       z     vdW  Elec       q    Type
REMARK                         _______ _______ _______ _____ _____    ______ ____
ROOT
ATOM      1  C   UNL     1      28.074  17.132  -0.723  0.00  0.00    +0.400 C 
ATOM      2  N   UNL     1      28.676  15.949  -0.364  0.00  0.00    -0.278 N 
ATOM      3  H   UNL     1      29.461  16.261   0.291  0.00  0.00    +0.152 HD
ATOM      4  O   UNL     1      28.405  18.155  -0.130  0.00  0.00    -0.226 OA
ENDROOT
BRANCH   1   5
ATOM      5  O   UNL     1      27.222  17.054  -1.692  0.00  0.00    -0.450 OA
BRANCH   5   6
ATOM      6  C   UNL     1      27.148  17.316  -3.074  0.00  0.00    +0.240 C 
BRANCH   6   7
ATOM      7  C   UNL     1      25.963  16.712  -3.851  0.00  0.00    +0.100 C 
BRANCH   7   9
ATOM      8  N   UNL     1      24.222  15.506  -2.581  0.00  0.00    -0.134 NA
ATOM      9  C   UNL     1      25.462  15.514  -3.154  0.00  0.00    +0.086 A 
ATOM     10  C   UNL     1      26.052  14.281  -2.971  0.00  0.00    +0.134 A 
ATOM     11  N   UNL     1      25.087  13.537  -2.360  0.00  0.00    -0.248 N 
ATOM     12  N   UNL     1      24.016  14.305  -2.065  0.00  0.00    -0.065 NA
BRANCH  11  13
ATOM     13  C   UNL     1      25.023  12.112  -2.061  0.00  0.00    +0.111 C 
ATOM     14  C   UNL     1      26.186  11.695  -1.149  0.00  0.00    +0.042 C 
ATOM     15  C   UNL     1      25.946  12.180   0.279  0.00  0.00    +0.086 C 
ATOM     16  N   UNL     1      24.704  11.660   0.860  0.00  0.00    -0.305 NA
ATOM     17  C   UNL     1      23.534  11.942   0.026  0.00  0.00    +0.086 C 
ATOM     18  C   UNL     1      24.811  10.253   1.230  0.00  0.00    +0.104 C 
ATOM     19  C   UNL     1      23.702  11.601  -1.462  0.00  0.00    +0.042 C 
ENDBRANCH  11  13
ENDBRANCH   7   9
ENDBRANCH   6   7
ENDBRANCH   5   6
ENDBRANCH   1   5
BRANCH   2  20
ATOM     20  C   UNL     1      28.716  14.493  -0.462  0.00  0.00    +0.152 C 
BRANCH  20  21
ATOM     21  C   UNL     1      30.081  13.829  -0.188  0.00  0.00    +0.193 C 
ATOM     22  O   UNL     1      29.979  12.464  -0.648  0.00  0.00    -0.219 OA
BRANCH  21  23
ATOM     23  C   UNL     1      31.312  14.395  -0.930  0.00  0.00    +0.212 C 
ATOM     24  O   UNL     1      31.602  15.728  -0.478  0.00  0.00    -0.218 OA
BRANCH  23  25
ATOM     25  C   UNL     1      32.606  13.512  -0.756  0.00  0.00    +0.171 C 
ATOM     26  O   UNL     1      33.431  13.954   0.317  0.00  0.00    -0.343 OA
ATOM     27  C   UNL     1      34.738  13.514   0.540  0.00  0.00    +0.220 C 
ATOM     28  C   UNL     1      35.598  13.616  -0.732  0.00  0.00    +0.076 C 
ATOM     29  C   UNL     1      34.850  12.881  -1.856  0.00  0.00    +0.177 C 
ATOM     30  O   UNL     1      35.623  12.911  -3.048  0.00  0.00    -0.221 OA
ATOM     31  C   UNL     1      33.445  13.522  -2.076  0.00  0.00    +0.155 C 
BRANCH  31  32
ATOM     32  N   UNL     1      32.734  12.831  -3.149  0.00  0.00    -0.202 NA
ATOM     33  C   UNL     1      32.687  13.107  -4.477  0.00  0.00    +0.242 C 
ATOM     34  C   UNL     1      32.119  12.065  -5.404  0.00  0.00    +0.096 C 
ATOM     35  O   UNL     1      33.104  14.188  -4.888  0.00  0.00    -0.273 OA
ENDBRANCH  31  32
BRANCH  27  36
ATOM     36  C   UNL     1      34.818  12.030   1.198  0.00  0.00    +0.391 C 
ATOM     37  O   UNL     1      36.101  11.651   1.043  0.00  0.00    -0.243 OA
ATOM     38  O   UNL     1      33.688  11.874   1.898  0.00  0.00    -0.243 OA
ENDBRANCH  27  36
ENDBRANCH  23  25
ENDBRANCH  21  23
ENDBRANCH  20  21
ENDBRANCH   2  20
TORSDOF 11
