REMARK VINA RESULT:    -7.218      3.270      7.510
REMARK INTER + INTRA:         -14.151
REMARK INTER:                 -11.170
REMARK INTRA:                  -2.981
REMARK UNBOUND:                -1.658
REMARK  Name = lig_assembled_60.pdb
REMARK  13 active torsions:
REMARK  status: ('A' for Active; 'I' for Inactive)
REMARK    1  A    between atoms: _2  and  _9
REMARK    2  A    between atoms: _3  and  _44
REMARK    3  A    between atoms: _6  and  _7
REMARK    4  A    between atoms: _6  and  _16
REMARK    5  A    between atoms: _12  and  _44
REMARK    6  A    between atoms: _16  and  _18
REMARK    7  A    between atoms: _17  and  _22
REMARK    8  A    between atoms: _18  and  _21
REMARK    9  A    between atoms: _26  and  _36
REMARK   10  A    between atoms: _28  and  _29
REMARK   11  A    between atoms: _30  and  _32
REMARK   12  A    between atoms: _32  and  _34
REMARK   13  A    between atoms: _34  and  _36
REMARK                            x       y       z     vdW  Elec       q    Type
REMARK                         _______ _______ _______ _____ _____    ______ ____
ROOT
ATOM      1  C   UNL     1      28.586  17.173  -0.535  0.00  0.00    +0.400 C 
ATOM      2  N   UNL     1      27.546  16.642  -1.261  0.00  0.00    -0.278 N 
ATOM      3  H   UNL     1      26.682  17.092  -0.821  0.00  0.00    +0.152 HD
ATOM      4  O   UNL     1      28.340  18.092   0.243  0.00  0.00    -0.226 OA
ENDROOT
BRANCH   2   5
ATOM      5  C   UNL     1      27.103  15.772  -2.347  0.00  0.00    +0.152 C 
BRANCH   5   6
ATOM      6  C   UNL     1      25.813  16.199  -3.077  0.00  0.00    +0.193 C 
ATOM      7  O   UNL     1      26.158  17.334  -3.901  0.00  0.00    -0.219 OA
BRANCH   6   8
ATOM      8  C   UNL     1      25.180  15.189  -4.060  0.00  0.00    +0.212 C 
ATOM      9  O   UNL     1      25.673  15.408  -5.392  0.00  0.00    -0.218 OA
BRANCH   8  10
ATOM     10  C   UNL     1      25.445  13.685  -3.667  0.00  0.00    +0.171 C 
ATOM     11  O   UNL     1      26.368  13.045  -4.541  0.00  0.00    -0.343 OA
ATOM     12  C   UNL     1      26.595  11.667  -4.574  0.00  0.00    +0.220 C 
ATOM     13  C   UNL     1      25.281  10.874  -4.682  0.00  0.00    +0.076 C 
ATOM     14  C   UNL     1      24.359  11.350  -3.548  0.00  0.00    +0.177 C 
ATOM     15  O   UNL     1      23.142  10.619  -3.578  0.00  0.00    -0.221 OA
ATOM     16  C   UNL     1      24.102  12.884  -3.673  0.00  0.00    +0.155 C 
BRANCH  16  17
ATOM     17  N   UNL     1      23.220  13.339  -2.601  0.00  0.00    -0.202 NA
ATOM     18  C   UNL     1      21.958  13.834  -2.667  0.00  0.00    +0.242 C 
ATOM     19  C   UNL     1      21.168  13.951  -1.390  0.00  0.00    +0.096 C 
ATOM     20  O   UNL     1      21.493  14.170  -3.754  0.00  0.00    -0.273 OA
ENDBRANCH  16  17
BRANCH  12  21
ATOM     21  C   UNL     1      27.516  11.133  -3.346  0.00  0.00    +0.391 C 
ATOM     22  O   UNL     1      27.346   9.797  -3.340  0.00  0.00    -0.243 OA
ATOM     23  O   UNL     1      28.310  12.156  -3.008  0.00  0.00    -0.243 OA
ENDBRANCH  12  21
ENDBRANCH   8  10
ENDBRANCH   6   8
ENDBRANCH   5   6
ENDBRANCH   2   5
BRANCH   1  24
ATOM     24  O   UNL     1      29.739  16.621  -0.724  0.00  0.00    -0.450 OA
BRANCH  24  25
ATOM     25  C   UNL     1      30.837  16.157   0.026  0.00  0.00    +0.240 C 
BRANCH  25  26
ATOM     26  C   UNL     1      31.039  14.633   0.124  0.00  0.00    +0.100 C 
BRANCH  26  28
ATOM     27  N   UNL     1      29.795  13.922   2.144  0.00  0.00    -0.134 NA
ATOM     28  C   UNL     1      29.879  14.005   0.784  0.00  0.00    +0.086 A 
ATOM     29  C   UNL     1      28.754  13.442   0.229  0.00  0.00    +0.139 A 
ATOM     30  N   UNL     1      27.982  13.058   1.303  0.00  0.00    -0.220 N 
ATOM     31  N   UNL     1      28.645  13.336   2.451  0.00  0.00    -0.061 NA
BRANCH  30  32
ATOM     32  C   UNL     1      26.678  12.497   1.300  0.00  0.00    +0.067 A 
ATOM     33  C   UNL     1      26.141  11.933   2.468  0.00  0.00    +0.030 A 
ATOM     34  C   UNL     1      24.886  11.322   2.437  0.00  0.00    +0.030 A 
ATOM     35  C   UNL     1      24.160  11.286   1.244  0.00  0.00    +0.105 A 
ATOM     36  C   UNL     1      24.678  11.858   0.077  0.00  0.00    +0.030 A 
ATOM     37  C   UNL     1      25.934  12.470   0.109  0.00  0.00    +0.030 A 
BRANCH  35  38
ATOM     38  S   UNL     1      22.607  10.440   1.199  0.00  0.00    +0.056 S 
ATOM     39  O   UNL     1      22.795   9.073   1.620  0.00  0.00    -0.153 OA
ATOM     40  O   UNL     1      21.589  11.295   1.766  0.00  0.00    -0.153 OA
BRANCH  38  41
ATOM     41  N   UNL     1      22.298  10.382  -0.449  0.00  0.00    -0.204 NA
ATOM     42  H   UNL     1      21.726  11.181  -0.722  0.00  0.00    +0.144 HD
ATOM     43  H   UNL     1      21.888   9.479  -0.690  0.00  0.00    +0.144 HD
ENDBRANCH  38  41
ENDBRANCH  35  38
ENDBRANCH  30  32
ENDBRANCH  26  28
ENDBRANCH  25  26
ENDBRANCH  24  25
ENDBRANCH   1  24
TORSDOF 13
