REMARK VINA RESULT:    -6.312      3.821      8.426
REMARK INTER + INTRA:         -13.410
REMARK INTER:                 -10.908
REMARK INTRA:                  -2.502
REMARK UNBOUND:                -1.931
REMARK  Name = lig_assembled_55.pdb
REMARK  15 active torsions:
REMARK  status: ('A' for Active; 'I' for Inactive)
REMARK    1  A    between atoms: _2  and  _9
REMARK    2  A    between atoms: _3  and  _10
REMARK    3  A    between atoms: _3  and  _41
REMARK    4  A    between atoms: _5  and  _41
REMARK    5  A    between atoms: _6  and  _7
REMARK    6  A    between atoms: _6  and  _13
REMARK    7  A    between atoms: _9  and  _10
REMARK    8  A    between atoms: _13  and  _15
REMARK    9  A    between atoms: _14  and  _19
REMARK   10  A    between atoms: _15  and  _18
REMARK   11  A    between atoms: _23  and  _33
REMARK   12  A    between atoms: _25  and  _26
REMARK   13  A    between atoms: _27  and  _29
REMARK   14  A    between atoms: _29  and  _31
REMARK   15  A    between atoms: _31  and  _33
REMARK                            x       y       z     vdW  Elec       q    Type
REMARK                         _______ _______ _______ _____ _____    ______ ____
ROOT
ATOM      1  C   UNL     1      24.240  14.753  -3.115  0.00  0.00    +0.400 C 
ATOM      2  N   UNL     1      24.459  13.398  -3.018  0.00  0.00    -0.278 N 
ATOM      3  H   UNL     1      24.018  13.143  -2.079  0.00  0.00    +0.152 HD
ATOM      4  O   UNL     1      23.499  15.280  -2.288  0.00  0.00    -0.226 OA
ENDROOT
BRANCH   2   5
ATOM      5  C   UNL     1      24.998  12.180  -3.616  0.00  0.00    +0.152 C 
BRANCH   5   6
ATOM      6  C   UNL     1      26.226  11.565  -2.915  0.00  0.00    +0.193 C 
ATOM      7  O   UNL     1      26.969  12.662  -2.340  0.00  0.00    -0.219 OA
BRANCH   6   8
ATOM      8  C   UNL     1      25.968  10.610  -1.728  0.00  0.00    +0.212 C 
ATOM      9  O   UNL     1      26.979   9.590  -1.675  0.00  0.00    -0.218 OA
BRANCH   8  10
ATOM     10  C   UNL     1      25.921  11.345  -0.334  0.00  0.00    +0.171 C 
ATOM     11  O   UNL     1      26.981  10.949   0.530  0.00  0.00    -0.343 OA
ATOM     12  C   UNL     1      27.042  11.252   1.892  0.00  0.00    +0.220 C 
ATOM     13  C   UNL     1      25.736  10.884   2.618  0.00  0.00    +0.076 C 
ATOM     14  C   UNL     1      24.580  11.553   1.857  0.00  0.00    +0.177 C 
ATOM     15  O   UNL     1      23.349  11.276   2.512  0.00  0.00    -0.221 OA
ATOM     16  C   UNL     1      24.557  11.063   0.376  0.00  0.00    +0.155 C 
BRANCH  16  17
ATOM     17  N   UNL     1      23.455  11.691  -0.349  0.00  0.00    -0.202 NA
ATOM     18  C   UNL     1      22.234  11.193  -0.674  0.00  0.00    +0.242 C 
ATOM     19  C   UNL     1      21.179  12.150  -1.164  0.00  0.00    +0.096 C 
ATOM     20  O   UNL     1      22.020   9.988  -0.561  0.00  0.00    -0.273 OA
ENDBRANCH  16  17
BRANCH  12  21
ATOM     21  C   UNL     1      27.480  12.787   2.194  0.00  0.00    +0.391 C 
ATOM     22  O   UNL     1      27.885  13.273   1.005  0.00  0.00    -0.243 OA
ATOM     23  O   UNL     1      27.000  13.076   3.410  0.00  0.00    -0.243 OA
ENDBRANCH  12  21
ENDBRANCH   8  10
ENDBRANCH   6   8
ENDBRANCH   5   6
ENDBRANCH   2   5
BRANCH   1  24
ATOM     24  O   UNL     1      24.872  15.355  -4.067  0.00  0.00    -0.450 OA
BRANCH  24  25
ATOM     25  C   UNL     1      26.036  16.125  -4.257  0.00  0.00    +0.240 C 
BRANCH  25  26
ATOM     26  C   UNL     1      26.248  17.335  -3.327  0.00  0.00    +0.100 C 
BRANCH  26  28
ATOM     27  N   UNL     1      27.660  15.748  -2.062  0.00  0.00    -0.134 NA
ATOM     28  C   UNL     1      27.290  17.040  -2.327  0.00  0.00    +0.086 A 
ATOM     29  C   UNL     1      28.030  17.891  -1.536  0.00  0.00    +0.133 A 
ATOM     30  N   UNL     1      28.815  17.056  -0.799  0.00  0.00    -0.250 N 
ATOM     31  N   UNL     1      28.591  15.769  -1.119  0.00  0.00    -0.065 NA
BRANCH  30  32
ATOM     32  C   UNL     1      29.807  17.405   0.195  0.00  0.00    +0.162 C 
BRANCH  32  33
ATOM     33  C   UNL     1      30.789  16.272   0.514  0.00  0.00    +0.129 C 
BRANCH  33  34
ATOM     34  N   UNL     1      31.841  16.080  -0.526  0.00  0.00    -0.193 NA
ATOM     35  H   UNL     1      32.591  16.773  -0.412  0.00  0.00    +0.148 HD
BRANCH  34  36
ATOM     36  S   UNL     1      32.422  14.509  -0.714  0.00  0.00    +0.027 S 
ATOM     37  O   UNL     1      31.425  13.783  -1.470  0.00  0.00    -0.158 OA
ATOM     38  O   UNL     1      33.791  14.599  -1.168  0.00  0.00    -0.158 OA
ATOM     39  C   UNL     1      32.392  13.917   0.962  0.00  0.00    +0.214 C 
ENDBRANCH  34  36
ENDBRANCH  33  34
ENDBRANCH  32  33
ENDBRANCH  30  32
ENDBRANCH  26  28
ENDBRANCH  25  26
ENDBRANCH  24  25
ENDBRANCH   1  24
TORSDOF 14
