REMARK VINA RESULT:    -6.262      1.867      2.975
REMARK INTER + INTRA:         -14.267
REMARK INTER:                 -12.059
REMARK INTRA:                  -2.208
REMARK UNBOUND:                -2.880
REMARK  Name = lig_assembled_21.pdb
REMARK  15 active torsions:
REMARK  status: ('A' for Active; 'I' for Inactive)
REMARK    1  A    between atoms: _2  and  _8
REMARK    2  A    between atoms: _5  and  _6
REMARK    3  A    between atoms: _5  and  _18
REMARK    4  A    between atoms: _8  and  _9
REMARK    5  A    between atoms: _10  and  _17
REMARK    6  A    between atoms: _11  and  _12
REMARK    7  A    between atoms: _11  and  _17
REMARK    8  A    between atoms: _18  and  _20
REMARK    9  A    between atoms: _19  and  _24
REMARK   10  A    between atoms: _20  and  _23
REMARK   11  A    between atoms: _28  and  _38
REMARK   12  A    between atoms: _30  and  _31
REMARK   13  A    between atoms: _32  and  _34
REMARK   14  A    between atoms: _34  and  _36
REMARK   15  A    between atoms: _36  and  _38
REMARK                            x       y       z     vdW  Elec       q    Type
REMARK                         _______ _______ _______ _____ _____    ______ ____
ROOT
ATOM      1  C   UNL     1      28.180  17.702  -0.891  0.00  0.00    +0.400 C 
ATOM      2  N   UNL     1      29.313  17.386  -0.178  0.00  0.00    -0.278 N 
ATOM      3  H   UNL     1      29.358  18.152   0.566  0.00  0.00    +0.152 HD
ATOM      4  O   UNL     1      27.443  18.579  -0.449  0.00  0.00    -0.226 OA
ENDROOT
BRANCH   2   5
ATOM      5  C   UNL     1      30.447  16.488   0.022  0.00  0.00    +0.152 C 
BRANCH   5   6
ATOM      6  C   UNL     1      30.132  15.135   0.694  0.00  0.00    +0.193 C 
ATOM      7  O   UNL     1      29.062  14.533  -0.068  0.00  0.00    -0.219 OA
BRANCH   6   8
ATOM      8  C   UNL     1      31.246  14.066   0.706  0.00  0.00    +0.212 C 
ATOM      9  O   UNL     1      32.365  14.499  -0.084  0.00  0.00    -0.218 OA
BRANCH   8  10
ATOM     10  C   UNL     1      31.758  13.714   2.155  0.00  0.00    +0.171 C 
ATOM     11  O   UNL     1      33.150  13.414   2.186  0.00  0.00    -0.343 OA
ATOM     12  C   UNL     1      33.808  12.840   3.276  0.00  0.00    +0.220 C 
ATOM     13  C   UNL     1      33.086  11.578   3.778  0.00  0.00    +0.076 C 
ATOM     14  C   UNL     1      31.618  11.956   4.034  0.00  0.00    +0.177 C 
ATOM     15  O   UNL     1      30.912  10.831   4.539  0.00  0.00    -0.221 OA
ATOM     16  C   UNL     1      30.965  12.493   2.723  0.00  0.00    +0.155 C 
BRANCH  16  17
ATOM     17  N   UNL     1      29.567  12.846   2.960  0.00  0.00    -0.202 NA
ATOM     18  C   UNL     1      28.433  12.262   2.497  0.00  0.00    +0.242 C 
ATOM     19  C   UNL     1      27.121  12.643   3.131  0.00  0.00    +0.096 C 
ATOM     20  O   UNL     1      28.502  11.443   1.582  0.00  0.00    -0.273 OA
ENDBRANCH  16  17
BRANCH  12  21
ATOM     21  C   UNL     1      34.091  13.887   4.485  0.00  0.00    +0.391 C 
ATOM     22  O   UNL     1      33.942  15.106   3.932  0.00  0.00    -0.243 OA
ATOM     23  O   UNL     1      34.065  13.166   5.613  0.00  0.00    -0.243 OA
ENDBRANCH  12  21
ENDBRANCH   8  10
ENDBRANCH   6   8
ENDBRANCH   5   6
ENDBRANCH   2   5
BRANCH   1  24
ATOM     24  O   UNL     1      28.014  17.051  -1.995  0.00  0.00    -0.450 OA
BRANCH  24  25
ATOM     25  C   UNL     1      27.391  17.214  -3.248  0.00  0.00    +0.240 C 
BRANCH  25  26
ATOM     26  C   UNL     1      25.854  17.126  -3.294  0.00  0.00    +0.100 C 
BRANCH  26  28
ATOM     27  N   UNL     1      26.354  14.761  -3.809  0.00  0.00    -0.134 NA
ATOM     28  C   UNL     1      25.430  15.741  -3.568  0.00  0.00    +0.086 A 
ATOM     29  C   UNL     1      24.169  15.188  -3.602  0.00  0.00    +0.134 A 
ATOM     30  N   UNL     1      24.398  13.850  -3.778  0.00  0.00    -0.247 N 
ATOM     31  N   UNL     1      25.712  13.610  -3.938  0.00  0.00    -0.065 NA
BRANCH  30  32
ATOM     32  C   UNL     1      23.394  12.793  -3.712  0.00  0.00    +0.184 C 
BRANCH  32  33
ATOM     33  C   UNL     1      22.490  12.822  -2.504  0.00  0.00    +0.016 A 
ATOM     34  C   UNL     1      22.868  12.245  -1.278  0.00  0.00    +0.137 A 
ATOM     35  C   UNL     1      22.020  12.286  -0.171  0.00  0.00    +0.047 A 
ATOM     36  C   UNL     1      20.782  12.922  -0.273  0.00  0.00    +0.004 A 
ATOM     37  C   UNL     1      20.383  13.488  -1.481  0.00  0.00    +0.001 A 
ATOM     38  C   UNL     1      21.232  13.441  -2.589  0.00  0.00    +0.009 A 
BRANCH  34  39
ATOM     39  O   UNL     1      24.103  11.554  -1.251  0.00  0.00    -0.426 OA
BRANCH  39  40
ATOM     40  C   UNL     1      25.009  11.674  -0.196  0.00  0.00    +0.309 C 
ATOM     41  O   UNL     1      25.084  10.966   0.800  0.00  0.00    -0.251 OA
ATOM     42  C   UNL     1      25.966  12.789  -0.500  0.00  0.00    +0.136 C 
ENDBRANCH  39  40
ENDBRANCH  34  39
ENDBRANCH  32  33
ENDBRANCH  30  32
ENDBRANCH  26  28
ENDBRANCH  25  26
ENDBRANCH  24  25
ENDBRANCH   1  24
TORSDOF 14
