REMARK VINA RESULT:    -6.535      2.382      5.462
REMARK INTER + INTRA:         -13.632
REMARK INTER:                 -11.218
REMARK INTRA:                  -2.414
REMARK UNBOUND:                -2.513
REMARK  Name = lig_assembled_28.pdb
REMARK  12 active torsions:
REMARK  status: ('A' for Active; 'I' for Inactive)
REMARK    1  A    between atoms: _2  and  _8
REMARK    2  A    between atoms: _5  and  _6
REMARK    3  A    between atoms: _5  and  _17
REMARK    4  A    between atoms: _8  and  _9
REMARK    5  A    between atoms: _17  and  _19
REMARK    6  A    between atoms: _18  and  _23
REMARK    7  A    between atoms: _19  and  _22
REMARK    8  A    between atoms: _27  and  _37
REMARK    9  A    between atoms: _29  and  _30
REMARK   10  A    between atoms: _31  and  _33
REMARK   11  A    between atoms: _33  and  _35
REMARK   12  A    between atoms: _35  and  _37
REMARK                            x       y       z     vdW  Elec       q    Type
REMARK                         _______ _______ _______ _____ _____    ______ ____
ROOT
ATOM      1  C   UNL     1      32.528  14.178  -1.208  0.00  0.00    +0.400 C 
ATOM      2  N   UNL     1      32.883  13.013  -0.570  0.00  0.00    -0.278 N 
ATOM      3  H   UNL     1      33.486  12.508  -1.294  0.00  0.00    +0.152 HD
ATOM      4  O   UNL     1      33.077  14.445  -2.274  0.00  0.00    -0.226 OA
ENDROOT
BRANCH   2   5
ATOM      5  C   UNL     1      32.818  12.181   0.629  0.00  0.00    +0.152 C 
BRANCH   5   6
ATOM      6  C   UNL     1      33.321  12.832   1.935  0.00  0.00    +0.193 C 
ATOM      7  O   UNL     1      34.150  13.950   1.549  0.00  0.00    -0.219 OA
BRANCH   6   8
ATOM      8  C   UNL     1      32.265  13.444   2.881  0.00  0.00    +0.212 C 
ATOM      9  O   UNL     1      32.181  14.865   2.689  0.00  0.00    -0.218 OA
BRANCH   8  10
ATOM     10  C   UNL     1      30.827  12.824   2.696  0.00  0.00    +0.171 C 
ATOM     11  O   UNL     1      29.922  13.721   2.060  0.00  0.00    -0.343 OA
ATOM     12  C   UNL     1      28.541  13.529   1.991  0.00  0.00    +0.220 C 
ATOM     13  C   UNL     1      27.938  13.221   3.372  0.00  0.00    +0.076 C 
ATOM     14  C   UNL     1      28.726  12.042   3.968  0.00  0.00    +0.177 C 
ATOM     15  O   UNL     1      28.182  11.690   5.232  0.00  0.00    -0.221 OA
ATOM     16  C   UNL     1      30.237  12.411   4.084  0.00  0.00    +0.155 C 
BRANCH  16  17
ATOM     17  N   UNL     1      30.989  11.297   4.657  0.00  0.00    -0.202 NA
ATOM     18  C   UNL     1      31.665  11.218   5.831  0.00  0.00    +0.242 C 
ATOM     19  C   UNL     1      32.103   9.860   6.315  0.00  0.00    +0.096 C 
ATOM     20  O   UNL     1      31.901  12.244   6.466  0.00  0.00    -0.273 OA
ENDBRANCH  16  17
BRANCH  12  21
ATOM     21  C   UNL     1      28.095  12.426   0.885  0.00  0.00    +0.391 C 
ATOM     22  O   UNL     1      26.773  12.253   1.079  0.00  0.00    -0.243 OA
ATOM     23  O   UNL     1      29.115  12.333   0.023  0.00  0.00    -0.243 OA
ENDBRANCH  12  21
ENDBRANCH   8  10
ENDBRANCH   6   8
ENDBRANCH   5   6
ENDBRANCH   2   5
BRANCH   1  24
ATOM     24  O   UNL     1      31.609  14.877  -0.627  0.00  0.00    -0.450 OA
BRANCH  24  25
ATOM     25  C   UNL     1      31.297  16.225  -0.366  0.00  0.00    +0.240 C 
BRANCH  25  26
ATOM     26  C   UNL     1      29.968  16.521   0.353  0.00  0.00    +0.100 C 
BRANCH  26  28
ATOM     27  N   UNL     1      28.292  17.657  -1.077  0.00  0.00    -0.134 NA
ATOM     28  C   UNL     1      28.849  16.499  -0.607  0.00  0.00    +0.086 A 
ATOM     29  C   UNL     1      28.219  15.426  -1.196  0.00  0.00    +0.134 A 
ATOM     30  N   UNL     1      27.357  15.995  -2.089  0.00  0.00    -0.247 N 
ATOM     31  N   UNL     1      27.369  17.338  -1.976  0.00  0.00    -0.065 NA
BRANCH  30  32
ATOM     32  C   UNL     1      26.551  15.389  -3.141  0.00  0.00    +0.180 C 
BRANCH  32  33
ATOM     33  C   UNL     1      25.255  14.793  -2.644  0.00  0.00    -0.022 A 
ATOM     34  C   UNL     1      25.266  13.609  -1.886  0.00  0.00    +0.055 A 
ATOM     35  C   UNL     1      24.072  13.166  -1.359  0.00  0.00    +0.167 A 
ATOM     36  O   UNL     1      23.915  12.077  -0.560  0.00  0.00    -0.453 OA
ATOM     37  C   UNL     1      22.514  12.190  -0.225  0.00  0.00    +0.466 C 
ATOM     38  O   UNL     1      21.838  13.245  -0.943  0.00  0.00    -0.453 OA
ATOM     39  C   UNL     1      22.890  13.829  -1.578  0.00  0.00    +0.166 A 
ATOM     40  C   UNL     1      22.833  14.973  -2.346  0.00  0.00    +0.050 A 
ATOM     41  C   UNL     1      24.030  15.462  -2.877  0.00  0.00    +0.009 A 
ENDBRANCH  32  33
ENDBRANCH  30  32
ENDBRANCH  26  28
ENDBRANCH  25  26
ENDBRANCH  24  25
ENDBRANCH   1  24
TORSDOF 12
