REMARK VINA RESULT:    -7.368      3.467      5.837
REMARK INTER + INTRA:         -14.351
REMARK INTER:                 -11.314
REMARK INTRA:                  -3.037
REMARK UNBOUND:                -1.815
REMARK  Name = lig_assembled_71.pdb
REMARK  12 active torsions:
REMARK  status: ('A' for Active; 'I' for Inactive)
REMARK    1  A    between atoms: _2  and  _11
REMARK    2  A    between atoms: _8  and  _9
REMARK    3  A    between atoms: _8  and  _17
REMARK    4  A    between atoms: _11  and  _12
REMARK    5  A    between atoms: _17  and  _19
REMARK    6  A    between atoms: _18  and  _23
REMARK    7  A    between atoms: _19  and  _22
REMARK    8  A    between atoms: _27  and  _37
REMARK    9  A    between atoms: _29  and  _30
REMARK   10  A    between atoms: _31  and  _33
REMARK   11  A    between atoms: _33  and  _35
REMARK   12  A    between atoms: _35  and  _37
REMARK                            x       y       z     vdW  Elec       q    Type
REMARK                         _______ _______ _______ _____ _____    ______ ____
ROOT
ATOM      1  C   UNL     1      28.278  17.220  -0.637  0.00  0.00    +0.400 C 
ATOM      2  N   UNL     1      28.995  16.223  -0.018  0.00  0.00    -0.278 N 
ATOM      3  H   UNL     1      29.212  16.635   0.944  0.00  0.00    +0.152 HD
ATOM      4  O   UNL     1      27.915  18.179   0.040  0.00  0.00    -0.226 OA
ENDROOT
BRANCH   2   5
ATOM      5  C   UNL     1      29.568  14.881  -0.079  0.00  0.00    +0.152 C 
BRANCH   5   6
ATOM      6  C   UNL     1      31.107  14.795  -0.013  0.00  0.00    +0.193 C 
ATOM      7  O   UNL     1      31.617  16.008  -0.609  0.00  0.00    -0.219 OA
BRANCH   6   8
ATOM      8  C   UNL     1      31.761  14.749   1.386  0.00  0.00    +0.212 C 
ATOM      9  O   UNL     1      31.313  15.855   2.186  0.00  0.00    -0.218 OA
BRANCH   8  10
ATOM     10  C   UNL     1      31.469  13.411   2.167  0.00  0.00    +0.171 C 
ATOM     11  O   UNL     1      30.253  13.463   2.907  0.00  0.00    -0.343 OA
ATOM     12  C   UNL     1      29.876  12.524   3.870  0.00  0.00    +0.220 C 
ATOM     13  C   UNL     1      30.994  12.281   4.899  0.00  0.00    +0.076 C 
ATOM     14  C   UNL     1      32.273  11.932   4.119  0.00  0.00    +0.177 C 
ATOM     15  O   UNL     1      33.330  11.658   5.027  0.00  0.00    -0.221 OA
ATOM     16  C   UNL     1      32.645  13.095   3.148  0.00  0.00    +0.155 C 
BRANCH  16  17
ATOM     17  N   UNL     1      33.863  12.769   2.411  0.00  0.00    -0.202 NA
ATOM     18  C   UNL     1      35.100  13.322   2.491  0.00  0.00    +0.242 C 
ATOM     19  C   UNL     1      36.249  12.604   1.832  0.00  0.00    +0.096 C 
ATOM     20  O   UNL     1      35.253  14.383   3.093  0.00  0.00    -0.273 OA
ENDBRANCH  16  17
BRANCH  12  21
ATOM     21  C   UNL     1      29.335  11.129   3.236  0.00  0.00    +0.391 C 
ATOM     22  O   UNL     1      29.240  10.286   4.283  0.00  0.00    -0.243 OA
ATOM     23  O   UNL     1      28.909  11.424   2.002  0.00  0.00    -0.243 OA
ENDBRANCH  12  21
ENDBRANCH   8  10
ENDBRANCH   6   8
ENDBRANCH   5   6
ENDBRANCH   2   5
BRANCH   1  24
ATOM     24  O   UNL     1      28.078  17.062  -1.904  0.00  0.00    -0.450 OA
BRANCH  24  25
ATOM     25  C   UNL     1      27.026  17.140  -2.838  0.00  0.00    +0.240 C 
BRANCH  25  26
ATOM     26  C   UNL     1      26.018  15.976  -2.872  0.00  0.00    +0.100 C 
BRANCH  26  28
ATOM     27  N   UNL     1      26.808  14.593  -4.777  0.00  0.00    -0.134 NA
ATOM     28  C   UNL     1      26.653  14.765  -3.426  0.00  0.00    +0.086 A 
ATOM     29  C   UNL     1      27.172  13.671  -2.774  0.00  0.00    +0.134 A 
ATOM     30  N   UNL     1      27.613  12.860  -3.778  0.00  0.00    -0.243 N 
ATOM     31  N   UNL     1      27.407  13.426  -4.982  0.00  0.00    -0.065 NA
BRANCH  30  32
ATOM     32  C   UNL     1      28.335  11.609  -3.680  0.00  0.00    +0.241 C 
BRANCH  32  33
ATOM     33  C   UNL     1      29.561  11.735  -2.812  0.00  0.00    +0.241 C 
ATOM     34  O   UNL     1      29.543  11.315  -1.656  0.00  0.00    -0.273 OA
ATOM     35  N   UNL     1      30.611  12.408  -3.400  0.00  0.00    -0.253 N 
ATOM     36  H   UNL     1      30.510  12.909  -4.269  0.00  0.00    +0.158 HD
ATOM     37  C   UNL     1      31.841  12.612  -2.784  0.00  0.00    +0.221 A 
ATOM     38  N   UNL     1      32.632  13.523  -3.371  0.00  0.00    -0.223 NA
ATOM     39  C   UNL     1      33.798  13.789  -2.744  0.00  0.00    +0.116 A 
ATOM     40  C   UNL     1      34.205  13.168  -1.587  0.00  0.00    +0.039 A 
ATOM     41  C   UNL     1      33.343  12.222  -1.099  0.00  0.00    +0.116 A 
ATOM     42  N   UNL     1      32.167  11.934  -1.679  0.00  0.00    -0.223 NA
ENDBRANCH  32  33
ENDBRANCH  30  32
ENDBRANCH  26  28
ENDBRANCH  25  26
ENDBRANCH  24  25
ENDBRANCH   1  24
TORSDOF 12
