REMARK VINA RESULT:    -6.957      3.738      9.245
REMARK INTER + INTRA:         -12.816
REMARK INTER:                 -11.227
REMARK INTRA:                  -1.589
REMARK UNBOUND:                -1.385
REMARK  Name = lig_assembled_56.pdb
REMARK  11 active torsions:
REMARK  status: ('A' for Active; 'I' for Inactive)
REMARK    1  A    between atoms: _2  and  _9
REMARK    2  A    between atoms: _6  and  _7
REMARK    3  A    between atoms: _6  and  _13
REMARK    4  A    between atoms: _13  and  _15
REMARK    5  A    between atoms: _14  and  _19
REMARK    6  A    between atoms: _15  and  _18
REMARK    7  A    between atoms: _23  and  _33
REMARK    8  A    between atoms: _25  and  _26
REMARK    9  A    between atoms: _27  and  _29
REMARK   10  A    between atoms: _29  and  _31
REMARK   11  A    between atoms: _31  and  _33
REMARK                            x       y       z     vdW  Elec       q    Type
REMARK                         _______ _______ _______ _____ _____    ______ ____
ROOT
ATOM      1  C   UNL     1      27.134  17.105  -3.580  0.00  0.00    +0.152 C 
ENDROOT
BRANCH   1   3
ATOM      2  C   UNL     1      27.849  17.856  -1.056  0.00  0.00    +0.400 C 
ATOM      3  N   UNL     1      27.138  17.592  -2.203  0.00  0.00    -0.278 N 
ATOM      4  H   UNL     1      26.145  17.899  -1.954  0.00  0.00    +0.152 HD
ATOM      5  O   UNL     1      27.295  18.494  -0.165  0.00  0.00    -0.226 OA
BRANCH   2   6
ATOM      6  O   UNL     1      29.046  17.369  -1.015  0.00  0.00    -0.450 OA
BRANCH   6   7
ATOM      7  C   UNL     1      30.144  17.307  -0.135  0.00  0.00    +0.240 C 
BRANCH   7   8
ATOM      8  C   UNL     1      30.944  15.991  -0.088  0.00  0.00    +0.100 C 
BRANCH   8  10
ATOM      9  N   UNL     1      29.034  14.546   0.528  0.00  0.00    -0.134 NA
ATOM     10  C   UNL     1      30.283  15.020   0.804  0.00  0.00    +0.086 A 
ATOM     11  C   UNL     1      30.736  14.445   1.970  0.00  0.00    +0.139 A 
ATOM     12  N   UNL     1      29.723  13.604   2.367  0.00  0.00    -0.220 N 
ATOM     13  N   UNL     1      28.698  13.689   1.484  0.00  0.00    -0.061 NA
BRANCH  12  14
ATOM     14  C   UNL     1      29.674  12.743   3.491  0.00  0.00    +0.070 A 
ATOM     15  C   UNL     1      28.466  12.184   3.917  0.00  0.00    +0.047 A 
ATOM     16  C   UNL     1      28.489  11.362   5.033  0.00  0.00    +0.113 A 
ATOM     17  N   UNL     1      29.605  11.070   5.730  0.00  0.00    -0.263 NA
ATOM     18  C   UNL     1      30.759  11.621   5.296  0.00  0.00    +0.113 A 
ATOM     19  C   UNL     1      30.847  12.454   4.194  0.00  0.00    +0.047 A 
ENDBRANCH  12  14
ENDBRANCH   8  10
ENDBRANCH   7   8
ENDBRANCH   6   7
ENDBRANCH   2   6
ENDBRANCH   1   3
BRANCH   1  20
ATOM     20  C   UNL     1      25.965  16.177  -3.969  0.00  0.00    +0.193 C 
ATOM     21  O   UNL     1      26.144  15.846  -5.364  0.00  0.00    -0.219 OA
BRANCH  20  22
ATOM     22  C   UNL     1      25.870  14.809  -3.258  0.00  0.00    +0.212 C 
ATOM     23  O   UNL     1      26.379  14.904  -1.917  0.00  0.00    -0.218 OA
BRANCH  22  24
ATOM     24  C   UNL     1      24.403  14.236  -3.200  0.00  0.00    +0.171 C 
ATOM     25  O   UNL     1      23.413  15.258  -3.248  0.00  0.00    -0.343 OA
ATOM     26  C   UNL     1      22.058  15.057  -2.972  0.00  0.00    +0.220 C 
ATOM     27  C   UNL     1      21.851  14.323  -1.636  0.00  0.00    +0.076 C 
ATOM     28  C   UNL     1      22.701  13.042  -1.676  0.00  0.00    +0.177 C 
ATOM     29  O   UNL     1      22.514  12.303  -0.477  0.00  0.00    -0.221 OA
ATOM     30  C   UNL     1      24.204  13.400  -1.893  0.00  0.00    +0.155 C 
BRANCH  30  31
ATOM     31  N   UNL     1      25.015  12.186  -1.924  0.00  0.00    -0.202 NA
ATOM     32  C   UNL     1      25.751  11.608  -0.941  0.00  0.00    +0.242 C 
ATOM     33  C   UNL     1      26.252  10.204  -1.154  0.00  0.00    +0.096 C 
ATOM     34  O   UNL     1      25.987  12.236   0.090  0.00  0.00    -0.273 OA
ENDBRANCH  30  31
BRANCH  26  35
ATOM     35  C   UNL     1      21.252  14.333  -4.183  0.00  0.00    +0.391 C 
ATOM     36  O   UNL     1      20.112  13.884  -3.621  0.00  0.00    -0.243 OA
ATOM     37  O   UNL     1      21.862  14.712  -5.312  0.00  0.00    -0.243 OA
ENDBRANCH  26  35
ENDBRANCH  22  24
ENDBRANCH  20  22
ENDBRANCH   1  20
TORSDOF 11
