REMARK VINA RESULT:    -5.890      3.128      8.285
REMARK INTER + INTRA:         -12.664
REMARK INTER:                 -10.728
REMARK INTRA:                  -1.936
REMARK UNBOUND:                -1.953
REMARK  Name = lig_assembled_13.pdb
REMARK  15 active torsions:
REMARK  status: ('A' for Active; 'I' for Inactive)
REMARK    1  A    between atoms: _2  and  _8
REMARK    2  A    between atoms: _4  and  _10
REMARK    3  A    between atoms: _5  and  _6
REMARK    4  A    between atoms: _5  and  _13
REMARK    5  A    between atoms: _8  and  _9
REMARK    6  A    between atoms: _9  and  _11
REMARK    7  A    between atoms: _10  and  _11
REMARK    8  A    between atoms: _13  and  _15
REMARK    9  A    between atoms: _14  and  _19
REMARK   10  A    between atoms: _15  and  _18
REMARK   11  A    between atoms: _23  and  _33
REMARK   12  A    between atoms: _25  and  _26
REMARK   13  A    between atoms: _27  and  _29
REMARK   14  A    between atoms: _29  and  _31
REMARK   15  A    between atoms: _31  and  _33
REMARK                            x       y       z     vdW  Elec       q    Type
REMARK                         _______ _______ _______ _____ _____    ______ ____
ROOT
ATOM      1  C   UNL     1      26.442  15.751  -2.800  0.00  0.00    +0.152 C 
ENDROOT
BRANCH   1   3
ATOM      2  C   UNL     1      27.698  17.736  -1.411  0.00  0.00    +0.400 C 
ATOM      3  N   UNL     1      26.767  16.986  -2.091  0.00  0.00    -0.278 N 
ATOM      4  H   UNL     1      25.904  17.616  -2.105  0.00  0.00    +0.152 HD
ATOM      5  O   UNL     1      27.428  18.909  -1.165  0.00  0.00    -0.226 OA
BRANCH   2   6
ATOM      6  O   UNL     1      28.774  17.111  -1.062  0.00  0.00    -0.450 OA
BRANCH   6   7
ATOM      7  C   UNL     1      29.825  17.230  -0.132  0.00  0.00    +0.240 C 
BRANCH   7   8
ATOM      8  C   UNL     1      30.860  16.090  -0.078  0.00  0.00    +0.100 C 
BRANCH   8  10
ATOM      9  N   UNL     1      31.105  14.747   1.986  0.00  0.00    -0.134 NA
ATOM     10  C   UNL     1      30.410  15.031   0.842  0.00  0.00    +0.086 A 
ATOM     11  C   UNL     1      29.326  14.190   0.753  0.00  0.00    +0.134 A 
ATOM     12  N   UNL     1      29.454  13.374   1.839  0.00  0.00    -0.241 N 
ATOM     13  N   UNL     1      30.496  13.741   2.602  0.00  0.00    -0.065 NA
BRANCH  12  14
ATOM     14  C   UNL     1      28.579  12.305   2.265  0.00  0.00    +0.265 C 
BRANCH  14  15
ATOM     15  C   UNL     1      27.329  12.825   2.915  0.00  0.00    +0.329 C 
ATOM     16  O   UNL     1      27.264  13.673   3.792  0.00  0.00    -0.249 OA
BRANCH  15  17
ATOM     17  O   UNL     1      26.257  12.119   2.442  0.00  0.00    -0.464 OA
BRANCH  17  18
ATOM     18  C   UNL     1      26.109  12.132   1.013  0.00  0.00    +0.229 C 
ATOM     19  C   UNL     1      25.057  11.099   0.647  0.00  0.00    +0.048 C 
ENDBRANCH  17  18
ENDBRANCH  15  17
ENDBRANCH  14  15
ENDBRANCH  12  14
ENDBRANCH   8  10
ENDBRANCH   7   8
ENDBRANCH   6   7
ENDBRANCH   2   6
ENDBRANCH   1   3
BRANCH   1  20
ATOM     20  C   UNL     1      25.466  15.885  -3.987  0.00  0.00    +0.193 C 
ATOM     21  O   UNL     1      26.267  15.853  -5.189  0.00  0.00    -0.219 OA
BRANCH  20  22
ATOM     22  C   UNL     1      24.425  14.762  -4.187  0.00  0.00    +0.212 C 
ATOM     23  O   UNL     1      24.225  14.506  -5.586  0.00  0.00    -0.218 OA
BRANCH  22  24
ATOM     24  C   UNL     1      24.821  13.410  -3.479  0.00  0.00    +0.171 C 
ATOM     25  O   UNL     1      25.786  12.668  -4.217  0.00  0.00    -0.343 OA
ATOM     26  C   UNL     1      26.130  11.340  -3.951  0.00  0.00    +0.220 C 
ATOM     27  C   UNL     1      24.888  10.439  -3.843  0.00  0.00    +0.076 C 
ATOM     28  C   UNL     1      23.940  11.080  -2.815  0.00  0.00    +0.177 C 
ATOM     29  O   UNL     1      22.790  10.264  -2.647  0.00  0.00    -0.221 OA
ATOM     30  C   UNL     1      23.551  12.522  -3.269  0.00  0.00    +0.155 C 
BRANCH  30  31
ATOM     31  N   UNL     1      22.645  13.131  -2.298  0.00  0.00    -0.202 NA
ATOM     32  C   UNL     1      21.383  13.602  -2.466  0.00  0.00    +0.242 C 
ATOM     33  C   UNL     1      20.565  13.909  -1.239  0.00  0.00    +0.096 C 
ATOM     34  O   UNL     1      20.941  13.763  -3.602  0.00  0.00    -0.273 OA
ENDBRANCH  30  31
BRANCH  26  35
ATOM     35  C   UNL     1      27.106  11.170  -2.663  0.00  0.00    +0.391 C 
ATOM     36  O   UNL     1      27.455  12.426  -2.323  0.00  0.00    -0.243 OA
ATOM     37  O   UNL     1      26.955   9.905  -2.250  0.00  0.00    -0.243 OA
ENDBRANCH  26  35
ENDBRANCH  22  24
ENDBRANCH  20  22
ENDBRANCH   1  20
TORSDOF 14
