REMARK VINA RESULT:    -6.911      2.282      5.174
REMARK INTER + INTRA:         -13.574
REMARK INTER:                 -11.449
REMARK INTRA:                  -2.125
REMARK UNBOUND:                -1.815
REMARK  Name = lig_assembled_71.pdb
REMARK  12 active torsions:
REMARK  status: ('A' for Active; 'I' for Inactive)
REMARK    1  A    between atoms: _2  and  _11
REMARK    2  A    between atoms: _8  and  _9
REMARK    3  A    between atoms: _8  and  _17
REMARK    4  A    between atoms: _11  and  _12
REMARK    5  A    between atoms: _17  and  _19
REMARK    6  A    between atoms: _18  and  _23
REMARK    7  A    between atoms: _19  and  _22
REMARK    8  A    between atoms: _27  and  _37
REMARK    9  A    between atoms: _29  and  _30
REMARK   10  A    between atoms: _31  and  _33
REMARK   11  A    between atoms: _33  and  _35
REMARK   12  A    between atoms: _35  and  _37
REMARK                            x       y       z     vdW  Elec       q    Type
REMARK                         _______ _______ _______ _____ _____    ______ ____
ROOT
ATOM      1  C   UNL     1      32.464  14.332  -0.948  0.00  0.00    +0.400 C 
ATOM      2  N   UNL     1      33.517  13.714  -0.315  0.00  0.00    -0.278 N 
ATOM      3  H   UNL     1      33.686  12.843  -0.910  0.00  0.00    +0.152 HD
ATOM      4  O   UNL     1      32.113  13.902  -2.043  0.00  0.00    -0.226 OA
ENDROOT
BRANCH   2   5
ATOM      5  C   UNL     1      34.494  13.722   0.770  0.00  0.00    +0.152 C 
BRANCH   5   6
ATOM      6  C   UNL     1      33.995  13.211   2.137  0.00  0.00    +0.193 C 
ATOM      7  O   UNL     1      33.848  14.371   2.986  0.00  0.00    -0.219 OA
BRANCH   6   8
ATOM      8  C   UNL     1      32.613  12.523   2.183  0.00  0.00    +0.212 C 
ATOM      9  O   UNL     1      32.690  11.203   1.620  0.00  0.00    -0.218 OA
BRANCH   8  10
ATOM     10  C   UNL     1      32.016  12.416   3.638  0.00  0.00    +0.171 C 
ATOM     11  O   UNL     1      32.849  11.668   4.518  0.00  0.00    -0.343 OA
ATOM     12  C   UNL     1      32.456  11.215   5.779  0.00  0.00    +0.220 C 
ATOM     13  C   UNL     1      31.111  10.469   5.724  0.00  0.00    +0.076 C 
ATOM     14  C   UNL     1      30.099  11.390   5.023  0.00  0.00    +0.177 C 
ATOM     15  O   UNL     1      28.826  10.762   4.981  0.00  0.00    -0.221 OA
ATOM     16  C   UNL     1      30.602  11.749   3.590  0.00  0.00    +0.155 C 
BRANCH  16  17
ATOM     17  N   UNL     1      29.640  12.619   2.919  0.00  0.00    -0.202 NA
ATOM     18  C   UNL     1      28.984  12.443   1.743  0.00  0.00    +0.242 C 
ATOM     19  C   UNL     1      27.827  13.354   1.426  0.00  0.00    +0.096 C 
ATOM     20  O   UNL     1      29.343  11.554   0.974  0.00  0.00    -0.273 OA
ENDBRANCH  16  17
BRANCH  12  21
ATOM     21  C   UNL     1      32.446  12.380   6.911  0.00  0.00    +0.391 C 
ATOM     22  O   UNL     1      31.693  11.885   7.913  0.00  0.00    -0.243 OA
ATOM     23  O   UNL     1      33.410  13.241   6.565  0.00  0.00    -0.243 OA
ENDBRANCH  12  21
ENDBRANCH   8  10
ENDBRANCH   6   8
ENDBRANCH   5   6
ENDBRANCH   2   5
BRANCH   1  24
ATOM     24  O   UNL     1      31.916  15.307  -0.299  0.00  0.00    -0.450 OA
BRANCH  24  25
ATOM     25  C   UNL     1      30.776  15.558   0.489  0.00  0.00    +0.240 C 
BRANCH  25  26
ATOM     26  C   UNL     1      30.116  16.945   0.365  0.00  0.00    +0.100 C 
BRANCH  26  28
ATOM     27  N   UNL     1      28.225  18.000  -0.850  0.00  0.00    -0.134 NA
ATOM     28  C   UNL     1      28.968  16.885  -0.560  0.00  0.00    +0.086 A 
ATOM     29  C   UNL     1      28.458  15.815  -1.256  0.00  0.00    +0.134 A 
ATOM     30  N   UNL     1      27.397  16.334  -1.938  0.00  0.00    -0.243 N 
ATOM     31  N   UNL     1      27.269  17.652  -1.703  0.00  0.00    -0.065 NA
BRANCH  30  32
ATOM     32  C   UNL     1      26.539  15.684  -2.908  0.00  0.00    +0.241 C 
BRANCH  32  33
ATOM     33  C   UNL     1      25.662  14.639  -2.268  0.00  0.00    +0.241 C 
ATOM     34  O   UNL     1      26.137  13.553  -1.939  0.00  0.00    -0.273 OA
ATOM     35  N   UNL     1      24.331  14.988  -2.173  0.00  0.00    -0.253 N 
ATOM     36  H   UNL     1      23.954  15.800  -2.636  0.00  0.00    +0.158 HD
ATOM     37  C   UNL     1      23.359  14.181  -1.593  0.00  0.00    +0.221 A 
ATOM     38  N   UNL     1      22.091  14.541  -1.844  0.00  0.00    -0.223 NA
ATOM     39  C   UNL     1      21.134  13.725  -1.353  0.00  0.00    +0.116 A 
ATOM     40  C   UNL     1      21.395  12.599  -0.609  0.00  0.00    +0.039 A 
ATOM     41  C   UNL     1      22.721  12.351  -0.373  0.00  0.00    +0.116 A 
ATOM     42  N   UNL     1      23.707  13.124  -0.853  0.00  0.00    -0.223 NA
ENDBRANCH  32  33
ENDBRANCH  30  32
ENDBRANCH  26  28
ENDBRANCH  25  26
ENDBRANCH  24  25
ENDBRANCH   1  24
TORSDOF 12
