REMARK VINA RESULT:    -7.224     22.537     25.902
REMARK INTER + INTRA:         -16.157
REMARK INTER:                 -12.007
REMARK INTRA:                  -4.150
REMARK UNBOUND:                -3.231
REMARK  Name = lig_assembled_34.pdb
REMARK  14 active torsions:
REMARK  status: ('A' for Active; 'I' for Inactive)
REMARK    1  A    between atoms: _2  and  _8
REMARK    2  A    between atoms: _5  and  _6
REMARK    3  A    between atoms: _5  and  _32
REMARK    4  A    between atoms: _10  and  _11
REMARK    5  A    between atoms: _12  and  _13
REMARK    6  A    between atoms: _17  and  _30
REMARK    7  A    between atoms: _32  and  _34
REMARK    8  A    between atoms: _33  and  _38
REMARK    9  A    between atoms: _34  and  _37
REMARK   10  A    between atoms: _42  and  _52
REMARK   11  A    between atoms: _44  and  _45
REMARK   12  A    between atoms: _46  and  _48
REMARK   13  A    between atoms: _48  and  _50
REMARK   14  A    between atoms: _50  and  _52
REMARK                            x       y       z     vdW  Elec       q    Type
REMARK                         _______ _______ _______ _____ _____    ______ ____
ROOT
ATOM      1  N   UNL     1      29.592  34.491  16.387  0.00  0.00    -0.134 NA
ATOM      2  C   UNL     1      30.017  33.373  15.725  0.00  0.00    +0.086 A 
ATOM      3  C   UNL     1      29.569  33.427  14.428  0.00  0.00    +0.139 A 
ATOM      4  N   UNL     1      28.889  34.621  14.322  0.00  0.00    -0.220 N 
ATOM      5  N   UNL     1      28.895  35.238  15.534  0.00  0.00    -0.061 NA
ENDROOT
BRANCH   4   6
ATOM      6  C   UNL     1      28.301  35.192  13.162  0.00  0.00    +0.068 A 
ATOM      7  C   UNL     1      28.283  34.465  11.966  0.00  0.00    +0.038 A 
ATOM      8  C   UNL     1      27.831  35.019  10.743  0.00  0.00    +0.007 A 
ATOM      9  C   UNL     1      27.310  36.327  10.748  0.00  0.00    -0.008 A 
ATOM     10  C   UNL     1      27.286  37.039  11.972  0.00  0.00    +0.011 A 
ATOM     11  C   UNL     1      27.790  36.490  13.164  0.00  0.00    +0.028 A 
BRANCH   9  12
ATOM     12  C   UNL     1      26.846  37.066   9.527  0.00  0.00    +0.004 A 
ATOM     13  C   UNL     1      25.539  37.088   9.142  0.00  0.00    +0.026 A 
ATOM     14  C   UNL     1      24.489  36.344   9.850  0.00  0.00    +0.016 A 
ATOM     15  C   UNL     1      23.251  36.228   9.347  0.00  0.00    +0.051 A 
ATOM     16  C   UNL     1      22.891  36.881   8.066  0.00  0.00    +0.183 A 
ATOM     17  O   UNL     1      21.781  36.731   7.562  0.00  0.00    -0.288 OA
ATOM     18  C   UNL     1      23.890  37.782   7.457  0.00  0.00    +0.097 A 
ATOM     19  C   UNL     1      25.115  37.901   7.985  0.00  0.00    +0.140 A 
ATOM     20  O   UNL     1      25.967  38.862   7.461  0.00  0.00    -0.455 OA
ATOM     21  C   UNL     1      27.290  38.823   7.815  0.00  0.00    +0.140 A 
ATOM     22  C   UNL     1      28.123  39.753   7.189  0.00  0.00    +0.092 A 
ATOM     23  C   UNL     1      29.482  39.733   7.454  0.00  0.00    +0.120 A 
ATOM     24  C   UNL     1      30.028  38.748   8.271  0.00  0.00    +0.046 A 
ATOM     25  C   UNL     1      29.179  37.832   8.901  0.00  0.00    +0.016 A 
ATOM     26  C   UNL     1      27.789  37.899   8.729  0.00  0.00    +0.026 A 
BRANCH  23  27
ATOM     27  O   UNL     1      30.263  40.707   6.904  0.00  0.00    -0.507 OA
ATOM     28  H   UNL     1      31.183  40.397   6.933  0.00  0.00    +0.292 HD
ENDBRANCH  23  27
ENDBRANCH   9  12
BRANCH   8  29
ATOM     29  C   UNL     1      28.022  34.166   9.504  0.00  0.00    +0.072 C 
ATOM     30  O   UNL     1      26.958  33.799   8.908  0.00  0.00    -0.545 OA
ATOM     31  O   UNL     1      29.198  33.812   9.193  0.00  0.00    -0.545 OA
ENDBRANCH   8  29
ENDBRANCH   4   6
BRANCH   2  32
ATOM     32  C   UNL     1      30.827  32.327  16.378  0.00  0.00    +0.100 C 
BRANCH  32  33
ATOM     33  C   UNL     1      29.925  31.218  16.955  0.00  0.00    +0.240 C 
BRANCH  33  34
ATOM     34  O   UNL     1      28.896  30.723  16.130  0.00  0.00    -0.450 OA
BRANCH  34  35
ATOM     35  C   UNL     1      27.655  30.371  16.215  0.00  0.00    +0.400 C 
ATOM     36  N   UNL     1      26.743  31.400  16.219  0.00  0.00    -0.278 N 
ATOM     37  H   UNL     1      25.806  30.901  16.096  0.00  0.00    +0.152 HD
ATOM     38  O   UNL     1      27.229  29.219  16.260  0.00  0.00    -0.226 OA
BRANCH  36  39
ATOM     39  C   UNL     1      26.486  32.833  16.329  0.00  0.00    +0.152 C 
BRANCH  39  40
ATOM     40  C   UNL     1      25.079  33.306  15.906  0.00  0.00    +0.193 C 
ATOM     41  O   UNL     1      25.099  34.750  15.938  0.00  0.00    -0.219 OA
BRANCH  40  42
ATOM     42  C   UNL     1      24.608  32.958  14.477  0.00  0.00    +0.212 C 
ATOM     43  O   UNL     1      25.737  32.700  13.625  0.00  0.00    -0.218 OA
BRANCH  42  44
ATOM     44  C   UNL     1      23.643  31.713  14.423  0.00  0.00    +0.171 C 
ATOM     45  O   UNL     1      24.344  30.481  14.291  0.00  0.00    -0.343 OA
ATOM     46  C   UNL     1      23.741  29.260  13.979  0.00  0.00    +0.220 C 
ATOM     47  C   UNL     1      22.834  29.372  12.741  0.00  0.00    +0.076 C 
ATOM     48  C   UNL     1      21.856  30.533  12.987  0.00  0.00    +0.177 C 
ATOM     49  O   UNL     1      20.967  30.655  11.886  0.00  0.00    -0.221 OA
ATOM     50  C   UNL     1      22.645  31.858  13.228  0.00  0.00    +0.155 C 
BRANCH  50  51
ATOM     51  N   UNL     1      21.719  32.965  13.455  0.00  0.00    -0.202 NA
ATOM     52  C   UNL     1      21.240  33.889  12.583  0.00  0.00    +0.242 C 
ATOM     53  C   UNL     1      20.072  34.738  13.012  0.00  0.00    +0.096 C 
ATOM     54  O   UNL     1      21.763  34.009  11.477  0.00  0.00    -0.273 OA
ENDBRANCH  50  51
BRANCH  46  55
ATOM     55  C   UNL     1      22.958  28.585  15.232  0.00  0.00    +0.391 C 
ATOM     56  O   UNL     1      22.210  27.606  14.688  0.00  0.00    -0.243 OA
ATOM     57  O   UNL     1      23.565  29.040  16.335  0.00  0.00    -0.243 OA
ENDBRANCH  46  55
ENDBRANCH  42  44
ENDBRANCH  40  42
ENDBRANCH  39  40
ENDBRANCH  36  39
ENDBRANCH  34  35
ENDBRANCH  33  34
ENDBRANCH  32  33
ENDBRANCH   2  32
TORSDOF 14
