REMARK VINA RESULT:    -6.348      3.109      7.196
REMARK INTER + INTRA:         -14.146
REMARK INTER:                 -11.357
REMARK INTRA:                  -2.789
REMARK UNBOUND:                -1.675
REMARK  Name = lig_assembled_33.pdb
REMARK  17 active torsions:
REMARK  status: ('A' for Active; 'I' for Inactive)
REMARK    1  A    between atoms: _2  and  _8
REMARK    2  A    between atoms: _4  and  _12
REMARK    3  A    between atoms: _4  and  _13
REMARK    4  A    between atoms: _5  and  _6
REMARK    5  A    between atoms: _5  and  _15
REMARK    6  A    between atoms: _8  and  _9
REMARK    7  A    between atoms: _9  and  _10
REMARK    8  A    between atoms: _10  and  _11
REMARK    9  A    between atoms: _11  and  _12
REMARK   10  A    between atoms: _15  and  _17
REMARK   11  A    between atoms: _16  and  _21
REMARK   12  A    between atoms: _17  and  _20
REMARK   13  A    between atoms: _25  and  _35
REMARK   14  A    between atoms: _27  and  _28
REMARK   15  A    between atoms: _29  and  _31
REMARK   16  A    between atoms: _31  and  _33
REMARK   17  A    between atoms: _33  and  _35
REMARK                            x       y       z     vdW  Elec       q    Type
REMARK                         _______ _______ _______ _____ _____    ______ ____
ROOT
ATOM      1  C   UNL     1      28.783  16.935  -0.614  0.00  0.00    +0.400 C 
ATOM      2  N   UNL     1      27.599  16.593  -1.223  0.00  0.00    -0.278 N 
ATOM      3  H   UNL     1      26.910  17.321  -0.851  0.00  0.00    +0.152 HD
ATOM      4  O   UNL     1      28.832  17.997   0.002  0.00  0.00    -0.226 OA
ENDROOT
BRANCH   1   5
ATOM      5  O   UNL     1      29.739  16.073  -0.726  0.00  0.00    -0.450 OA
BRANCH   5   6
ATOM      6  C   UNL     1      30.128  14.832  -0.183  0.00  0.00    +0.240 C 
BRANCH   6   7
ATOM      7  C   UNL     1      29.949  14.632   1.334  0.00  0.00    +0.100 C 
BRANCH   7   9
ATOM      8  N   UNL     1      28.223  13.764   2.878  0.00  0.00    -0.134 NA
ATOM      9  C   UNL     1      28.734  13.843   1.609  0.00  0.00    +0.086 A 
ATOM     10  C   UNL     1      27.945  13.101   0.759  0.00  0.00    +0.133 A 
ATOM     11  N   UNL     1      26.970  12.603   1.569  0.00  0.00    -0.251 N 
ATOM     12  N   UNL     1      27.150  12.988   2.844  0.00  0.00    -0.065 NA
BRANCH  11  13
ATOM     13  C   UNL     1      25.854  11.752   1.211  0.00  0.00    +0.145 C 
BRANCH  13  14
ATOM     14  C   UNL     1      25.973  11.221  -0.217  0.00  0.00    +0.023 C 
BRANCH  14  15
ATOM     15  C   UNL     1      24.611  11.020  -0.886  0.00  0.00    +0.002 C 
BRANCH  15  16
ATOM     16  C   UNL     1      23.583  11.972  -0.269  0.00  0.00    +0.011 C 
BRANCH  16  17
ATOM     17  C   UNL     1      22.170  11.394  -0.261  0.00  0.00    +0.120 C 
BRANCH  17  18
ATOM     18  C   UNL     1      21.393  11.863   0.949  0.00  0.00    +0.305 C 
ATOM     19  O   UNL     1      21.449  11.364   2.062  0.00  0.00    -0.251 OA
BRANCH  18  20
ATOM     20  O   UNL     1      20.606  12.929   0.676  0.00  0.00    -0.481 OA
ATOM     21  H   UNL     1      20.109  12.848  -0.159  0.00  0.00    +0.295 HD
ENDBRANCH  18  20
ENDBRANCH  17  18
ENDBRANCH  16  17
ENDBRANCH  15  16
ENDBRANCH  14  15
ENDBRANCH  13  14
ENDBRANCH  11  13
ENDBRANCH   7   9
ENDBRANCH   6   7
ENDBRANCH   5   6
ENDBRANCH   1   5
BRANCH   2  22
ATOM     22  C   UNL     1      26.880  15.712  -2.139  0.00  0.00    +0.152 C 
BRANCH  22  23
ATOM     23  C   UNL     1      26.102  16.404  -3.278  0.00  0.00    +0.193 C 
ATOM     24  O   UNL     1      27.018  17.332  -3.902  0.00  0.00    -0.219 OA
BRANCH  23  25
ATOM     25  C   UNL     1      25.598  15.520  -4.440  0.00  0.00    +0.212 C 
ATOM     26  O   UNL     1      26.375  15.758  -5.625  0.00  0.00    -0.218 OA
BRANCH  25  27
ATOM     27  C   UNL     1      25.637  13.978  -4.113  0.00  0.00    +0.171 C 
ATOM     28  O   UNL     1      26.591  13.275  -4.902  0.00  0.00    -0.343 OA
ATOM     29  C   UNL     1      26.665  11.883  -4.994  0.00  0.00    +0.220 C 
ATOM     30  C   UNL     1      25.297  11.260  -5.320  0.00  0.00    +0.076 C 
ATOM     31  C   UNL     1      24.289  11.787  -4.285  0.00  0.00    +0.177 C 
ATOM     32  O   UNL     1      23.013  11.209  -4.517  0.00  0.00    -0.221 OA
ATOM     33  C   UNL     1      24.225  13.345  -4.343  0.00  0.00    +0.155 C 
BRANCH  33  34
ATOM     34  N   UNL     1      23.264  13.850  -3.366  0.00  0.00    -0.202 NA
ATOM     35  C   UNL     1      22.112  14.540  -3.559  0.00  0.00    +0.242 C 
ATOM     36  C   UNL     1      21.160  14.681  -2.400  0.00  0.00    +0.096 C 
ATOM     37  O   UNL     1      21.872  15.027  -4.662  0.00  0.00    -0.273 OA
ENDBRANCH  33  34
BRANCH  29  38
ATOM     38  C   UNL     1      27.346  11.184  -3.695  0.00  0.00    +0.391 C 
ATOM     39  O   UNL     1      27.093   9.868  -3.837  0.00  0.00    -0.243 OA
ATOM     40  O   UNL     1      28.140  12.112  -3.149  0.00  0.00    -0.243 OA
ENDBRANCH  29  38
ENDBRANCH  25  27
ENDBRANCH  23  25
ENDBRANCH  22  23
ENDBRANCH   2  22
TORSDOF 17
