REMARK VINA RESULT:    -7.223      3.083      8.037
REMARK INTER + INTRA:         -15.475
REMARK INTER:                 -11.958
REMARK INTRA:                  -3.517
REMARK UNBOUND:                -2.551
REMARK  Name = lig_assembled_64.pdb
REMARK  14 active torsions:
REMARK  status: ('A' for Active; 'I' for Inactive)
REMARK    1  A    between atoms: _2  and  _9
REMARK    2  A    between atoms: _6  and  _7
REMARK    3  A    between atoms: _6  and  _22
REMARK    4  A    between atoms: _11  and  _12
REMARK    5  A    between atoms: _12  and  _20
REMARK    6  A    between atoms: _13  and  _14
REMARK    7  A    between atoms: _22  and  _24
REMARK    8  A    between atoms: _23  and  _28
REMARK    9  A    between atoms: _24  and  _27
REMARK   10  A    between atoms: _32  and  _42
REMARK   11  A    between atoms: _34  and  _35
REMARK   12  A    between atoms: _36  and  _38
REMARK   13  A    between atoms: _38  and  _40
REMARK   14  A    between atoms: _40  and  _42
REMARK                            x       y       z     vdW  Elec       q    Type
REMARK                         _______ _______ _______ _____ _____    ______ ____
ROOT
ATOM      1  O   UNL     1      26.473  16.093  -3.028  0.00  0.00    -0.450 OA
ENDROOT
BRANCH   1   2
ATOM      2  C   UNL     1      25.326  15.533  -2.823  0.00  0.00    +0.400 C 
ATOM      3  N   UNL     1      25.340  14.437  -1.992  0.00  0.00    -0.278 N 
ATOM      4  H   UNL     1      24.303  14.257  -1.803  0.00  0.00    +0.152 HD
ATOM      5  O   UNL     1      24.246  15.905  -3.273  0.00  0.00    -0.226 OA
BRANCH   3   6
ATOM      6  C   UNL     1      26.116  13.425  -1.280  0.00  0.00    +0.152 C 
BRANCH   6   7
ATOM      7  C   UNL     1      26.173  12.029  -1.934  0.00  0.00    +0.193 C 
ATOM      8  O   UNL     1      27.539  11.823  -2.357  0.00  0.00    -0.219 OA
BRANCH   7   9
ATOM      9  C   UNL     1      25.858  10.808  -1.042  0.00  0.00    +0.212 C 
ATOM     10  O   UNL     1      26.710   9.703  -1.384  0.00  0.00    -0.218 OA
BRANCH   9  11
ATOM     11  C   UNL     1      26.013  11.104   0.499  0.00  0.00    +0.171 C 
ATOM     12  O   UNL     1      27.168  10.490   1.062  0.00  0.00    -0.343 OA
ATOM     13  C   UNL     1      27.415  10.385   2.432  0.00  0.00    +0.220 C 
ATOM     14  C   UNL     1      26.209   9.800   3.187  0.00  0.00    +0.076 C 
ATOM     15  C   UNL     1      24.978  10.643   2.814  0.00  0.00    +0.177 C 
ATOM     16  O   UNL     1      23.838  10.168   3.517  0.00  0.00    -0.221 OA
ATOM     17  C   UNL     1      24.748  10.606   1.271  0.00  0.00    +0.155 C 
BRANCH  17  18
ATOM     18  N   UNL     1      23.575  11.400   0.914  0.00  0.00    -0.202 NA
ATOM     19  C   UNL     1      22.336  10.995   0.533  0.00  0.00    +0.242 C 
ATOM     20  C   UNL     1      21.227  12.015   0.509  0.00  0.00    +0.096 C 
ATOM     21  O   UNL     1      22.150   9.821   0.222  0.00  0.00    -0.273 OA
ENDBRANCH  17  18
BRANCH  13  22
ATOM     22  C   UNL     1      27.926  11.772   3.106  0.00  0.00    +0.391 C 
ATOM     23  O   UNL     1      27.773  12.703   2.145  0.00  0.00    -0.243 OA
ATOM     24  O   UNL     1      28.015  11.533   4.421  0.00  0.00    -0.243 OA
ENDBRANCH  13  22
ENDBRANCH   9  11
ENDBRANCH   7   9
ENDBRANCH   6   7
ENDBRANCH   3   6
ENDBRANCH   1   2
BRANCH   1  25
ATOM     25  C   UNL     1      27.075  17.362  -2.922  0.00  0.00    +0.240 C 
BRANCH  25  26
ATOM     26  C   UNL     1      27.403  17.878  -1.508  0.00  0.00    +0.100 C 
BRANCH  26  28
ATOM     27  N   UNL     1      29.717  17.645  -0.645  0.00  0.00    -0.134 NA
ATOM     28  C   UNL     1      28.499  17.090  -0.911  0.00  0.00    +0.086 A 
ATOM     29  C   UNL     1      28.517  15.768  -0.537  0.00  0.00    +0.139 A 
ATOM     30  N   UNL     1      29.784  15.552  -0.049  0.00  0.00    -0.220 N 
ATOM     31  N   UNL     1      30.494  16.705  -0.119  0.00  0.00    -0.061 NA
BRANCH  30  32
ATOM     32  C   UNL     1      30.338  14.356   0.467  0.00  0.00    +0.071 A 
ATOM     33  C   UNL     1      30.218  13.165  -0.242  0.00  0.00    +0.063 A 
ATOM     34  CA  UNL     1      30.780  12.034   0.315  0.00  0.00    +0.150 A 
ATOM     35  N   UNL     1      31.437  11.996   1.509  0.00  0.00    -0.240 NA
ATOM     36  C   UNL     1      31.539  13.164   2.202  0.00  0.00    +0.074 A 
ATOM     37  C   UNL     1      31.011  14.357   1.698  0.00  0.00    +0.056 A 
BRANCH  36  38
ATOM     38  C   UNL     1      32.216  13.069   3.518  0.00  0.00    +0.000 A 
ATOM     39  C   UNL     1      33.419  13.748   3.791  0.00  0.00    +0.010 A 
ATOM     40  C   UNL     1      34.031  13.681   5.048  0.00  0.00    +0.001 A 
ATOM     41  C   UNL     1      33.450  12.933   6.068  0.00  0.00    +0.000 A 
ATOM     42  C   UNL     1      32.266  12.246   5.827  0.00  0.00    +0.001 A 
ATOM     43  C   UNL     1      31.659  12.313   4.568  0.00  0.00    +0.010 A 
ENDBRANCH  36  38
BRANCH  34  44
ATOM     44  C   UNL     1      30.674  10.734  -0.410  0.00  0.00    +0.355 C 
ATOM     45  OXT UNL     1      31.627  10.075  -0.787  0.00  0.00    -0.243 OA
BRANCH  44  46
ATOM     46  O   UNL     1      29.378  10.390  -0.591  0.00  0.00    -0.476 OA
ATOM     47  H   UNL     1      29.259   9.447  -0.336  0.00  0.00    +0.295 HD
ENDBRANCH  44  46
ENDBRANCH  34  44
ENDBRANCH  30  32
ENDBRANCH  26  28
ENDBRANCH  25  26
ENDBRANCH   1  25
TORSDOF 14
