REMARK VINA RESULT:    -6.696      4.026      8.165
REMARK INTER + INTRA:         -13.000
REMARK INTER:                 -11.883
REMARK INTRA:                  -1.118
REMARK UNBOUND:                -1.999
REMARK  Name = lig_assembled_57.pdb
REMARK  12 active torsions:
REMARK  status: ('A' for Active; 'I' for Inactive)
REMARK    1  A    between atoms: _2  and  _9
REMARK    2  A    between atoms: _3  and  _12
REMARK    3  A    between atoms: _6  and  _7
REMARK    4  A    between atoms: _6  and  _14
REMARK    5  A    between atoms: _14  and  _16
REMARK    6  A    between atoms: _15  and  _20
REMARK    7  A    between atoms: _16  and  _19
REMARK    8  A    between atoms: _24  and  _34
REMARK    9  A    between atoms: _26  and  _27
REMARK   10  A    between atoms: _28  and  _30
REMARK   11  A    between atoms: _30  and  _32
REMARK   12  A    between atoms: _32  and  _34
REMARK                            x       y       z     vdW  Elec       q    Type
REMARK                         _______ _______ _______ _____ _____    ______ ____
ROOT
ATOM      1  C   UNL     1      28.863  17.002  -0.465  0.00  0.00    +0.400 C 
ATOM      2  N   UNL     1      29.277  15.901   0.247  0.00  0.00    -0.278 N 
ATOM      3  H   UNL     1      29.985  16.306   0.938  0.00  0.00    +0.152 HD
ATOM      4  O   UNL     1      29.210  18.112  -0.070  0.00  0.00    -0.226 OA
ENDROOT
BRANCH   1   5
ATOM      5  O   UNL     1      28.160  16.753  -1.521  0.00  0.00    -0.450 OA
BRANCH   5   6
ATOM      6  C   UNL     1      27.078  17.301  -2.238  0.00  0.00    +0.240 C 
BRANCH   6   7
ATOM      7  C   UNL     1      27.087  17.142  -3.771  0.00  0.00    +0.100 C 
BRANCH   7   9
ATOM      8  N   UNL     1      26.047  15.642  -5.434  0.00  0.00    -0.134 NA
ATOM      9  C   UNL     1      26.036  16.197  -4.185  0.00  0.00    +0.086 A 
ATOM     10  C   UNL     1      24.957  15.704  -3.482  0.00  0.00    +0.134 A 
ATOM     11  N   UNL     1      24.401  14.786  -4.324  0.00  0.00    -0.248 N 
ATOM     12  N   UNL     1      25.021  14.810  -5.522  0.00  0.00    -0.065 NA
BRANCH  11  13
ATOM     13  C   UNL     1      23.348  13.802  -4.106  0.00  0.00    +0.111 C 
ATOM     14  C   UNL     1      23.382  13.281  -2.662  0.00  0.00    +0.042 C 
ATOM     15  C   UNL     1      22.834  14.333  -1.700  0.00  0.00    +0.086 C 
ATOM     16  N   UNL     1      21.456  14.729  -2.009  0.00  0.00    -0.305 NA
ATOM     17  C   UNL     1      21.298  15.176  -3.394  0.00  0.00    +0.086 C 
ATOM     18  C   UNL     1      20.487  13.707  -1.629  0.00  0.00    +0.104 C 
ATOM     19  C   UNL     1      21.918  14.249  -4.450  0.00  0.00    +0.042 C 
ENDBRANCH  11  13
ENDBRANCH   7   9
ENDBRANCH   6   7
ENDBRANCH   5   6
ENDBRANCH   1   5
BRANCH   2  20
ATOM     20  C   UNL     1      29.175  14.464   0.487  0.00  0.00    +0.152 C 
BRANCH  20  21
ATOM     21  C   UNL     1      30.004  13.559  -0.447  0.00  0.00    +0.193 C 
ATOM     22  O   UNL     1      29.536  13.811  -1.791  0.00  0.00    -0.219 OA
BRANCH  21  23
ATOM     23  C   UNL     1      31.527  13.806  -0.516  0.00  0.00    +0.212 C 
ATOM     24  O   UNL     1      31.800  15.198  -0.743  0.00  0.00    -0.218 OA
BRANCH  23  25
ATOM     25  C   UNL     1      32.293  13.347   0.783  0.00  0.00    +0.171 C 
ATOM     26  O   UNL     1      32.114  14.247   1.871  0.00  0.00    -0.343 OA
ATOM     27  C   UNL     1      32.863  14.218   3.050  0.00  0.00    +0.220 C 
ATOM     28  C   UNL     1      34.374  14.186   2.764  0.00  0.00    +0.076 C 
ATOM     29  C   UNL     1      34.639  13.018   1.800  0.00  0.00    +0.177 C 
ATOM     30  O   UNL     1      36.031  12.919   1.534  0.00  0.00    -0.221 OA
ATOM     31  C   UNL     1      33.822  13.212   0.485  0.00  0.00    +0.155 C 
BRANCH  31  32
ATOM     32  N   UNL     1      34.076  12.107  -0.437  0.00  0.00    -0.202 NA
ATOM     33  C   UNL     1      34.667  12.115  -1.659  0.00  0.00    +0.242 C 
ATOM     34  C   UNL     1      35.069  10.797  -2.268  0.00  0.00    +0.096 C 
ATOM     35  O   UNL     1      34.860  13.185  -2.234  0.00  0.00    -0.273 OA
ENDBRANCH  31  32
BRANCH  27  36
ATOM     36  C   UNL     1      32.422  13.030   4.067  0.00  0.00    +0.391 C 
ATOM     37  O   UNL     1      33.421  12.956   4.969  0.00  0.00    -0.243 OA
ATOM     38  O   UNL     1      31.130  12.787   3.815  0.00  0.00    -0.243 OA
ENDBRANCH  27  36
ENDBRANCH  23  25
ENDBRANCH  21  23
ENDBRANCH  20  21
ENDBRANCH   2  20
TORSDOF 11
