REMARK VINA RESULT:    -6.602      1.448      2.276
REMARK INTER + INTRA:         -13.890
REMARK INTER:                 -12.366
REMARK INTRA:                  -1.524
REMARK UNBOUND:                -2.657
REMARK  Name = lig_assembled_46.pdb
REMARK  12 active torsions:
REMARK  status: ('A' for Active; 'I' for Inactive)
REMARK    1  A    between atoms: _2  and  _8
REMARK    2  A    between atoms: _5  and  _6
REMARK    3  A    between atoms: _5  and  _14
REMARK    4  A    between atoms: _8  and  _9
REMARK    5  A    between atoms: _14  and  _16
REMARK    6  A    between atoms: _15  and  _20
REMARK    7  A    between atoms: _16  and  _19
REMARK    8  A    between atoms: _24  and  _34
REMARK    9  A    between atoms: _26  and  _27
REMARK   10  A    between atoms: _28  and  _30
REMARK   11  A    between atoms: _30  and  _32
REMARK   12  A    between atoms: _32  and  _34
REMARK                            x       y       z     vdW  Elec       q    Type
REMARK                         _______ _______ _______ _____ _____    ______ ____
ROOT
ATOM      1  C   UNL     1      27.694  17.423  -1.567  0.00  0.00    +0.400 C 
ATOM      2  N   UNL     1      28.072  16.310  -0.855  0.00  0.00    -0.278 N 
ATOM      3  H   UNL     1      28.265  16.696   0.123  0.00  0.00    +0.152 HD
ATOM      4  O   UNL     1      27.495  18.466  -0.950  0.00  0.00    -0.226 OA
ENDROOT
BRANCH   2   5
ATOM      5  C   UNL     1      28.309  14.869  -0.831  0.00  0.00    +0.152 C 
BRANCH   5   6
ATOM      6  C   UNL     1      29.273  14.356   0.258  0.00  0.00    +0.193 C 
ATOM      7  O   UNL     1      29.386  12.927   0.073  0.00  0.00    -0.219 OA
BRANCH   6   8
ATOM      8  C   UNL     1      30.730  14.866   0.221  0.00  0.00    +0.212 C 
ATOM      9  O   UNL     1      30.792  16.239   0.641  0.00  0.00    -0.218 OA
BRANCH   8  10
ATOM     10  C   UNL     1      31.711  14.020   1.119  0.00  0.00    +0.171 C 
ATOM     11  O   UNL     1      31.918  14.601   2.403  0.00  0.00    -0.343 OA
ATOM     12  C   UNL     1      32.912  14.201   3.298  0.00  0.00    +0.220 C 
ATOM     13  C   UNL     1      34.295  14.142   2.626  0.00  0.00    +0.076 C 
ATOM     14  C   UNL     1      34.163  13.264   1.371  0.00  0.00    +0.177 C 
ATOM     15  O   UNL     1      35.426  13.144   0.732  0.00  0.00    -0.221 OA
ATOM     16  C   UNL     1      33.094  13.864   0.406  0.00  0.00    +0.155 C 
BRANCH  16  17
ATOM     17  N   UNL     1      32.970  13.036  -0.791  0.00  0.00    -0.202 NA
ATOM     18  C   UNL     1      33.142  13.366  -2.097  0.00  0.00    +0.242 C 
ATOM     19  C   UNL     1      33.243  12.255  -3.109  0.00  0.00    +0.096 C 
ATOM     20  O   UNL     1      33.212  14.551  -2.420  0.00  0.00    -0.273 OA
ENDBRANCH  16  17
BRANCH  12  21
ATOM     21  C   UNL     1      32.566  12.816   4.073  0.00  0.00    +0.391 C 
ATOM     22  O   UNL     1      33.730  12.430   4.632  0.00  0.00    -0.243 OA
ATOM     23  O   UNL     1      31.230  12.742   4.120  0.00  0.00    -0.243 OA
ENDBRANCH  12  21
ENDBRANCH   8  10
ENDBRANCH   6   8
ENDBRANCH   5   6
ENDBRANCH   2   5
BRANCH   1  24
ATOM     24  O   UNL     1      27.614  17.268  -2.848  0.00  0.00    -0.450 OA
BRANCH  24  25
ATOM     25  C   UNL     1      26.634  17.082  -3.842  0.00  0.00    +0.240 C 
BRANCH  25  26
ATOM     26  C   UNL     1      26.405  15.647  -4.356  0.00  0.00    +0.100 C 
BRANCH  26  28
ATOM     27  N   UNL     1      24.382  14.315  -4.870  0.00  0.00    -0.134 NA
ATOM     28  C   UNL     1      25.030  15.208  -4.057  0.00  0.00    +0.086 A 
ATOM     29  C   UNL     1      24.210  15.526  -2.996  0.00  0.00    +0.134 A 
ATOM     30  N   UNL     1      23.102  14.752  -3.189  0.00  0.00    -0.247 N 
ATOM     31  N   UNL     1      23.206  14.036  -4.326  0.00  0.00    -0.065 NA
BRANCH  30  32
ATOM     32  C   UNL     1      22.049  14.459  -2.232  0.00  0.00    +0.180 C 
BRANCH  32  33
ATOM     33  C   UNL     1      20.661  14.744  -2.749  0.00  0.00    -0.026 A 
ATOM     34  C   UNL     1      19.568  13.958  -2.354  0.00  0.00    +0.005 A 
ATOM     35  C   UNL     1      18.272  14.289  -2.761  0.00  0.00    +0.000 A 
ATOM     36  C   UNL     1      18.056  15.407  -3.565  0.00  0.00    +0.000 A 
ATOM     37  C   UNL     1      19.133  16.190  -3.971  0.00  0.00    +0.000 A 
ATOM     38  C   UNL     1      20.429  15.862  -3.565  0.00  0.00    +0.005 A 
ENDBRANCH  32  33
ENDBRANCH  30  32
ENDBRANCH  26  28
ENDBRANCH  25  26
ENDBRANCH  24  25
ENDBRANCH   1  24
TORSDOF 12
