REMARK VINA RESULT:    -6.545      2.246      3.488
REMARK INTER + INTRA:         -14.037
REMARK INTER:                 -12.117
REMARK INTRA:                  -1.920
REMARK UNBOUND:                -2.327
REMARK  Name = lig_assembled_68.pdb
REMARK  14 active torsions:
REMARK  status: ('A' for Active; 'I' for Inactive)
REMARK    1  A    between atoms: _2  and  _8
REMARK    2  A    between atoms: _5  and  _6
REMARK    3  A    between atoms: _5  and  _16
REMARK    4  A    between atoms: _8  and  _9
REMARK    5  A    between atoms: _9  and  _10
REMARK    6  A    between atoms: _9  and  _15
REMARK    7  A    between atoms: _16  and  _18
REMARK    8  A    between atoms: _17  and  _22
REMARK    9  A    between atoms: _18  and  _21
REMARK   10  A    between atoms: _26  and  _36
REMARK   11  A    between atoms: _28  and  _29
REMARK   12  A    between atoms: _30  and  _32
REMARK   13  A    between atoms: _32  and  _34
REMARK   14  A    between atoms: _34  and  _36
REMARK                            x       y       z     vdW  Elec       q    Type
REMARK                         _______ _______ _______ _____ _____    ______ ____
ROOT
ATOM      1  C   UNL     1      27.908  17.325  -1.068  0.00  0.00    +0.400 C 
ATOM      2  N   UNL     1      28.096  15.977  -0.872  0.00  0.00    -0.278 N 
ATOM      3  H   UNL     1      28.523  15.926   0.106  0.00  0.00    +0.152 HD
ATOM      4  O   UNL     1      28.072  18.078  -0.110  0.00  0.00    -0.226 OA
ENDROOT
BRANCH   2   5
ATOM      5  C   UNL     1      27.963  14.616  -1.384  0.00  0.00    +0.152 C 
BRANCH   5   6
ATOM      6  C   UNL     1      28.044  13.485  -0.337  0.00  0.00    +0.193 C 
ATOM      7  O   UNL     1      28.066  12.241  -1.071  0.00  0.00    -0.219 OA
BRANCH   6   8
ATOM      8  C   UNL     1      29.302  13.428   0.557  0.00  0.00    +0.212 C 
ATOM      9  O   UNL     1      29.557  14.712   1.148  0.00  0.00    -0.218 OA
BRANCH   8  10
ATOM     10  C   UNL     1      29.203  12.354   1.706  0.00  0.00    +0.171 C 
ATOM     11  O   UNL     1      27.885  12.234   2.231  0.00  0.00    -0.343 OA
ATOM     12  C   UNL     1      27.563  11.546   3.404  0.00  0.00    +0.220 C 
ATOM     13  C   UNL     1      28.456  11.977   4.581  0.00  0.00    +0.076 C 
ATOM     14  C   UNL     1      29.918  11.835   4.128  0.00  0.00    +0.177 C 
ATOM     15  O   UNL     1      30.789  12.184   5.195  0.00  0.00    -0.221 OA
ATOM     16  C   UNL     1      30.180  12.722   2.871  0.00  0.00    +0.155 C 
BRANCH  16  17
ATOM     17  N   UNL     1      31.570  12.595   2.442  0.00  0.00    -0.202 NA
ATOM     18  C   UNL     1      32.597  13.476   2.555  0.00  0.00    +0.242 C 
ATOM     19  C   UNL     1      33.996  12.981   2.296  0.00  0.00    +0.096 C 
ATOM     20  O   UNL     1      32.365  14.644   2.863  0.00  0.00    -0.273 OA
ENDBRANCH  16  17
BRANCH  12  21
ATOM     21  C   UNL     1      27.549   9.932   3.224  0.00  0.00    +0.391 C 
ATOM     22  O   UNL     1      27.289   9.448   4.454  0.00  0.00    -0.243 OA
ATOM     23  O   UNL     1      27.499   9.707   1.906  0.00  0.00    -0.243 OA
ENDBRANCH  12  21
ENDBRANCH   8  10
ENDBRANCH   6   8
ENDBRANCH   5   6
ENDBRANCH   2   5
BRANCH   1  24
ATOM     24  O   UNL     1      27.602  17.679  -2.272  0.00  0.00    -0.450 OA
BRANCH  24  25
ATOM     25  C   UNL     1      26.565  17.496  -3.208  0.00  0.00    +0.240 C 
BRANCH  25  26
ATOM     26  C   UNL     1      26.796  16.471  -4.334  0.00  0.00    +0.100 C 
BRANCH  26  28
ATOM     27  N   UNL     1      25.402  14.946  -5.705  0.00  0.00    -0.134 NA
ATOM     28  C   UNL     1      25.587  15.657  -4.547  0.00  0.00    +0.086 A 
ATOM     29  C   UNL     1      24.500  15.464  -3.725  0.00  0.00    +0.133 A 
ATOM     30  N   UNL     1      23.695  14.623  -4.435  0.00  0.00    -0.249 N 
ATOM     31  N   UNL     1      24.234  14.322  -5.629  0.00  0.00    -0.065 NA
BRANCH  30  32
ATOM     32  C   UNL     1      22.371  14.155  -4.082  0.00  0.00    +0.181 C 
BRANCH  32  33
ATOM     33  C   UNL     1      21.888  14.736  -2.747  0.00  0.00    +0.166 C 
BRANCH  33  34
ATOM     34  C   UNL     1      21.833  13.729  -1.607  0.00  0.00    -0.017 A 
ATOM     35  C   UNL     1      22.952  12.910  -1.371  0.00  0.00    +0.006 A 
ATOM     36  C   UNL     1      22.954  11.990  -0.320  0.00  0.00    +0.000 A 
ATOM     37  C   UNL     1      21.845  11.878   0.512  0.00  0.00    +0.000 A 
ATOM     38  C   UNL     1      20.738  12.693   0.305  0.00  0.00    +0.000 A 
ATOM     39  C   UNL     1      20.733  13.616  -0.746  0.00  0.00    +0.006 A 
ENDBRANCH  33  34
BRANCH  33  40
ATOM     40  O   UNL     1      20.574  15.278  -2.922  0.00  0.00    -0.385 OA
ATOM     41  H   UNL     1      20.272  15.057  -3.819  0.00  0.00    +0.210 HD
ENDBRANCH  33  40
ENDBRANCH  32  33
ENDBRANCH  30  32
ENDBRANCH  26  28
ENDBRANCH  25  26
ENDBRANCH  24  25
ENDBRANCH   1  24
TORSDOF 14
