REMARK VINA RESULT:    -6.849      2.670      4.939
REMARK INTER + INTRA:         -14.166
REMARK INTER:                 -13.092
REMARK INTRA:                  -1.074
REMARK UNBOUND:                -2.513
REMARK  Name = lig_assembled_28.pdb
REMARK  12 active torsions:
REMARK  status: ('A' for Active; 'I' for Inactive)
REMARK    1  A    between atoms: _2  and  _8
REMARK    2  A    between atoms: _5  and  _6
REMARK    3  A    between atoms: _5  and  _17
REMARK    4  A    between atoms: _8  and  _9
REMARK    5  A    between atoms: _17  and  _19
REMARK    6  A    between atoms: _18  and  _23
REMARK    7  A    between atoms: _19  and  _22
REMARK    8  A    between atoms: _27  and  _37
REMARK    9  A    between atoms: _29  and  _30
REMARK   10  A    between atoms: _31  and  _33
REMARK   11  A    between atoms: _33  and  _35
REMARK   12  A    between atoms: _35  and  _37
REMARK                            x       y       z     vdW  Elec       q    Type
REMARK                         _______ _______ _______ _____ _____    ______ ____
ROOT
ATOM      1  C   UNL     1      31.892  15.513  -0.337  0.00  0.00    +0.400 C 
ATOM      2  N   UNL     1      31.916  14.846   0.865  0.00  0.00    -0.278 N 
ATOM      3  H   UNL     1      32.509  13.981   0.657  0.00  0.00    +0.152 HD
ATOM      4  O   UNL     1      32.633  15.117  -1.234  0.00  0.00    -0.226 OA
ENDROOT
BRANCH   2   5
ATOM      5  C   UNL     1      31.517  14.798   2.269  0.00  0.00    +0.152 C 
BRANCH   5   6
ATOM      6  C   UNL     1      30.537  13.673   2.659  0.00  0.00    +0.193 C 
ATOM      7  O   UNL     1      30.421  12.806   1.509  0.00  0.00    -0.219 OA
BRANCH   6   8
ATOM      8  C   UNL     1      30.950  12.731   3.811  0.00  0.00    +0.212 C 
ATOM      9  O   UNL     1      30.644  11.367   3.478  0.00  0.00    -0.218 OA
BRANCH   8  10
ATOM     10  C   UNL     1      32.480  12.829   4.179  0.00  0.00    +0.171 C 
ATOM     11  O   UNL     1      33.328  12.464   3.095  0.00  0.00    -0.343 OA
ATOM     12  C   UNL     1      34.700  12.228   3.213  0.00  0.00    +0.220 C 
ATOM     13  C   UNL     1      35.013  11.243   4.353  0.00  0.00    +0.076 C 
ATOM     14  C   UNL     1      34.337  11.778   5.626  0.00  0.00    +0.177 C 
ATOM     15  O   UNL     1      34.629  10.924   6.722  0.00  0.00    -0.221 OA
ATOM     16  C   UNL     1      32.798  11.909   5.402  0.00  0.00    +0.155 C 
BRANCH  16  17
ATOM     17  N   UNL     1      32.151  12.410   6.612  0.00  0.00    -0.202 NA
ATOM     18  C   UNL     1      31.291  11.788   7.458  0.00  0.00    +0.242 C 
ATOM     19  C   UNL     1      31.004  12.433   8.789  0.00  0.00    +0.096 C 
ATOM     20  O   UNL     1      30.773  10.724   7.123  0.00  0.00    -0.273 OA
ENDBRANCH  16  17
BRANCH  12  21
ATOM     21  C   UNL     1      35.582  13.587   3.338  0.00  0.00    +0.391 C 
ATOM     22  O   UNL     1      36.857  13.191   3.153  0.00  0.00    -0.243 OA
ATOM     23  O   UNL     1      34.711  14.601   3.275  0.00  0.00    -0.243 OA
ENDBRANCH  12  21
ENDBRANCH   8  10
ENDBRANCH   6   8
ENDBRANCH   5   6
ENDBRANCH   2   5
BRANCH   1  24
ATOM     24  O   UNL     1      31.053  16.492  -0.418  0.00  0.00    -0.450 OA
BRANCH  24  25
ATOM     25  C   UNL     1      29.731  16.800  -0.039  0.00  0.00    +0.240 C 
BRANCH  25  26
ATOM     26  C   UNL     1      28.956  17.803  -0.915  0.00  0.00    +0.100 C 
BRANCH  26  28
ATOM     27  N   UNL     1      27.121  17.771  -2.581  0.00  0.00    -0.134 NA
ATOM     28  C   UNL     1      27.875  17.116  -1.645  0.00  0.00    +0.086 A 
ATOM     29  C   UNL     1      27.462  15.805  -1.573  0.00  0.00    +0.134 A 
ATOM     30  N   UNL     1      26.523  15.696  -2.558  0.00  0.00    -0.247 N 
ATOM     31  N   UNL     1      26.286  16.895  -3.126  0.00  0.00    -0.065 NA
BRANCH  30  32
ATOM     32  C   UNL     1      25.858  14.520  -3.104  0.00  0.00    +0.180 C 
BRANCH  32  33
ATOM     33  C   UNL     1      24.661  14.072  -2.296  0.00  0.00    -0.022 A 
ATOM     34  C   UNL     1      23.418  14.706  -2.463  0.00  0.00    +0.055 A 
ATOM     35  C   UNL     1      22.332  14.188  -1.791  0.00  0.00    +0.167 A 
ATOM     36  O   UNL     1      21.053  14.643  -1.883  0.00  0.00    -0.453 OA
ATOM     37  C   UNL     1      20.361  13.658  -1.086  0.00  0.00    +0.466 C 
ATOM     38  O   UNL     1      21.249  12.735  -0.419  0.00  0.00    -0.453 OA
ATOM     39  C   UNL     1      22.442  13.103  -0.957  0.00  0.00    +0.166 A 
ATOM     40  C   UNL     1      23.652  12.477  -0.740  0.00  0.00    +0.050 A 
ATOM     41  C   UNL     1      24.769  12.964  -1.424  0.00  0.00    +0.009 A 
ENDBRANCH  32  33
ENDBRANCH  30  32
ENDBRANCH  26  28
ENDBRANCH  25  26
ENDBRANCH  24  25
ENDBRANCH   1  24
TORSDOF 12
