REMARK VINA RESULT:    -7.292      1.366      1.967
REMARK INTER + INTRA:         -13.815
REMARK INTER:                 -12.155
REMARK INTRA:                  -1.660
REMARK UNBOUND:                -1.407
REMARK  Name = lig_assembled_82.pdb
REMARK  14 active torsions:
REMARK  status: ('A' for Active; 'I' for Inactive)
REMARK    1  A    between atoms: _2  and  _8
REMARK    2  A    between atoms: _4  and  _15
REMARK    3  A    between atoms: _5  and  _6
REMARK    4  A    between atoms: _5  and  _17
REMARK    5  A    between atoms: _8  and  _9
REMARK    6  A    between atoms: _15  and  _16
REMARK    7  A    between atoms: _17  and  _19
REMARK    8  A    between atoms: _18  and  _23
REMARK    9  A    between atoms: _19  and  _22
REMARK   10  A    between atoms: _27  and  _37
REMARK   11  A    between atoms: _29  and  _30
REMARK   12  A    between atoms: _31  and  _33
REMARK   13  A    between atoms: _33  and  _35
REMARK   14  A    between atoms: _35  and  _37
REMARK                            x       y       z     vdW  Elec       q    Type
REMARK                         _______ _______ _______ _____ _____    ______ ____
ROOT
ATOM      1  C   UNL     1      27.904  17.286  -1.067  0.00  0.00    +0.400 C 
ATOM      2  N   UNL     1      28.272  16.240  -0.255  0.00  0.00    -0.278 N 
ATOM      3  H   UNL     1      28.455  16.710   0.687  0.00  0.00    +0.152 HD
ATOM      4  O   UNL     1      27.699  18.380  -0.546  0.00  0.00    -0.226 OA
ENDROOT
BRANCH   2   5
ATOM      5  C   UNL     1      28.506  14.806  -0.102  0.00  0.00    +0.152 C 
BRANCH   5   6
ATOM      6  C   UNL     1      29.567  14.398   0.942  0.00  0.00    +0.193 C 
ATOM      7  O   UNL     1      29.656  12.957   0.901  0.00  0.00    -0.219 OA
BRANCH   6   8
ATOM      8  C   UNL     1      31.016  14.881   0.714  0.00  0.00    +0.212 C 
ATOM      9  O   UNL     1      31.145  16.267   1.068  0.00  0.00    -0.218 OA
BRANCH   8  10
ATOM     10  C   UNL     1      32.085  14.052   1.524  0.00  0.00    +0.171 C 
ATOM     11  O   UNL     1      32.428  14.665   2.763  0.00  0.00    -0.343 OA
ATOM     12  C   UNL     1      33.511  14.282   3.558  0.00  0.00    +0.220 C 
ATOM     13  C   UNL     1      34.815  14.199   2.745  0.00  0.00    +0.076 C 
ATOM     14  C   UNL     1      34.548  13.290   1.534  0.00  0.00    +0.177 C 
ATOM     15  O   UNL     1      35.735  13.147   0.767  0.00  0.00    -0.221 OA
ATOM     16  C   UNL     1      33.384  13.871   0.672  0.00  0.00    +0.155 C 
BRANCH  16  17
ATOM     17  N   UNL     1      33.131  13.014  -0.483  0.00  0.00    -0.202 NA
ATOM     18  C   UNL     1      32.603  11.765  -0.538  0.00  0.00    +0.242 C 
ATOM     19  C   UNL     1      32.179  11.226  -1.880  0.00  0.00    +0.096 C 
ATOM     20  O   UNL     1      32.482  11.110   0.495  0.00  0.00    -0.273 OA
ENDBRANCH  16  17
BRANCH  12  21
ATOM     21  C   UNL     1      33.246  12.919   4.400  0.00  0.00    +0.391 C 
ATOM     22  O   UNL     1      34.426  12.637   4.986  0.00  0.00    -0.243 OA
ATOM     23  O   UNL     1      31.917  12.763   4.442  0.00  0.00    -0.243 OA
ENDBRANCH  12  21
ENDBRANCH   8  10
ENDBRANCH   6   8
ENDBRANCH   5   6
ENDBRANCH   2   5
BRANCH   1  24
ATOM     24  O   UNL     1      27.839  17.018  -2.330  0.00  0.00    -0.450 OA
BRANCH  24  25
ATOM     25  C   UNL     1      27.101  17.402  -3.467  0.00  0.00    +0.240 C 
BRANCH  25  26
ATOM     26  C   UNL     1      25.821  16.607  -3.786  0.00  0.00    +0.100 C 
BRANCH  26  28
ATOM     27  N   UNL     1      26.628  14.284  -4.055  0.00  0.00    -0.134 NA
ATOM     28  C   UNL     1      25.937  15.221  -3.323  0.00  0.00    +0.086 A 
ATOM     29  C   UNL     1      25.432  14.607  -2.192  0.00  0.00    +0.134 A 
ATOM     30  N   UNL     1      25.738  13.286  -2.364  0.00  0.00    -0.247 N 
ATOM     31  N   UNL     1      26.531  13.115  -3.438  0.00  0.00    -0.065 NA
BRANCH  30  32
ATOM     32  C   UNL     1      25.243  12.130  -1.612  0.00  0.00    +0.176 C 
BRANCH  32  33
ATOM     33  C   UNL     1      23.755  11.931  -1.767  0.00  0.00    -0.049 C 
ATOM     34  C   UNL     1      22.967  11.588  -0.543  0.00  0.00    +0.023 C 
ATOM     35  C   UNL     1      21.494  12.183  -0.399  0.00  0.00    -0.025 C 
ATOM     36  C   UNL     1      20.893  13.514  -0.865  0.00  0.00    +0.012 C 
ATOM     37  C   UNL     1      21.167  11.047  -1.476  0.00  0.00    -0.000 C 
ATOM     38  C   UNL     1      21.628  11.377  -2.931  0.00  0.00    +0.031 C 
ATOM     39  C   UNL     1      21.206  12.096   1.122  0.00  0.00    +0.012 C 
ATOM     40  C   UNL     1      22.249  10.196  -0.760  0.00  0.00    +0.012 C 
ATOM     41  C   UNL     1      23.072  11.853  -2.925  0.00  0.00    -0.025 C 
ENDBRANCH  32  33
ENDBRANCH  30  32
ENDBRANCH  26  28
ENDBRANCH  25  26
ENDBRANCH  24  25
ENDBRANCH   1  24
TORSDOF 12
