REMARK VINA RESULT:    -7.986      2.593      4.549
REMARK INTER + INTRA:         -16.344
REMARK INTER:                 -14.124
REMARK INTRA:                  -2.220
REMARK UNBOUND:                -1.120
REMARK  Name = lig_assembled_76.pdb
REMARK  16 active torsions:
REMARK  status: ('A' for Active; 'I' for Inactive)
REMARK    1  A    between atoms: _2  and  _8
REMARK    2  A    between atoms: _5  and  _6
REMARK    3  A    between atoms: _5  and  _18
REMARK    4  A    between atoms: _8  and  _9
REMARK    5  A    between atoms: _9  and  _10
REMARK    6  A    between atoms: _9  and  _17
REMARK    7  A    between atoms: _10  and  _11
REMARK    8  A    between atoms: _11  and  _12
REMARK    9  A    between atoms: _18  and  _20
REMARK   10  A    between atoms: _19  and  _24
REMARK   11  A    between atoms: _20  and  _23
REMARK   12  A    between atoms: _28  and  _38
REMARK   13  A    between atoms: _30  and  _31
REMARK   14  A    between atoms: _32  and  _34
REMARK   15  A    between atoms: _34  and  _36
REMARK   16  A    between atoms: _36  and  _38
REMARK                            x       y       z     vdW  Elec       q    Type
REMARK                         _______ _______ _______ _____ _____    ______ ____
ROOT
ATOM      1  C   UNL     1      28.294  17.540  -0.449  0.00  0.00    +0.400 C 
ATOM      2  N   UNL     1      29.521  17.363   0.145  0.00  0.00    -0.278 N 
ATOM      3  H   UNL     1      29.505  18.058   0.957  0.00  0.00    +0.152 HD
ATOM      4  O   UNL     1      27.464  18.235   0.131  0.00  0.00    -0.226 OA
ENDROOT
BRANCH   1   5
ATOM      5  O   UNL     1      28.142  16.968  -1.599  0.00  0.00    -0.450 OA
BRANCH   5   6
ATOM      6  C   UNL     1      27.121  16.703  -2.532  0.00  0.00    +0.240 C 
BRANCH   6   7
ATOM      7  C   UNL     1      26.772  15.227  -2.804  0.00  0.00    +0.100 C 
BRANCH   7   9
ATOM      8  N   UNL     1      25.039  14.405  -4.374  0.00  0.00    -0.134 NA
ATOM      9  C   UNL     1      25.372  15.103  -3.242  0.00  0.00    +0.086 A 
ATOM     10  C   UNL     1      24.229  15.621  -2.676  0.00  0.00    +0.133 A 
ATOM     11  N   UNL     1      23.236  15.197  -3.506  0.00  0.00    -0.249 N 
ATOM     12  N   UNL     1      23.722  14.477  -4.530  0.00  0.00    -0.065 NA
BRANCH  11  13
ATOM     13  C   UNL     1      21.835  15.549  -3.460  0.00  0.00    +0.176 C 
BRANCH  13  14
ATOM     14  C   UNL     1      20.968  14.465  -2.812  0.00  0.00    +0.136 C 
BRANCH  14  15
ATOM     15  O   UNL     1      21.094  13.233  -3.537  0.00  0.00    -0.390 OA
ATOM     16  H   UNL     1      22.037  13.040  -3.674  0.00  0.00    +0.210 HD
ENDBRANCH  14  15
BRANCH  14  17
ATOM     17  C   UNL     1      21.370  14.185  -1.356  0.00  0.00    +0.038 C 
BRANCH  17  18
ATOM     18  C   UNL     1      20.401  13.253  -0.625  0.00  0.00    +0.038 C 
BRANCH  18  19
ATOM     19  C   UNL     1      21.114  12.113   0.054  0.00  0.00    -0.047 A 
ATOM     20  C   UNL     1      21.336  12.142   1.438  0.00  0.00    +0.003 A 
ATOM     21  C   UNL     1      21.980  11.079   2.073  0.00  0.00    +0.000 A 
ATOM     22  C   UNL     1      22.412   9.983   1.330  0.00  0.00    +0.000 A 
ATOM     23  C   UNL     1      22.205   9.950  -0.048  0.00  0.00    +0.000 A 
ATOM     24  C   UNL     1      21.563  11.012  -0.686  0.00  0.00    +0.003 A 
ENDBRANCH  18  19
ENDBRANCH  17  18
ENDBRANCH  14  17
ENDBRANCH  13  14
ENDBRANCH  11  13
ENDBRANCH   7   9
ENDBRANCH   6   7
ENDBRANCH   5   6
ENDBRANCH   1   5
BRANCH   2  25
ATOM     25  C   UNL     1      30.801  16.660   0.172  0.00  0.00    +0.152 C 
BRANCH  25  26
ATOM     26  C   UNL     1      30.734  15.123   0.065  0.00  0.00    +0.193 C 
ATOM     27  O   UNL     1      31.735  14.730  -0.899  0.00  0.00    -0.219 OA
BRANCH  26  28
ATOM     28  C   UNL     1      31.073  14.302   1.329  0.00  0.00    +0.212 C 
ATOM     29  O   UNL     1      31.325  15.175   2.442  0.00  0.00    -0.218 OA
BRANCH  28  30
ATOM     30  C   UNL     1      29.940  13.283   1.734  0.00  0.00    +0.171 C 
ATOM     31  O   UNL     1      28.640  13.862   1.687  0.00  0.00    -0.343 OA
ATOM     32  C   UNL     1      27.494  13.271   2.222  0.00  0.00    +0.220 C 
ATOM     33  C   UNL     1      27.710  12.821   3.678  0.00  0.00    +0.076 C 
ATOM     34  C   UNL     1      28.969  11.938   3.707  0.00  0.00    +0.177 C 
ATOM     35  O   UNL     1      29.193  11.462   5.027  0.00  0.00    -0.221 OA
ATOM     36  C   UNL     1      30.199  12.738   3.177  0.00  0.00    +0.155 C 
BRANCH  36  37
ATOM     37  N   UNL     1      31.398  11.905   3.210  0.00  0.00    -0.202 NA
ATOM     38  C   UNL     1      32.514  12.019   3.974  0.00  0.00    +0.242 C 
ATOM     39  C   UNL     1      33.473  10.858   4.018  0.00  0.00    +0.096 C 
ATOM     40  O   UNL     1      32.714  13.055   4.606  0.00  0.00    -0.273 OA
ENDBRANCH  36  37
BRANCH  32  41
ATOM     41  C   UNL     1      26.900  12.066   1.308  0.00  0.00    +0.391 C 
ATOM     42  O   UNL     1      25.986  11.456   2.087  0.00  0.00    -0.243 OA
ATOM     43  O   UNL     1      27.309  12.315   0.058  0.00  0.00    -0.243 OA
ENDBRANCH  32  41
ENDBRANCH  28  30
ENDBRANCH  26  28
ENDBRANCH  25  26
ENDBRANCH   2  25
TORSDOF 16
