REMARK VINA RESULT:    -7.140      2.127      4.393
REMARK INTER + INTRA:         -14.880
REMARK INTER:                 -13.450
REMARK INTRA:                  -1.429
REMARK UNBOUND:                -2.732
REMARK  Name = lig_assembled_85.pdb
REMARK  14 active torsions:
REMARK  status: ('A' for Active; 'I' for Inactive)
REMARK    1  A    between atoms: _2  and  _9
REMARK    2  A    between atoms: _3  and  _5
REMARK    3  A    between atoms: _3  and  _16
REMARK    4  A    between atoms: _6  and  _7
REMARK    5  A    between atoms: _6  and  _18
REMARK    6  A    between atoms: _14  and  _15
REMARK    7  A    between atoms: _18  and  _20
REMARK    8  A    between atoms: _19  and  _24
REMARK    9  A    between atoms: _20  and  _23
REMARK   10  A    between atoms: _28  and  _38
REMARK   11  A    between atoms: _30  and  _31
REMARK   12  A    between atoms: _32  and  _34
REMARK   13  A    between atoms: _34  and  _36
REMARK   14  A    between atoms: _36  and  _38
REMARK                            x       y       z     vdW  Elec       q    Type
REMARK                         _______ _______ _______ _____ _____    ______ ____
ROOT
ATOM      1  C   UNL     1      27.831  17.409  -0.717  0.00  0.00    +0.400 C 
ATOM      2  N   UNL     1      28.566  16.498   0.004  0.00  0.00    -0.278 N 
ATOM      3  H   UNL     1      28.776  17.016   0.915  0.00  0.00    +0.152 HD
ATOM      4  O   UNL     1      27.452  18.429  -0.147  0.00  0.00    -0.226 OA
ENDROOT
BRANCH   2   5
ATOM      5  C   UNL     1      29.162  15.167   0.087  0.00  0.00    +0.152 C 
BRANCH   5   6
ATOM      6  C   UNL     1      30.513  14.981  -0.633  0.00  0.00    +0.193 C 
ATOM      7  O   UNL     1      31.204  16.248  -0.553  0.00  0.00    -0.219 OA
BRANCH   6   8
ATOM      8  C   UNL     1      31.507  13.961  -0.036  0.00  0.00    +0.212 C 
ATOM      9  O   UNL     1      30.838  12.726   0.265  0.00  0.00    -0.218 OA
BRANCH   8  10
ATOM     10  C   UNL     1      32.730  13.654  -0.982  0.00  0.00    +0.171 C 
ATOM     11  O   UNL     1      32.340  13.003  -2.187  0.00  0.00    -0.343 OA
ATOM     12  C   UNL     1      33.230  12.404  -3.082  0.00  0.00    +0.220 C 
ATOM     13  C   UNL     1      34.196  11.442  -2.369  0.00  0.00    +0.076 C 
ATOM     14  C   UNL     1      34.860  12.221  -1.221  0.00  0.00    +0.177 C 
ATOM     15  O   UNL     1      35.795  11.387  -0.551  0.00  0.00    -0.221 OA
ATOM     16  C   UNL     1      33.773  12.758  -0.238  0.00  0.00    +0.155 C 
BRANCH  16  17
ATOM     17  N   UNL     1      34.400  13.492   0.858  0.00  0.00    -0.202 NA
ATOM     18  C   UNL     1      34.342  13.271   2.196  0.00  0.00    +0.242 C 
ATOM     19  C   UNL     1      35.318  13.998   3.085  0.00  0.00    +0.096 C 
ATOM     20  O   UNL     1      33.505  12.492   2.647  0.00  0.00    -0.273 OA
ENDBRANCH  16  17
BRANCH  12  21
ATOM     21  C   UNL     1      34.027  13.470  -4.014  0.00  0.00    +0.391 C 
ATOM     22  O   UNL     1      35.310  13.058  -3.992  0.00  0.00    -0.243 OA
ATOM     23  O   UNL     1      33.089  14.155  -4.678  0.00  0.00    -0.243 OA
ENDBRANCH  12  21
ENDBRANCH   8  10
ENDBRANCH   6   8
ENDBRANCH   5   6
ENDBRANCH   2   5
BRANCH   1  24
ATOM     24  O   UNL     1      27.633  17.111  -1.960  0.00  0.00    -0.450 OA
BRANCH  24  25
ATOM     25  C   UNL     1      26.723  17.400  -2.995  0.00  0.00    +0.240 C 
BRANCH  25  26
ATOM     26  C   UNL     1      26.582  16.365  -4.127  0.00  0.00    +0.100 C 
BRANCH  26  28
ATOM     27  N   UNL     1      25.592  14.107  -4.250  0.00  0.00    -0.134 NA
ATOM     28  C   UNL     1      25.523  15.394  -3.802  0.00  0.00    +0.086 A 
ATOM     29  C   UNL     1      24.400  15.544  -3.018  0.00  0.00    +0.139 A 
ATOM     30  N   UNL     1      23.812  14.303  -3.013  0.00  0.00    -0.219 N 
ATOM     31  N   UNL     1      24.563  13.444  -3.743  0.00  0.00    -0.061 NA
BRANCH  30  32
ATOM     32  C   UNL     1      22.673  13.851  -2.314  0.00  0.00    +0.080 A 
ATOM     33  C   UNL     1      21.371  14.328  -2.533  0.00  0.00    +0.062 A 
ATOM     34  C   UNL     1      20.375  13.972  -1.595  0.00  0.00    +0.016 A 
ATOM     35  C   UNL     1      20.652  13.153  -0.494  0.00  0.00    +0.021 A 
ATOM     36  C   UNL     1      21.928  12.633  -0.336  0.00  0.00    +0.043 A 
ATOM     37 CL   UNL     1      22.297  11.655   1.028  0.00  0.00    -0.083 Cl
ATOM     38  C   UNL     1      22.929  12.954  -1.251  0.00  0.00    +0.048 A 
BRANCH  33  39
ATOM     39  C   UNL     1      20.885  15.247  -3.603  0.00  0.00    +0.248 C 
ATOM     40  O   UNL     1      21.004  16.449  -3.352  0.00  0.00    -0.270 OA
ATOM     41  N   UNL     1      20.272  14.815  -4.785  0.00  0.00    -0.304 N 
ATOM     42  C   UNL     1      20.168  13.453  -5.291  0.00  0.00    +0.132 C 
ATOM     43  C   UNL     1      19.849  15.856  -5.715  0.00  0.00    +0.132 C 
ENDBRANCH  33  39
ENDBRANCH  30  32
ENDBRANCH  26  28
ENDBRANCH  25  26
ENDBRANCH  24  25
ENDBRANCH   1  24
TORSDOF 12
