REMARK VINA RESULT:    -6.855      2.721      9.072
REMARK INTER + INTRA:         -13.208
REMARK INTER:                 -11.081
REMARK INTRA:                  -2.127
REMARK UNBOUND:                -1.544
REMARK  Name = lig_assembled_69.pdb
REMARK  13 active torsions:
REMARK  status: ('A' for Active; 'I' for Inactive)
REMARK    1  A    between atoms: _2  and  _8
REMARK    2  A    between atoms: _5  and  _6
REMARK    3  A    between atoms: _5  and  _16
REMARK    4  A    between atoms: _10  and  _15
REMARK    5  A    between atoms: _13  and  _14
REMARK    6  A    between atoms: _16  and  _18
REMARK    7  A    between atoms: _17  and  _22
REMARK    8  A    between atoms: _18  and  _21
REMARK    9  A    between atoms: _26  and  _36
REMARK   10  A    between atoms: _28  and  _29
REMARK   11  A    between atoms: _30  and  _32
REMARK   12  A    between atoms: _32  and  _34
REMARK   13  A    between atoms: _34  and  _36
REMARK                            x       y       z     vdW  Elec       q    Type
REMARK                         _______ _______ _______ _____ _____    ______ ____
ROOT
ATOM      1  C   UNL     1      27.647  12.887   2.672  0.00  0.00    +0.400 C 
ATOM      2  N   UNL     1      28.278  13.491   1.611  0.00  0.00    -0.278 N 
ATOM      3  H   UNL     1      28.201  14.533   1.837  0.00  0.00    +0.152 HD
ATOM      4  O   UNL     1      27.339  13.584   3.636  0.00  0.00    -0.226 OA
ENDROOT
BRANCH   1   5
ATOM      5  O   UNL     1      27.407  11.624   2.536  0.00  0.00    -0.450 OA
BRANCH   5   6
ATOM      6  C   UNL     1      26.563  10.770   1.799  0.00  0.00    +0.240 C 
BRANCH   6   7
ATOM      7  C   UNL     1      25.043  10.942   1.983  0.00  0.00    +0.100 C 
BRANCH   7   9
ATOM      8  N   UNL     1      23.106  11.704   0.651  0.00  0.00    -0.134 NA
ATOM      9  C   UNL     1      24.462  11.643   0.822  0.00  0.00    +0.086 A 
ATOM     10  C   UNL     1      25.079  12.298  -0.220  0.00  0.00    +0.134 A 
ATOM     11  N   UNL     1      24.043  12.724  -0.999  0.00  0.00    -0.248 N 
ATOM     12  N   UNL     1      22.860  12.363  -0.471  0.00  0.00    -0.065 NA
BRANCH  11  13
ATOM     13  C   UNL     1      24.109  13.429  -2.277  0.00  0.00    +0.114 C 
ATOM     14  C   UNL     1      25.430  13.151  -3.005  0.00  0.00    +0.062 C 
ATOM     15  C   UNL     1      26.620  14.028  -2.606  0.00  0.00    +0.139 C 
ATOM     16  C   UNL     1      26.564  15.467  -3.031  0.00  0.00    +0.002 C 
ATOM     17  C   UNL     1      25.491  16.203  -3.362  0.00  0.00    +0.002 C 
ATOM     18  C   UNL     1      24.046  15.822  -3.253  0.00  0.00    +0.139 C 
ATOM     19  C   UNL     1      23.722  14.902  -2.081  0.00  0.00    +0.062 C 
BRANCH  18  20
ATOM     20  O   UNL     1      23.621  15.238  -4.474  0.00  0.00    -0.388 OA
ATOM     21  H   UNL     1      24.262  15.497  -5.159  0.00  0.00    +0.210 HD
ENDBRANCH  18  20
BRANCH  15  22
ATOM     22  O   UNL     1      27.776  13.482  -3.254  0.00  0.00    -0.388 OA
ATOM     23  H   UNL     1      27.731  12.516  -3.161  0.00  0.00    +0.210 HD
ENDBRANCH  15  22
ENDBRANCH  11  13
ENDBRANCH   7   9
ENDBRANCH   6   7
ENDBRANCH   5   6
ENDBRANCH   1   5
BRANCH   2  24
ATOM     24  C   UNL     1      29.002  13.351   0.350  0.00  0.00    +0.152 C 
BRANCH  24  25
ATOM     25  C   UNL     1      29.445  14.663  -0.329  0.00  0.00    +0.193 C 
ATOM     26  O   UNL     1      28.571  15.702   0.165  0.00  0.00    -0.219 OA
BRANCH  25  27
ATOM     27  C   UNL     1      30.868  15.180  -0.025  0.00  0.00    +0.212 C 
ATOM     28  O   UNL     1      30.810  16.481   0.582  0.00  0.00    -0.218 OA
BRANCH  27  29
ATOM     29  C   UNL     1      31.693  14.222   0.916  0.00  0.00    +0.171 C 
ATOM     30  O   UNL     1      31.853  14.748   2.229  0.00  0.00    -0.343 OA
ATOM     31  C   UNL     1      32.734  14.232   3.183  0.00  0.00    +0.220 C 
ATOM     32  C   UNL     1      34.153  14.059   2.615  0.00  0.00    +0.076 C 
ATOM     33  C   UNL     1      34.037  13.230   1.325  0.00  0.00    +0.177 C 
ATOM     34  O   UNL     1      35.329  13.006   0.778  0.00  0.00    -0.221 OA
ATOM     35  C   UNL     1      33.107  13.953   0.302  0.00  0.00    +0.155 C 
BRANCH  35  36
ATOM     36  N   UNL     1      33.000  13.172  -0.927  0.00  0.00    -0.202 NA
ATOM     37  C   UNL     1      33.251  13.534  -2.211  0.00  0.00    +0.242 C 
ATOM     38  C   UNL     1      33.345  12.452  -3.254  0.00  0.00    +0.096 C 
ATOM     39  O   UNL     1      33.396  14.723  -2.489  0.00  0.00    -0.273 OA
ENDBRANCH  35  36
BRANCH  31  40
ATOM     40  C   UNL     1      32.201  12.867   3.884  0.00  0.00    +0.391 C 
ATOM     41  O   UNL     1      33.247  12.413   4.602  0.00  0.00    -0.243 OA
ATOM     42  O   UNL     1      30.871  12.869   3.735  0.00  0.00    -0.243 OA
ENDBRANCH  31  40
ENDBRANCH  27  29
ENDBRANCH  25  27
ENDBRANCH  24  25
ENDBRANCH   2  24
TORSDOF 13
