REMARK VINA RESULT:    -6.393      3.608      9.431
REMARK INTER + INTRA:         -12.719
REMARK INTER:                 -10.744
REMARK INTRA:                  -1.976
REMARK UNBOUND:                -1.841
REMARK  Name = lig_assembled_39.pdb
REMARK  12 active torsions:
REMARK  status: ('A' for Active; 'I' for Inactive)
REMARK    1  A    between atoms: _2  and  _8
REMARK    2  A    between atoms: _5  and  _6
REMARK    3  A    between atoms: _5  and  _14
REMARK    4  A    between atoms: _8  and  _9
REMARK    5  A    between atoms: _14  and  _16
REMARK    6  A    between atoms: _15  and  _20
REMARK    7  A    between atoms: _16  and  _19
REMARK    8  A    between atoms: _24  and  _34
REMARK    9  A    between atoms: _26  and  _27
REMARK   10  A    between atoms: _28  and  _30
REMARK   11  A    between atoms: _30  and  _32
REMARK   12  A    between atoms: _32  and  _34
REMARK                            x       y       z     vdW  Elec       q    Type
REMARK                         _______ _______ _______ _____ _____    ______ ____
ROOT
ATOM      1  C   UNL     1      26.737  16.773  -3.014  0.00  0.00    +0.400 C 
ATOM      2  N   UNL     1      26.685  15.399  -2.998  0.00  0.00    -0.278 N 
ATOM      3  H   UNL     1      25.743  15.181  -3.455  0.00  0.00    +0.152 HD
ATOM      4  O   UNL     1      25.878  17.377  -3.652  0.00  0.00    -0.226 OA
ENDROOT
BRANCH   2   5
ATOM      5  C   UNL     1      27.330  14.133  -2.658  0.00  0.00    +0.152 C 
BRANCH   5   6
ATOM      6  C   UNL     1      26.517  12.855  -2.952  0.00  0.00    +0.193 C 
ATOM      7  O   UNL     1      27.411  11.739  -2.752  0.00  0.00    -0.219 OA
BRANCH   6   8
ATOM      8  C   UNL     1      25.309  12.550  -2.039  0.00  0.00    +0.212 C 
ATOM      9  O   UNL     1      25.464  13.202  -0.768  0.00  0.00    -0.218 OA
BRANCH   8  10
ATOM     10  C   UNL     1      23.928  12.985  -2.664  0.00  0.00    +0.171 C 
ATOM     11  O   UNL     1      23.967  14.296  -3.217  0.00  0.00    -0.343 OA
ATOM     12  C   UNL     1      22.838  15.018  -3.611  0.00  0.00    +0.220 C 
ATOM     13  C   UNL     1      21.767  15.051  -2.506  0.00  0.00    +0.076 C 
ATOM     14  C   UNL     1      21.492  13.597  -2.087  0.00  0.00    +0.177 C 
ATOM     15  O   UNL     1      20.478  13.567  -1.092  0.00  0.00    -0.221 OA
ATOM     16  C   UNL     1      22.805  12.927  -1.577  0.00  0.00    +0.155 C 
BRANCH  16  17
ATOM     17  N   UNL     1      22.547  11.548  -1.170  0.00  0.00    -0.202 NA
ATOM     18  C   UNL     1      22.599  10.982   0.062  0.00  0.00    +0.242 C 
ATOM     19  C   UNL     1      22.000   9.613   0.247  0.00  0.00    +0.096 C 
ATOM     20  O   UNL     1      23.127  11.594   0.989  0.00  0.00    -0.273 OA
ENDBRANCH  16  17
BRANCH  12  21
ATOM     21  C   UNL     1      22.217  14.527  -5.030  0.00  0.00    +0.391 C 
ATOM     22  O   UNL     1      23.108  13.637  -5.509  0.00  0.00    -0.243 OA
ATOM     23  O   UNL     1      20.946  14.947  -5.043  0.00  0.00    -0.243 OA
ENDBRANCH  12  21
ENDBRANCH   8  10
ENDBRANCH   6   8
ENDBRANCH   5   6
ENDBRANCH   2   5
BRANCH   1  24
ATOM     24  O   UNL     1      27.685  17.305  -2.316  0.00  0.00    -0.450 OA
BRANCH  24  25
ATOM     25  C   UNL     1      27.916  17.771  -1.007  0.00  0.00    +0.240 C 
BRANCH  25  26
ATOM     26  C   UNL     1      29.340  17.618  -0.439  0.00  0.00    +0.100 C 
BRANCH  26  28
ATOM     27  N   UNL     1      28.582  15.390   0.330  0.00  0.00    -0.134 NA
ATOM     28  C   UNL     1      29.600  16.212  -0.077  0.00  0.00    +0.086 A 
ATOM     29  C   UNL     1      30.779  15.501  -0.089  0.00  0.00    +0.134 A 
ATOM     30  N   UNL     1      30.396  14.233   0.241  0.00  0.00    -0.247 N 
ATOM     31  N   UNL     1      29.087  14.184   0.551  0.00  0.00    -0.065 NA
BRANCH  30  32
ATOM     32  C   UNL     1      31.200  13.019   0.212  0.00  0.00    +0.181 C 
BRANCH  32  33
ATOM     33  C   UNL     1      32.660  13.275  -0.113  0.00  0.00    -0.012 A 
ATOM     34  C   UNL     1      33.133  13.199  -1.440  0.00  0.00    +0.006 A 
ATOM     35  C   UNL     1      34.476  13.428  -1.753  0.00  0.00    +0.000 A 
ATOM     36  C   UNL     1      35.385  13.714  -0.742  0.00  0.00    +0.001 A 
ATOM     37  C   UNL     1      34.955  13.753   0.582  0.00  0.00    +0.015 A 
ATOM     38  C   UNL     1      33.608  13.525   0.897  0.00  0.00    +0.023 A 
ATOM     39 BR   UNL     1      33.150  13.546   2.743  0.00  0.00    -0.050 Br
ENDBRANCH  32  33
ENDBRANCH  30  32
ENDBRANCH  26  28
ENDBRANCH  25  26
ENDBRANCH  24  25
ENDBRANCH   1  24
TORSDOF 12
