REMARK VINA RESULT:    -6.268      2.018      3.192
REMARK INTER + INTRA:         -13.731
REMARK INTER:                 -12.394
REMARK INTRA:                  -1.338
REMARK UNBOUND:                -1.966
REMARK  Name = lig_assembled_17.pdb
REMARK  17 active torsions:
REMARK  status: ('A' for Active; 'I' for Inactive)
REMARK    1  A    between atoms: _2  and  _9
REMARK    2  A    between atoms: _3  and  _10
REMARK    3  A    between atoms: _3  and  _11
REMARK    4  A    between atoms: _3  and  _13
REMARK    5  A    between atoms: _5  and  _13
REMARK    6  A    between atoms: _6  and  _7
REMARK    7  A    between atoms: _6  and  _14
REMARK    8  A    between atoms: _9  and  _10
REMARK    9  A    between atoms: _11  and  _12
REMARK   10  A    between atoms: _14  and  _16
REMARK   11  A    between atoms: _15  and  _20
REMARK   12  A    between atoms: _16  and  _19
REMARK   13  A    between atoms: _24  and  _34
REMARK   14  A    between atoms: _26  and  _27
REMARK   15  A    between atoms: _28  and  _30
REMARK   16  A    between atoms: _30  and  _32
REMARK   17  A    between atoms: _32  and  _34
REMARK                            x       y       z     vdW  Elec       q    Type
REMARK                         _______ _______ _______ _____ _____    ______ ____
ROOT
ATOM      1  C   UNL     1      28.267  17.710  -0.473  0.00  0.00    +0.400 C 
ATOM      2  N   UNL     1      29.467  17.470   0.154  0.00  0.00    -0.278 N 
ATOM      3  H   UNL     1      29.416  18.083   1.028  0.00  0.00    +0.152 HD
ATOM      4  O   UNL     1      27.414  18.352   0.135  0.00  0.00    -0.226 OA
ENDROOT
BRANCH   2   5
ATOM      5  C   UNL     1      30.743  16.760   0.168  0.00  0.00    +0.152 C 
BRANCH   5   6
ATOM      6  C   UNL     1      30.686  15.269   0.562  0.00  0.00    +0.193 C 
ATOM      7  O   UNL     1      30.971  14.512  -0.635  0.00  0.00    -0.219 OA
BRANCH   6   8
ATOM      8  C   UNL     1      31.719  14.763   1.593  0.00  0.00    +0.212 C 
ATOM      9  O   UNL     1      31.893  15.727   2.645  0.00  0.00    -0.218 OA
BRANCH   8  10
ATOM     10  C   UNL     1      31.330  13.378   2.238  0.00  0.00    +0.171 C 
ATOM     11  O   UNL     1      29.998  13.364   2.742  0.00  0.00    -0.343 OA
ATOM     12  C   UNL     1      29.479  12.365   3.570  0.00  0.00    +0.220 C 
ATOM     13  C   UNL     1      30.397  12.089   4.774  0.00  0.00    +0.076 C 
ATOM     14  C   UNL     1      31.806  11.809   4.228  0.00  0.00    +0.177 C 
ATOM     15  O   UNL     1      32.688  11.507   5.300  0.00  0.00    -0.221 OA
ATOM     16  C   UNL     1      32.315  13.032   3.402  0.00  0.00    +0.155 C 
BRANCH  16  17
ATOM     17  N   UNL     1      33.657  12.773   2.887  0.00  0.00    -0.202 NA
ATOM     18  C   UNL     1      34.832  13.387   3.177  0.00  0.00    +0.242 C 
ATOM     19  C   UNL     1      36.112  12.732   2.729  0.00  0.00    +0.096 C 
ATOM     20  O   UNL     1      34.825  14.451   3.793  0.00  0.00    -0.273 OA
ENDBRANCH  16  17
BRANCH  12  21
ATOM     21  C   UNL     1      29.106  10.997   2.778  0.00  0.00    +0.391 C 
ATOM     22  O   UNL     1      29.000  10.058   3.737  0.00  0.00    -0.243 OA
ATOM     23  O   UNL     1      28.754  11.370   1.541  0.00  0.00    -0.243 OA
ENDBRANCH  12  21
ENDBRANCH   8  10
ENDBRANCH   6   8
ENDBRANCH   5   6
ENDBRANCH   2   5
BRANCH   1  24
ATOM     24  O   UNL     1      28.163  17.254  -1.677  0.00  0.00    -0.450 OA
BRANCH  24  25
ATOM     25  C   UNL     1      27.352  16.374  -2.420  0.00  0.00    +0.240 C 
BRANCH  25  26
ATOM     26  C   UNL     1      26.591  16.957  -3.627  0.00  0.00    +0.100 C 
BRANCH  26  28
ATOM     27  N   UNL     1      25.639  15.433  -5.323  0.00  0.00    -0.134 NA
ATOM     28  C   UNL     1      25.559  16.010  -4.084  0.00  0.00    +0.086 A 
ATOM     29  C   UNL     1      24.434  15.542  -3.440  0.00  0.00    +0.133 A 
ATOM     30  N   UNL     1      23.887  14.673  -4.333  0.00  0.00    -0.250 N 
ATOM     31  N   UNL     1      24.605  14.616  -5.468  0.00  0.00    -0.065 NA
BRANCH  30  32
ATOM     32  C   UNL     1      22.720  13.829  -4.173  0.00  0.00    +0.160 C 
BRANCH  32  33
ATOM     33  C   UNL     1      22.653  13.266  -2.746  0.00  0.00    +0.107 C 
BRANCH  33  34
ATOM     34  N   UNL     1      21.308  12.860  -2.269  0.00  0.00    -0.301 NA
BRANCH  34  35
ATOM     35  C   UNL     1      20.553  14.071  -1.886  0.00  0.00    +0.081 C 
ATOM     36  C   UNL     1      19.124  14.130  -2.416  0.00  0.00    +0.020 C 
ENDBRANCH  34  35
BRANCH  34  37
ATOM     37  C   UNL     1      21.348  11.837  -1.209  0.00  0.00    +0.081 C 
ATOM     38  C   UNL     1      21.040  12.312   0.208  0.00  0.00    +0.020 C 
ENDBRANCH  34  37
ENDBRANCH  33  34
ENDBRANCH  32  33
ENDBRANCH  30  32
ENDBRANCH  26  28
ENDBRANCH  25  26
ENDBRANCH  24  25
ENDBRANCH   1  24
TORSDOF 15
