REMARK VINA RESULT:    -6.818      2.186      3.146
REMARK INTER + INTRA:         -12.811
REMARK INTER:                 -11.149
REMARK INTRA:                  -1.662
REMARK UNBOUND:                -1.609
REMARK  Name = lig_assembled_87.pdb
REMARK  12 active torsions:
REMARK  status: ('A' for Active; 'I' for Inactive)
REMARK    1  A    between atoms: _2  and  _9
REMARK    2  A    between atoms: _3  and  _12
REMARK    3  A    between atoms: _6  and  _7
REMARK    4  A    between atoms: _6  and  _16
REMARK    5  A    between atoms: _16  and  _18
REMARK    6  A    between atoms: _17  and  _22
REMARK    7  A    between atoms: _18  and  _21
REMARK    8  A    between atoms: _26  and  _36
REMARK    9  A    between atoms: _28  and  _29
REMARK   10  A    between atoms: _30  and  _32
REMARK   11  A    between atoms: _32  and  _34
REMARK   12  A    between atoms: _34  and  _36
REMARK                            x       y       z     vdW  Elec       q    Type
REMARK                         _______ _______ _______ _____ _____    ______ ____
ROOT
ATOM      1  C   UNL     1      27.500  17.365  -1.400  0.00  0.00    +0.400 C 
ATOM      2  N   UNL     1      28.130  16.222  -0.968  0.00  0.00    -0.278 N 
ATOM      3  H   UNL     1      28.725  16.563  -0.148  0.00  0.00    +0.152 HD
ATOM      4  O   UNL     1      27.595  18.376  -0.709  0.00  0.00    -0.226 OA
ENDROOT
BRANCH   1   5
ATOM      5  O   UNL     1      26.881  17.269  -2.531  0.00  0.00    -0.450 OA
BRANCH   5   6
ATOM      6  C   UNL     1      27.151  16.926  -3.871  0.00  0.00    +0.240 C 
BRANCH   6   7
ATOM      7  C   UNL     1      26.099  16.082  -4.614  0.00  0.00    +0.100 C 
BRANCH   7   9
ATOM      8  N   UNL     1      26.162  13.773  -3.738  0.00  0.00    -0.134 NA
ATOM      9  C   UNL     1      25.592  15.014  -3.734  0.00  0.00    +0.086 A 
ATOM     10  C   UNL     1      24.569  15.037  -2.812  0.00  0.00    +0.134 A 
ATOM     11  N   UNL     1      24.642  13.817  -2.196  0.00  0.00    -0.248 N 
ATOM     12  N   UNL     1      25.526  13.033  -2.846  0.00  0.00    -0.065 NA
BRANCH  11  13
ATOM     13  C   UNL     1      23.930  13.282  -1.020  0.00  0.00    +0.112 C 
ATOM     14  C   UNL     1      24.095  11.752  -0.799  0.00  0.00    +0.045 C 
ATOM     15  C   UNL     1      22.795  10.932  -0.811  0.00  0.00    +0.059 C 
ATOM     16  C   UNL     1      22.027  11.051   0.514  0.00  0.00    +0.020 C 
ATOM     17  C   UNL     1      20.996  12.151   0.265  0.00  0.00    +0.020 C 
ATOM     18  C   UNL     1      21.369  12.701  -1.112  0.00  0.00    +0.059 C 
ATOM     19  N   UNL     1      21.808  11.460  -1.744  0.00  0.00    -0.299 NA
ATOM     20  C   UNL     1      22.170  11.511  -3.144  0.00  0.00    +0.105 C 
ATOM     21  C   UNL     1      22.452  13.774  -0.987  0.00  0.00    +0.045 C 
ENDBRANCH  11  13
ENDBRANCH   7   9
ENDBRANCH   6   7
ENDBRANCH   5   6
ENDBRANCH   1   5
BRANCH   2  22
ATOM     22  C   UNL     1      28.335  14.783  -1.113  0.00  0.00    +0.152 C 
BRANCH  22  23
ATOM     23  C   UNL     1      29.530  14.185  -0.342  0.00  0.00    +0.193 C 
ATOM     24  O   UNL     1      30.716  14.841  -0.841  0.00  0.00    -0.219 OA
BRANCH  23  25
ATOM     25  C   UNL     1      29.579  14.410   1.186  0.00  0.00    +0.212 C 
ATOM     26  O   UNL     1      28.261  14.661   1.699  0.00  0.00    -0.218 OA
BRANCH  25  27
ATOM     27  C   UNL     1      30.204  13.197   1.975  0.00  0.00    +0.171 C 
ATOM     28  O   UNL     1      29.283  12.599   2.881  0.00  0.00    -0.343 OA
ATOM     29  C   UNL     1      29.634  11.677   3.869  0.00  0.00    +0.220 C 
ATOM     30  C   UNL     1      30.811  12.179   4.724  0.00  0.00    +0.076 C 
ATOM     31  C   UNL     1      31.949  12.565   3.765  0.00  0.00    +0.177 C 
ATOM     32  O   UNL     1      33.079  12.999   4.507  0.00  0.00    -0.221 OA
ATOM     33  C   UNL     1      31.465  13.667   2.773  0.00  0.00    +0.155 C 
BRANCH  33  34
ATOM     34  N   UNL     1      32.545  14.042   1.863  0.00  0.00    -0.202 NA
ATOM     35  C   UNL     1      33.218  13.287   0.958  0.00  0.00    +0.242 C 
ATOM     36  C   UNL     1      34.082  13.989  -0.057  0.00  0.00    +0.096 C 
ATOM     37  O   UNL     1      33.107  12.063   0.985  0.00  0.00    -0.273 OA
ENDBRANCH  33  34
BRANCH  29  38
ATOM     38  C   UNL     1      29.910  10.183   3.293  0.00  0.00    +0.391 C 
ATOM     39  O   UNL     1      30.562   9.543   4.283  0.00  0.00    -0.243 OA
ATOM     40  O   UNL     1      29.139  10.059   2.205  0.00  0.00    -0.243 OA
ENDBRANCH  29  38
ENDBRANCH  25  27
ENDBRANCH  23  25
ENDBRANCH  22  23
ENDBRANCH   2  22
TORSDOF 11
