REMARK VINA RESULT:    -6.789      3.283      8.432
REMARK INTER + INTRA:         -16.963
REMARK INTER:                 -13.904
REMARK INTRA:                  -3.058
REMARK UNBOUND:                -3.824
REMARK  Name = lig_assembled_81.pdb
REMARK  17 active torsions:
REMARK  status: ('A' for Active; 'I' for Inactive)
REMARK    1  A    between atoms: _2  and  _11
REMARK    2  A    between atoms: _7  and  _23
REMARK    3  A    between atoms: _8  and  _9
REMARK    4  A    between atoms: _8  and  _25
REMARK    5  A    between atoms: _13  and  _14
REMARK    6  A    between atoms: _20  and  _21
REMARK    7  A    between atoms: _21  and  _22
REMARK    8  A    between atoms: _22  and  _24
REMARK    9  A    between atoms: _23  and  _24
REMARK   10  A    between atoms: _25  and  _27
REMARK   11  A    between atoms: _26  and  _31
REMARK   12  A    between atoms: _27  and  _30
REMARK   13  A    between atoms: _35  and  _45
REMARK   14  A    between atoms: _37  and  _38
REMARK   15  A    between atoms: _39  and  _41
REMARK   16  A    between atoms: _41  and  _43
REMARK   17  A    between atoms: _43  and  _45
REMARK                            x       y       z     vdW  Elec       q    Type
REMARK                         _______ _______ _______ _____ _____    ______ ____
ROOT
ATOM      1  C   UNL     1      22.481  14.277  -5.310  0.00  0.00    +0.096 C 
ENDROOT
BRANCH   1   3
ATOM      2  N   UNL     1      24.859  14.696  -5.737  0.00  0.00    -0.133 NA
ATOM      3  C   UNL     1      23.829  14.661  -4.846  0.00  0.00    +0.066 C 
ATOM      4  C   UNL     1      24.316  14.991  -3.595  0.00  0.00    +0.120 C 
ATOM      5  N   UNL     1      25.637  15.356  -3.817  0.00  0.00    -0.187 N 
ATOM      6  N   UNL     1      25.964  14.983  -5.070  0.00  0.00    -0.010 NA
BRANCH   5   7
ATOM      7  C   UNL     1      26.593  15.838  -2.861  0.00  0.00    +0.150 A 
ATOM      8  C   UNL     1      27.315  15.039  -1.940  0.00  0.00    +0.022 A 
ATOM      9  C   UNL     1      28.131  15.798  -1.060  0.00  0.00    +0.081 A 
ATOM     10  N   UNL     1      28.132  17.159  -1.080  0.00  0.00    -0.214 NA
ATOM     11  C   UNL     1      27.392  17.796  -1.971  0.00  0.00    +0.215 A 
ATOM     12  N   UNL     1      27.337  19.168  -1.915  0.00  0.00    -0.327 N 
ATOM     13  H   UNL     1      28.141  19.547  -1.437  0.00  0.00    +0.145 HD
ATOM     14  H   UNL     1      27.061  19.568  -2.798  0.00  0.00    +0.145 HD
ATOM     15  N   UNL     1      26.700  17.194  -2.919  0.00  0.00    -0.198 NA
BRANCH   9  16
ATOM     16  C   UNL     1      29.069  15.288   0.012  0.00  0.00    +0.001 A 
ATOM     17  C   UNL     1      30.366  15.777   0.249  0.00  0.00    +0.010 A 
ATOM     18  C   UNL     1      31.188  15.270   1.270  0.00  0.00    +0.001 A 
ATOM     19  C   UNL     1      30.720  14.298   2.134  0.00  0.00    +0.000 A 
ATOM     20  C   UNL     1      29.420  13.821   1.975  0.00  0.00    +0.001 A 
ATOM     21  C   UNL     1      28.624  14.302   0.926  0.00  0.00    +0.010 A 
ENDBRANCH   9  16
BRANCH   8  22
ATOM     22  C   UNL     1      27.400  13.512  -1.862  0.00  0.00    +0.069 C 
BRANCH  22  23
ATOM     23  C   UNL     1      27.741  12.681  -3.083  0.00  0.00    +0.164 C 
BRANCH  23  24
ATOM     24  O   UNL     1      29.134  12.536  -3.386  0.00  0.00    -0.380 OA
BRANCH  24  25
ATOM     25  C   UNL     1      29.727  11.878  -2.250  0.00  0.00    +0.156 C 
ATOM     26  C   UNL     1      30.903  12.653  -1.706  0.00  0.00    +0.034 C 
ENDBRANCH  24  25
ENDBRANCH  23  24
ENDBRANCH  22  23
ENDBRANCH   8  22
ENDBRANCH   5   7
ENDBRANCH   1   3
BRANCH   1  27
ATOM     27  C   UNL     1      21.411  14.776  -4.319  0.00  0.00    +0.240 C 
BRANCH  27  28
ATOM     28  O   UNL     1      20.801  13.818  -3.486  0.00  0.00    -0.450 OA
BRANCH  28  29
ATOM     29  C   UNL     1      20.141  13.763  -2.376  0.00  0.00    +0.400 C 
ATOM     30  N   UNL     1      20.824  13.237  -1.304  0.00  0.00    -0.278 N 
ATOM     31  H   UNL     1      20.190  13.462  -0.473  0.00  0.00    +0.152 HD
ATOM     32  O   UNL     1      18.993  14.159  -2.194  0.00  0.00    -0.226 OA
BRANCH  30  33
ATOM     33  C   UNL     1      21.990  12.513  -0.805  0.00  0.00    +0.152 C 
BRANCH  33  34
ATOM     34  C   UNL     1      21.706  11.360   0.179  0.00  0.00    +0.193 C 
ATOM     35  O   UNL     1      22.318  10.177  -0.380  0.00  0.00    -0.219 OA
BRANCH  34  36
ATOM     36  C   UNL     1      22.302  11.469   1.599  0.00  0.00    +0.212 C 
ATOM     37  O   UNL     1      21.386  12.141   2.479  0.00  0.00    -0.218 OA
BRANCH  36  38
ATOM     38  C   UNL     1      22.672  10.072   2.229  0.00  0.00    +0.171 C 
ATOM     39  O   UNL     1      21.778   9.685   3.268  0.00  0.00    -0.343 OA
ATOM     40  C   UNL     1      22.006   8.627   4.151  0.00  0.00    +0.220 C 
ATOM     41  C   UNL     1      23.400   8.713   4.796  0.00  0.00    +0.076 C 
ATOM     42  C   UNL     1      24.428   8.841   3.660  0.00  0.00    +0.177 C 
ATOM     43  O   UNL     1      25.741   8.885   4.202  0.00  0.00    -0.221 OA
ATOM     44  C   UNL     1      24.127  10.109   2.803  0.00  0.00    +0.155 C 
BRANCH  44  45
ATOM     45  N   UNL     1      25.106  10.238   1.726  0.00  0.00    -0.202 NA
ATOM     46  C   UNL     1      26.123  11.125   1.580  0.00  0.00    +0.242 C 
ATOM     47  C   UNL     1      27.164  10.853   0.525  0.00  0.00    +0.096 C 
ATOM     48  O   UNL     1      26.172  12.118   2.304  0.00  0.00    -0.273 OA
ENDBRANCH  44  45
BRANCH  40  49
ATOM     49  C   UNL     1      21.742   7.166   3.492  0.00  0.00    +0.391 C 
ATOM     50  O   UNL     1      22.174   6.285   4.416  0.00  0.00    -0.243 OA
ATOM     51  O   UNL     1      20.938   7.373   2.442  0.00  0.00    -0.243 OA
ENDBRANCH  40  49
ENDBRANCH  36  38
ENDBRANCH  34  36
ENDBRANCH  33  34
ENDBRANCH  30  33
ENDBRANCH  28  29
ENDBRANCH  27  28
ENDBRANCH   1  27
TORSDOF 16
