REMARK VINA RESULT:    -6.893      3.999      9.024
REMARK INTER + INTRA:         -12.824
REMARK INTER:                 -11.415
REMARK INTRA:                  -1.409
REMARK UNBOUND:                -1.499
REMARK  Name = lig_assembled_15.pdb
REMARK  11 active torsions:
REMARK  status: ('A' for Active; 'I' for Inactive)
REMARK    1  A    between atoms: _2  and  _8
REMARK    2  A    between atoms: _5  and  _6
REMARK    3  A    between atoms: _5  and  _13
REMARK    4  A    between atoms: _13  and  _15
REMARK    5  A    between atoms: _14  and  _19
REMARK    6  A    between atoms: _15  and  _18
REMARK    7  A    between atoms: _23  and  _33
REMARK    8  A    between atoms: _25  and  _26
REMARK    9  A    between atoms: _27  and  _29
REMARK   10  A    between atoms: _29  and  _31
REMARK   11  A    between atoms: _31  and  _33
REMARK                            x       y       z     vdW  Elec       q    Type
REMARK                         _______ _______ _______ _____ _____    ______ ____
ROOT
ATOM      1  C   UNL     1      27.971  17.837  -1.041  0.00  0.00    +0.400 C 
ATOM      2  N   UNL     1      27.211  17.630  -2.168  0.00  0.00    -0.278 N 
ATOM      3  H   UNL     1      26.239  17.967  -1.876  0.00  0.00    +0.152 HD
ATOM      4  O   UNL     1      27.473  18.470  -0.114  0.00  0.00    -0.226 OA
ENDROOT
BRANCH   1   5
ATOM      5  O   UNL     1      29.150  17.306  -1.056  0.00  0.00    -0.450 OA
BRANCH   5   6
ATOM      6  C   UNL     1      29.987  16.539  -0.222  0.00  0.00    +0.240 C 
BRANCH   6   7
ATOM      7  C   UNL     1      29.836  15.007  -0.279  0.00  0.00    +0.100 C 
BRANCH   7   9
ATOM      8  N   UNL     1      31.983  13.946   0.343  0.00  0.00    -0.134 NA
ATOM      9  C   UNL     1      30.735  14.368   0.701  0.00  0.00    +0.086 A 
ATOM     10  C   UNL     1      30.537  14.101   2.036  0.00  0.00    +0.139 A 
ATOM     11  N   UNL     1      31.715  13.534   2.465  0.00  0.00    -0.220 N 
ATOM     12  N   UNL     1      32.570  13.436   1.417  0.00  0.00    -0.061 NA
BRANCH  11  13
ATOM     13  C   UNL     1      32.077  13.123   3.774  0.00  0.00    +0.067 A 
ATOM     14  C   UNL     1      31.172  12.425   4.586  0.00  0.00    +0.029 A 
ATOM     15  C   UNL     1      31.532  12.062   5.887  0.00  0.00    +0.017 A 
ATOM     16  C   UNL     1      32.794  12.392   6.378  0.00  0.00    +0.018 A 
ATOM     17 BR   UNL     1      33.264  11.924   8.147  0.00  0.00    -0.050 Br
ATOM     18  C   UNL     1      33.707  13.073   5.575  0.00  0.00    +0.017 A 
ATOM     19  C   UNL     1      33.352  13.436   4.273  0.00  0.00    +0.029 A 
ENDBRANCH  11  13
ENDBRANCH   7   9
ENDBRANCH   6   7
ENDBRANCH   5   6
ENDBRANCH   1   5
BRANCH   2  20
ATOM     20  C   UNL     1      27.140  17.182  -3.557  0.00  0.00    +0.152 C 
BRANCH  20  21
ATOM     21  C   UNL     1      26.032  16.161  -3.886  0.00  0.00    +0.193 C 
ATOM     22  O   UNL     1      26.067  15.957  -5.315  0.00  0.00    -0.219 OA
BRANCH  21  23
ATOM     23  C   UNL     1      26.168  14.742  -3.290  0.00  0.00    +0.212 C 
ATOM     24  O   UNL     1      26.912  14.782  -2.062  0.00  0.00    -0.218 OA
BRANCH  23  25
ATOM     25  C   UNL     1      24.781  14.044  -3.017  0.00  0.00    +0.171 C 
ATOM     26  O   UNL     1      23.958  14.792  -2.127  0.00  0.00    -0.343 OA
ATOM     27  C   UNL     1      22.796  14.300  -1.527  0.00  0.00    +0.220 C 
ATOM     28  C   UNL     1      23.036  12.940  -0.849  0.00  0.00    +0.076 C 
ATOM     29  C   UNL     1      23.670  12.007  -1.894  0.00  0.00    +0.177 C 
ATOM     30  O   UNL     1      23.877  10.720  -1.329  0.00  0.00    -0.221 OA
ATOM     31  C   UNL     1      25.007  12.617  -2.419  0.00  0.00    +0.155 C 
BRANCH  31  32
ATOM     32  N   UNL     1      25.616  11.730  -3.407  0.00  0.00    -0.202 NA
ATOM     33  C   UNL     1      26.828  11.120  -3.395  0.00  0.00    +0.242 C 
ATOM     34  C   UNL     1      27.088  10.025  -4.397  0.00  0.00    +0.096 C 
ATOM     35  O   UNL     1      27.676  11.468  -2.575  0.00  0.00    -0.273 OA
ENDBRANCH  31  32
BRANCH  27  36
ATOM     36  C   UNL     1      21.521  14.249  -2.533  0.00  0.00    +0.391 C 
ATOM     37  O   UNL     1      20.454  14.069  -1.731  0.00  0.00    -0.243 OA
ATOM     38  O   UNL     1      21.963  14.698  -3.714  0.00  0.00    -0.243 OA
ENDBRANCH  27  36
ENDBRANCH  23  25
ENDBRANCH  21  23
ENDBRANCH  20  21
ENDBRANCH   2  20
TORSDOF 11
