REMARK VINA RESULT:    -6.657      2.837      4.361
REMARK INTER + INTRA:         -12.547
REMARK INTER:                 -10.938
REMARK INTRA:                  -1.609
REMARK UNBOUND:                -1.609
REMARK  Name = lig_assembled_87.pdb
REMARK  12 active torsions:
REMARK  status: ('A' for Active; 'I' for Inactive)
REMARK    1  A    between atoms: _2  and  _9
REMARK    2  A    between atoms: _3  and  _12
REMARK    3  A    between atoms: _6  and  _7
REMARK    4  A    between atoms: _6  and  _16
REMARK    5  A    between atoms: _16  and  _18
REMARK    6  A    between atoms: _17  and  _22
REMARK    7  A    between atoms: _18  and  _21
REMARK    8  A    between atoms: _26  and  _36
REMARK    9  A    between atoms: _28  and  _29
REMARK   10  A    between atoms: _30  and  _32
REMARK   11  A    between atoms: _32  and  _34
REMARK   12  A    between atoms: _34  and  _36
REMARK                            x       y       z     vdW  Elec       q    Type
REMARK                         _______ _______ _______ _____ _____    ______ ____
ROOT
ATOM      1  C   UNL     1      25.912  15.715  -3.453  0.00  0.00    +0.400 C 
ATOM      2  N   UNL     1      26.695  14.917  -2.653  0.00  0.00    -0.278 N 
ATOM      3  H   UNL     1      27.687  15.260  -2.856  0.00  0.00    +0.152 HD
ATOM      4  O   UNL     1      26.442  16.669  -4.015  0.00  0.00    -0.226 OA
ENDROOT
BRANCH   1   5
ATOM      5  O   UNL     1      24.674  15.357  -3.560  0.00  0.00    -0.450 OA
BRANCH   5   6
ATOM      6  C   UNL     1      23.404  15.752  -3.098  0.00  0.00    +0.240 C 
BRANCH   6   7
ATOM      7  C   UNL     1      22.208  14.844  -3.442  0.00  0.00    +0.100 C 
BRANCH   7   9
ATOM      8  N   UNL     1      20.646  14.536  -1.553  0.00  0.00    -0.134 NA
ATOM      9  C   UNL     1      21.755  14.125  -2.238  0.00  0.00    +0.086 A 
ATOM     10  C   UNL     1      22.274  13.006  -1.625  0.00  0.00    +0.134 A 
ATOM     11  N   UNL     1      21.369  12.708  -0.643  0.00  0.00    -0.248 N 
ATOM     12  N   UNL     1      20.465  13.703  -0.542  0.00  0.00    -0.065 NA
BRANCH  11  13
ATOM     13  C   UNL     1      21.265  11.544   0.258  0.00  0.00    +0.112 C 
ATOM     14  C   UNL     1      21.683  11.819   1.729  0.00  0.00    +0.045 C 
ATOM     15  C   UNL     1      22.847  10.969   2.263  0.00  0.00    +0.059 C 
ATOM     16  C   UNL     1      22.397   9.551   2.645  0.00  0.00    +0.020 C 
ATOM     17  C   UNL     1      22.716   8.700   1.417  0.00  0.00    +0.020 C 
ATOM     18  C   UNL     1      23.154   9.720   0.366  0.00  0.00    +0.059 C 
ATOM     19  N   UNL     1      23.839  10.670   1.238  0.00  0.00    -0.299 NA
ATOM     20  C   UNL     1      24.515  11.786   0.614  0.00  0.00    +0.105 C 
ATOM     21  C   UNL     1      21.939  10.288  -0.371  0.00  0.00    +0.045 C 
ENDBRANCH  11  13
ENDBRANCH   7   9
ENDBRANCH   6   7
ENDBRANCH   5   6
ENDBRANCH   1   5
BRANCH   2  22
ATOM     22  C   UNL     1      26.777  13.846  -1.663  0.00  0.00    +0.152 C 
BRANCH  22  23
ATOM     23  C   UNL     1      28.190  13.302  -1.365  0.00  0.00    +0.193 C 
ATOM     24  O   UNL     1      28.718  12.812  -2.617  0.00  0.00    -0.219 OA
BRANCH  23  25
ATOM     25  C   UNL     1      29.251  14.306  -0.865  0.00  0.00    +0.212 C 
ATOM     26  O   UNL     1      28.622  15.505  -0.385  0.00  0.00    -0.218 OA
BRANCH  25  27
ATOM     27  C   UNL     1      30.169  13.726   0.278  0.00  0.00    +0.171 C 
ATOM     28  O   UNL     1      29.967  14.380   1.527  0.00  0.00    -0.343 OA
ATOM     29  C   UNL     1      30.806  14.238   2.635  0.00  0.00    +0.220 C 
ATOM     30  C   UNL     1      32.282  14.465   2.267  0.00  0.00    +0.076 C 
ATOM     31  C   UNL     1      32.611  13.539   1.084  0.00  0.00    +0.177 C 
ATOM     32  O   UNL     1      33.979  13.680   0.727  0.00  0.00    -0.221 OA
ATOM     33  C   UNL     1      31.675  13.857  -0.124  0.00  0.00    +0.155 C 
BRANCH  33  34
ATOM     34  N   UNL     1      31.989  12.984  -1.252  0.00  0.00    -0.202 NA
ATOM     35  C   UNL     1      32.743  13.228  -2.354  0.00  0.00    +0.242 C 
ATOM     36  C   UNL     1      33.147  12.061  -3.217  0.00  0.00    +0.096 C 
ATOM     37  O   UNL     1      33.076  14.382  -2.619  0.00  0.00    -0.273 OA
ENDBRANCH  33  34
BRANCH  29  38
ATOM     38  C   UNL     1      30.597  12.836   3.429  0.00  0.00    +0.391 C 
ATOM     39  O   UNL     1      31.678  12.723   4.225  0.00  0.00    -0.243 OA
ATOM     40  O   UNL     1      29.322  12.482   3.226  0.00  0.00    -0.243 OA
ENDBRANCH  29  38
ENDBRANCH  25  27
ENDBRANCH  23  25
ENDBRANCH  22  23
ENDBRANCH   2  22
TORSDOF 11
