REMARK VINA RESULT:    -6.514      2.421      8.463
REMARK INTER + INTRA:         -14.766
REMARK INTER:                 -11.553
REMARK INTRA:                  -3.213
REMARK UNBOUND:                -2.540
REMARK  Name = lig_assembled_31.pdb
REMARK  15 active torsions:
REMARK  status: ('A' for Active; 'I' for Inactive)
REMARK    1  A    between atoms: _2  and  _10
REMARK    2  A    between atoms: _3  and  _11
REMARK    3  A    between atoms: _4  and  _13
REMARK    4  A    between atoms: _7  and  _8
REMARK    5  A    between atoms: _7  and  _19
REMARK    6  A    between atoms: _10  and  _11
REMARK    7  A    between atoms: _13  and  _14
REMARK    8  A    between atoms: _19  and  _21
REMARK    9  A    between atoms: _20  and  _25
REMARK   10  A    between atoms: _21  and  _24
REMARK   11  A    between atoms: _29  and  _39
REMARK   12  A    between atoms: _31  and  _32
REMARK   13  A    between atoms: _33  and  _35
REMARK   14  A    between atoms: _35  and  _37
REMARK   15  A    between atoms: _37  and  _39
REMARK                            x       y       z     vdW  Elec       q    Type
REMARK                         _______ _______ _______ _____ _____    ______ ____
ROOT
ATOM      1  C   UNL     1      27.529  14.693  -2.188  0.00  0.00    +0.400 C 
ATOM      2  N   UNL     1      28.167  15.334  -1.153  0.00  0.00    -0.278 N 
ATOM      3  H   UNL     1      28.560  14.531  -0.568  0.00  0.00    +0.152 HD
ATOM      4  O   UNL     1      27.696  13.482  -2.309  0.00  0.00    -0.226 OA
ENDROOT
BRANCH   2   5
ATOM      5  C   UNL     1      28.551  16.592  -0.516  0.00  0.00    +0.152 C 
BRANCH   5   6
ATOM      6  C   UNL     1      30.049  16.756  -0.185  0.00  0.00    +0.193 C 
ATOM      7  O   UNL     1      30.180  17.996   0.544  0.00  0.00    -0.219 OA
BRANCH   6   8
ATOM      8  C   UNL     1      30.698  15.698   0.735  0.00  0.00    +0.212 C 
ATOM      9  O   UNL     1      29.687  14.947   1.427  0.00  0.00    -0.218 OA
BRANCH   8  10
ATOM     10  C   UNL     1      31.634  14.690  -0.035  0.00  0.00    +0.171 C 
ATOM     11  O   UNL     1      31.005  14.123  -1.179  0.00  0.00    -0.343 OA
ATOM     12  C   UNL     1      31.506  13.033  -1.895  0.00  0.00    +0.220 C 
ATOM     13  C   UNL     1      31.857  11.855  -0.969  0.00  0.00    +0.076 C 
ATOM     14  C   UNL     1      32.789  12.391   0.130  0.00  0.00    +0.177 C 
ATOM     15  O   UNL     1      33.176  11.331   0.992  0.00  0.00    -0.221 OA
ATOM     16  C   UNL     1      32.083  13.537   0.920  0.00  0.00    +0.155 C 
BRANCH  16  17
ATOM     17  N   UNL     1      32.963  14.045   1.970  0.00  0.00    -0.202 NA
ATOM     18  C   UNL     1      32.958  13.792   3.304  0.00  0.00    +0.242 C 
ATOM     19  C   UNL     1      34.156  14.212   4.116  0.00  0.00    +0.096 C 
ATOM     20  O   UNL     1      31.989  13.231   3.813  0.00  0.00    -0.273 OA
ENDBRANCH  16  17
BRANCH  12  21
ATOM     21  C   UNL     1      32.748  13.416  -2.871  0.00  0.00    +0.391 C 
ATOM     22  O   UNL     1      32.702  12.507  -3.864  0.00  0.00    -0.243 OA
ATOM     23  O   UNL     1      33.150  14.636  -2.496  0.00  0.00    -0.243 OA
ENDBRANCH  12  21
ENDBRANCH   8  10
ENDBRANCH   6   8
ENDBRANCH   5   6
ENDBRANCH   2   5
BRANCH   1  24
ATOM     24  O   UNL     1      26.777  15.438  -2.930  0.00  0.00    -0.450 OA
BRANCH  24  25
ATOM     25  C   UNL     1      26.780  16.017  -4.214  0.00  0.00    +0.240 C 
BRANCH  25  26
ATOM     26  C   UNL     1      25.805  15.438  -5.257  0.00  0.00    +0.100 C 
BRANCH  26  28
ATOM     27  N   UNL     1      24.931  13.195  -4.681  0.00  0.00    -0.134 NA
ATOM     28  C   UNL     1      24.816  14.557  -4.604  0.00  0.00    +0.086 A 
ATOM     29  C   UNL     1      23.698  14.872  -3.865  0.00  0.00    +0.133 A 
ATOM     30  N   UNL     1      23.173  13.659  -3.531  0.00  0.00    -0.250 N 
ATOM     31  N   UNL     1      23.918  12.653  -4.017  0.00  0.00    -0.065 NA
BRANCH  30  32
ATOM     32  C   UNL     1      21.976  13.382  -2.764  0.00  0.00    +0.164 C 
BRANCH  32  33
ATOM     33  C   UNL     1      22.256  13.417  -1.269  0.00  0.00    +0.129 C 
BRANCH  33  34
ATOM     34  N   UNL     1      23.664  13.547  -0.918  0.00  0.00    -0.298 N 
ATOM     35  H   UNL     1      24.239  14.260  -1.344  0.00  0.00    +0.150 HD
ATOM     36  C   UNL     1      24.296  12.466  -0.360  0.00  0.00    +0.300 C 
ATOM     37  O   UNL     1      23.703  11.434  -0.054  0.00  0.00    -0.253 OA
ATOM     38  N   UNL     1      25.629  12.642  -0.148  0.00  0.00    -0.292 N 
ATOM     39  H   UNL     1      26.123  13.473  -0.438  0.00  0.00    +0.151 HD
BRANCH  38  40
ATOM     40  C   UNL     1      26.383  11.561   0.442  0.00  0.00    +0.180 C 
BRANCH  40  41
ATOM     41  C   UNL     1      27.134  11.963   1.658  0.00  0.00    +0.122 A 
ATOM     42  O   UNL     1      26.529  12.777   2.574  0.00  0.00    -0.466 OA
ATOM     43  C   UNL     1      27.431  12.983   3.573  0.00  0.00    +0.195 A 
ATOM     44  C   UNL     1      28.605  12.316   3.314  0.00  0.00    +0.041 A 
ATOM     45  C   UNL     1      28.415  11.658   2.077  0.00  0.00    +0.046 A 
ENDBRANCH  40  41
ENDBRANCH  38  40
ENDBRANCH  33  34
ENDBRANCH  32  33
ENDBRANCH  30  32
ENDBRANCH  26  28
ENDBRANCH  25  26
ENDBRANCH  24  25
ENDBRANCH   1  24
TORSDOF 15
