REMARK VINA RESULT:    -7.324      1.401      2.155
REMARK INTER + INTRA:         -13.869
REMARK INTER:                 -12.334
REMARK INTRA:                  -1.535
REMARK UNBOUND:                -1.407
REMARK  Name = lig_assembled_82.pdb
REMARK  14 active torsions:
REMARK  status: ('A' for Active; 'I' for Inactive)
REMARK    1  A    between atoms: _2  and  _8
REMARK    2  A    between atoms: _4  and  _15
REMARK    3  A    between atoms: _5  and  _6
REMARK    4  A    between atoms: _5  and  _17
REMARK    5  A    between atoms: _8  and  _9
REMARK    6  A    between atoms: _15  and  _16
REMARK    7  A    between atoms: _17  and  _19
REMARK    8  A    between atoms: _18  and  _23
REMARK    9  A    between atoms: _19  and  _22
REMARK   10  A    between atoms: _27  and  _37
REMARK   11  A    between atoms: _29  and  _30
REMARK   12  A    between atoms: _31  and  _33
REMARK   13  A    between atoms: _33  and  _35
REMARK   14  A    between atoms: _35  and  _37
REMARK                            x       y       z     vdW  Elec       q    Type
REMARK                         _______ _______ _______ _____ _____    ______ ____
ROOT
ATOM      1  C   UNL     1      28.823  16.902  -0.481  0.00  0.00    +0.400 C 
ATOM      2  N   UNL     1      28.945  15.730   0.228  0.00  0.00    -0.278 N 
ATOM      3  H   UNL     1      29.694  15.958   0.954  0.00  0.00    +0.152 HD
ATOM      4  O   UNL     1      29.394  17.901  -0.051  0.00  0.00    -0.226 OA
ENDROOT
BRANCH   2   5
ATOM      5  C   UNL     1      28.509  14.352   0.437  0.00  0.00    +0.152 C 
BRANCH   5   6
ATOM      6  C   UNL     1      29.114  13.297  -0.512  0.00  0.00    +0.193 C 
ATOM      7  O   UNL     1      28.621  13.598  -1.836  0.00  0.00    -0.219 OA
BRANCH   6   8
ATOM      8  C   UNL     1      30.650  13.273  -0.669  0.00  0.00    +0.212 C 
ATOM      9  O   UNL     1      31.118  14.516  -1.217  0.00  0.00    -0.218 OA
BRANCH   8  10
ATOM     10  C   UNL     1      31.412  13.001   0.684  0.00  0.00    +0.171 C 
ATOM     11  O   UNL     1      30.926  13.801   1.756  0.00  0.00    -0.343 OA
ATOM     12  C   UNL     1      31.569  13.941   2.989  0.00  0.00    +0.220 C 
ATOM     13  C   UNL     1      33.054  14.307   2.819  0.00  0.00    +0.076 C 
ATOM     14  C   UNL     1      33.682  13.267   1.876  0.00  0.00    +0.177 C 
ATOM     15  O   UNL     1      35.068  13.536   1.717  0.00  0.00    -0.221 OA
ATOM     16  C   UNL     1      32.942  13.271   0.503  0.00  0.00    +0.155 C 
BRANCH  16  17
ATOM     17  N   UNL     1      33.540  12.289  -0.398  0.00  0.00    -0.202 NA
ATOM     18  C   UNL     1      34.406  12.470  -1.428  0.00  0.00    +0.242 C 
ATOM     19  C   UNL     1      35.094  11.260  -2.004  0.00  0.00    +0.096 C 
ATOM     20  O   UNL     1      34.608  13.603  -1.860  0.00  0.00    -0.273 OA
ENDBRANCH  16  17
BRANCH  12  21
ATOM     21  C   UNL     1      31.378  12.659   3.968  0.00  0.00    +0.391 C 
ATOM     22  O   UNL     1      30.389  11.937   3.406  0.00  0.00    -0.243 OA
ATOM     23  O   UNL     1      32.449  12.645   4.772  0.00  0.00    -0.243 OA
ENDBRANCH  12  21
ENDBRANCH   8  10
ENDBRANCH   6   8
ENDBRANCH   5   6
ENDBRANCH   2   5
BRANCH   1  24
ATOM     24  O   UNL     1      28.129  16.829  -1.569  0.00  0.00    -0.450 OA
BRANCH  24  25
ATOM     25  C   UNL     1      27.122  17.546  -2.245  0.00  0.00    +0.240 C 
BRANCH  25  26
ATOM     26  C   UNL     1      26.992  17.328  -3.764  0.00  0.00    +0.100 C 
BRANCH  26  28
ATOM     27  N   UNL     1      25.973  15.687  -5.310  0.00  0.00    -0.134 NA
ATOM     28  C   UNL     1      26.038  16.255  -4.059  0.00  0.00    +0.086 A 
ATOM     29  C   UNL     1      25.093  15.646  -3.253  0.00  0.00    +0.134 A 
ATOM     30  N   UNL     1      24.409  14.823  -4.103  0.00  0.00    -0.247 N 
ATOM     31  N   UNL     1      25.000  14.787  -5.312  0.00  0.00    -0.065 NA
BRANCH  30  32
ATOM     32  C   UNL     1      23.147  14.117  -3.870  0.00  0.00    +0.176 C 
BRANCH  32  33
ATOM     33  C   UNL     1      23.313  12.910  -2.980  0.00  0.00    -0.049 C 
ATOM     34  C   UNL     1      22.763  12.986  -1.592  0.00  0.00    +0.023 C 
ATOM     35  C   UNL     1      22.127  11.669  -0.955  0.00  0.00    -0.025 C 
ATOM     36  C   UNL     1      21.356  10.509  -1.596  0.00  0.00    +0.012 C 
ATOM     37  C   UNL     1      23.667  11.263  -0.805  0.00  0.00    -0.000 C 
ATOM     38  C   UNL     1      24.354  10.815  -2.134  0.00  0.00    +0.031 C 
ATOM     39  C   UNL     1      21.220  12.207   0.181  0.00  0.00    +0.012 C 
ATOM     40  C   UNL     1      23.937  12.770  -0.554  0.00  0.00    +0.012 C 
ATOM     41  C   UNL     1      24.065  11.821  -3.236  0.00  0.00    -0.025 C 
ENDBRANCH  32  33
ENDBRANCH  30  32
ENDBRANCH  26  28
ENDBRANCH  25  26
ENDBRANCH  24  25
ENDBRANCH   1  24
TORSDOF 12
