REMARK VINA RESULT:    -6.754      2.267      5.839
REMARK INTER + INTRA:         -14.713
REMARK INTER:                 -12.243
REMARK INTRA:                  -2.470
REMARK UNBOUND:                -2.234
REMARK  Name = lig_assembled_83.pdb
REMARK  15 active torsions:
REMARK  status: ('A' for Active; 'I' for Inactive)
REMARK    1  A    between atoms: _2  and  _11
REMARK    2  A    between atoms: _3  and  _13
REMARK    3  A    between atoms: _8  and  _9
REMARK    4  A    between atoms: _8  and  _19
REMARK    5  A    between atoms: _11  and  _12
REMARK    6  A    between atoms: _12  and  _13
REMARK    7  A    between atoms: _12  and  _17
REMARK    8  A    between atoms: _19  and  _21
REMARK    9  A    between atoms: _20  and  _25
REMARK   10  A    between atoms: _21  and  _24
REMARK   11  A    between atoms: _29  and  _39
REMARK   12  A    between atoms: _31  and  _32
REMARK   13  A    between atoms: _33  and  _35
REMARK   14  A    between atoms: _35  and  _37
REMARK   15  A    between atoms: _37  and  _39
REMARK                            x       y       z     vdW  Elec       q    Type
REMARK                         _______ _______ _______ _____ _____    ______ ____
ROOT
ATOM      1  C   UNL     1      24.842  10.085   1.041  0.00  0.00    +0.400 C 
ATOM      2  N   UNL     1      25.786  10.763   1.775  0.00  0.00    -0.278 N 
ATOM      3  H   UNL     1      26.705  10.305   1.479  0.00  0.00    +0.152 HD
ATOM      4  O   UNL     1      25.231   9.322   0.161  0.00  0.00    -0.226 OA
ENDROOT
BRANCH   2   5
ATOM      5  C   UNL     1      26.091  11.812   2.744  0.00  0.00    +0.152 C 
BRANCH   5   6
ATOM      6  C   UNL     1      27.319  12.692   2.430  0.00  0.00    +0.193 C 
ATOM      7  O   UNL     1      27.490  13.583   3.554  0.00  0.00    -0.219 OA
BRANCH   6   8
ATOM      8  C   UNL     1      28.685  11.987   2.285  0.00  0.00    +0.212 C 
ATOM      9  O   UNL     1      28.634  11.003   1.239  0.00  0.00    -0.218 OA
BRANCH   8  10
ATOM     10  C   UNL     1      29.872  12.980   1.984  0.00  0.00    +0.171 C 
ATOM     11  O   UNL     1      30.144  13.103   0.592  0.00  0.00    -0.343 OA
ATOM     12  C   UNL     1      31.281  13.717   0.062  0.00  0.00    +0.220 C 
ATOM     13  C   UNL     1      32.571  13.178   0.705  0.00  0.00    +0.076 C 
ATOM     14  C   UNL     1      32.417  13.307   2.230  0.00  0.00    +0.177 C 
ATOM     15  O   UNL     1      33.601  12.859   2.873  0.00  0.00    -0.221 OA
ATOM     16  C   UNL     1      31.170  12.503   2.713  0.00  0.00    +0.155 C 
BRANCH  16  17
ATOM     17  N   UNL     1      31.024  12.617   4.162  0.00  0.00    -0.202 NA
ATOM     18  C   UNL     1      31.137  11.665   5.123  0.00  0.00    +0.242 C 
ATOM     19  C   UNL     1      31.230  12.107   6.561  0.00  0.00    +0.096 C 
ATOM     20  O   UNL     1      31.162  10.478   4.803  0.00  0.00    -0.273 OA
ENDBRANCH  16  17
BRANCH  12  21
ATOM     21  C   UNL     1      31.223  15.339   0.110  0.00  0.00    +0.391 C 
ATOM     22  O   UNL     1      32.136  15.747  -0.793  0.00  0.00    -0.243 OA
ATOM     23  O   UNL     1      30.109  15.650   0.784  0.00  0.00    -0.243 OA
ENDBRANCH  12  21
ENDBRANCH   8  10
ENDBRANCH   6   8
ENDBRANCH   5   6
ENDBRANCH   2   5
BRANCH   1  24
ATOM     24  O   UNL     1      23.612  10.299   1.377  0.00  0.00    -0.450 OA
BRANCH  24  25
ATOM     25  C   UNL     1      22.697  11.367   1.457  0.00  0.00    +0.240 C 
BRANCH  25  26
ATOM     26  C   UNL     1      21.629  11.473   0.352  0.00  0.00    +0.100 C 
BRANCH  26  28
ATOM     27  N   UNL     1      20.879  13.344  -1.097  0.00  0.00    -0.134 NA
ATOM     28  C   UNL     1      21.898  12.632  -0.517  0.00  0.00    +0.086 A 
ATOM     29  C   UNL     1      23.100  13.189  -0.891  0.00  0.00    +0.133 A 
ATOM     30  N   UNL     1      22.745  14.237  -1.681  0.00  0.00    -0.249 N 
ATOM     31  N   UNL     1      21.412  14.325  -1.815  0.00  0.00    -0.065 NA
BRANCH  30  32
ATOM     32  C   UNL     1      23.618  15.166  -2.366  0.00  0.00    +0.178 C 
BRANCH  32  33
ATOM     33  C   UNL     1      23.983  14.679  -3.771  0.00  0.00    +0.156 C 
BRANCH  33  34
ATOM     34  O   UNL     1      23.040  15.187  -4.722  0.00  0.00    -0.388 OA
ATOM     35  H   UNL     1      23.504  15.741  -5.383  0.00  0.00    +0.210 HD
ENDBRANCH  33  34
BRANCH  33  36
ATOM     36  C   UNL     1      25.407  15.121  -4.143  0.00  0.00    +0.162 C 
BRANCH  36  37
ATOM     37  N   UNL     1      26.387  14.757  -3.131  0.00  0.00    -0.269 N 
ATOM     38  C   UNL     1      26.695  13.456  -2.808  0.00  0.00    +0.113 A 
ATOM     39  C   UNL     1      27.673  13.536  -1.845  0.00  0.00    +0.137 A 
ATOM     40  N   UNL     1      27.954  14.841  -1.545  0.00  0.00    -0.172 NA
ATOM     41  C   UNL     1      27.172  15.555  -2.335  0.00  0.00    +0.450 A 
ATOM     42  N   UNL     1      27.179  17.000  -2.330  0.00  0.00    +0.120 N 
ATOM     43  O   UNL     1      26.408  17.583  -3.111  0.00  0.00    +0.045 OA
ATOM     44  O   UNL     1      27.944  17.566  -1.540  0.00  0.00    -0.573 OA
ENDBRANCH  36  37
ENDBRANCH  33  36
ENDBRANCH  32  33
ENDBRANCH  30  32
ENDBRANCH  26  28
ENDBRANCH  25  26
ENDBRANCH  24  25
ENDBRANCH   1  24
TORSDOF 15
