REMARK VINA RESULT:    -6.952      2.532      3.280
REMARK INTER + INTRA:         -13.702
REMARK INTER:                 -12.088
REMARK INTRA:                  -1.614
REMARK UNBOUND:                -1.466
REMARK  Name = lig_assembled_78.pdb
REMARK  13 active torsions:
REMARK  status: ('A' for Active; 'I' for Inactive)
REMARK    1  A    between atoms: _2  and  _8
REMARK    2  A    between atoms: _5  and  _6
REMARK    3  A    between atoms: _5  and  _16
REMARK    4  A    between atoms: _8  and  _44
REMARK    5  A    between atoms: _9  and  _44
REMARK    6  A    between atoms: _16  and  _18
REMARK    7  A    between atoms: _17  and  _22
REMARK    8  A    between atoms: _18  and  _21
REMARK    9  A    between atoms: _26  and  _36
REMARK   10  A    between atoms: _28  and  _29
REMARK   11  A    between atoms: _30  and  _32
REMARK   12  A    between atoms: _32  and  _34
REMARK   13  A    between atoms: _34  and  _36
REMARK                            x       y       z     vdW  Elec       q    Type
REMARK                         _______ _______ _______ _____ _____    ______ ____
ROOT
ATOM      1  C   UNL     1      28.947  16.871  -0.603  0.00  0.00    +0.400 C 
ATOM      2  N   UNL     1      29.270  15.863   0.275  0.00  0.00    -0.278 N 
ATOM      3  H   UNL     1      30.137  16.238   0.774  0.00  0.00    +0.152 HD
ATOM      4  O   UNL     1      29.540  17.942  -0.499  0.00  0.00    -0.226 OA
ENDROOT
BRANCH   2   5
ATOM      5  C   UNL     1      28.958  14.548   0.828  0.00  0.00    +0.152 C 
BRANCH   5   6
ATOM      6  C   UNL     1      30.054  13.899   1.698  0.00  0.00    +0.193 C 
ATOM      7  O   UNL     1      30.259  12.566   1.181  0.00  0.00    -0.219 OA
BRANCH   6   8
ATOM      8  C   UNL     1      31.459  14.542   1.675  0.00  0.00    +0.212 C 
ATOM      9  O   UNL     1      31.438  15.818   2.335  0.00  0.00    -0.218 OA
BRANCH   8  10
ATOM     10  C   UNL     1      32.567  13.645   2.347  0.00  0.00    +0.171 C 
ATOM     11  O   UNL     1      32.908  14.085   3.657  0.00  0.00    -0.343 OA
ATOM     12  C   UNL     1      34.015  13.632   4.378  0.00  0.00    +0.220 C 
ATOM     13  C   UNL     1      35.308  13.713   3.549  0.00  0.00    +0.076 C 
ATOM     14  C   UNL     1      35.054  12.978   2.222  0.00  0.00    +0.177 C 
ATOM     15  O   UNL     1      36.234  12.989   1.432  0.00  0.00    -0.221 OA
ATOM     16  C   UNL     1      33.858  13.634   1.465  0.00  0.00    +0.155 C 
BRANCH  16  17
ATOM     17  N   UNL     1      33.618  12.943   0.201  0.00  0.00    -0.202 NA
ATOM     18  C   UNL     1      33.784  13.380  -1.073  0.00  0.00    +0.242 C 
ATOM     19  C   UNL     1      33.745  12.368  -2.188  0.00  0.00    +0.096 C 
ATOM     20  O   UNL     1      33.964  14.578  -1.286  0.00  0.00    -0.273 OA
ENDBRANCH  16  17
BRANCH  12  21
ATOM     21  C   UNL     1      33.809  12.153   5.019  0.00  0.00    +0.391 C 
ATOM     22  O   UNL     1      35.049  11.740   5.346  0.00  0.00    -0.243 OA
ATOM     23  O   UNL     1      32.496  12.032   5.255  0.00  0.00    -0.243 OA
ENDBRANCH  12  21
ENDBRANCH   8  10
ENDBRANCH   6   8
ENDBRANCH   5   6
ENDBRANCH   2   5
BRANCH   1  24
ATOM     24  O   UNL     1      28.054  16.577  -1.490  0.00  0.00    -0.450 OA
BRANCH  24  25
ATOM     25  C   UNL     1      27.219  17.224  -2.421  0.00  0.00    +0.240 C 
BRANCH  25  26
ATOM     26  C   UNL     1      26.553  16.354  -3.505  0.00  0.00    +0.100 C 
BRANCH  26  28
ATOM     27  N   UNL     1      26.001  14.195  -2.422  0.00  0.00    -0.134 NA
ATOM     28  C   UNL     1      25.595  15.416  -2.891  0.00  0.00    +0.086 A 
ATOM     29  C   UNL     1      24.241  15.551  -2.679  0.00  0.00    +0.135 A 
ATOM     30  N   UNL     1      23.896  14.407  -2.026  0.00  0.00    -0.230 N 
ATOM     31  N   UNL     1      24.945  13.575  -1.914  0.00  0.00    -0.064 NA
BRANCH  30  32
ATOM     32  C   UNL     1      22.596  13.996  -1.554  0.00  0.00    +0.316 C 
BRANCH  32  33
ATOM     33  S   UNL     1      21.631  13.147  -2.775  0.00  0.00    +0.017 S 
ATOM     34  O   UNL     1      22.402  12.993  -3.994  0.00  0.00    -0.168 OA
ATOM     35  O   UNL     1      21.010  11.998  -2.137  0.00  0.00    -0.168 OA
BRANCH  33  36
ATOM     36  C   UNL     1      20.324  14.291  -3.169  0.00  0.00    +0.090 A 
ATOM     37  C   UNL     1      20.635  15.478  -3.840  0.00  0.00    +0.027 A 
ATOM     38  C   UNL     1      19.612  16.365  -4.173  0.00  0.00    +0.002 A 
ATOM     39  C   UNL     1      18.289  16.056  -3.853  0.00  0.00    +0.000 A 
ATOM     40  C   UNL     1      17.982  14.860  -3.202  0.00  0.00    +0.002 A 
ATOM     41  C   UNL     1      19.001  13.972  -2.857  0.00  0.00    +0.027 A 
ENDBRANCH  33  36
ENDBRANCH  32  33
ENDBRANCH  30  32
ENDBRANCH  26  28
ENDBRANCH  25  26
ENDBRANCH  24  25
ENDBRANCH   1  24
TORSDOF 13
