REMARK VINA RESULT:    -6.463      4.374      6.669
REMARK INTER + INTRA:         -14.287
REMARK INTER:                 -10.688
REMARK INTRA:                  -3.599
REMARK UNBOUND:                -2.913
REMARK  Name = lig_assembled_92.pdb
REMARK  13 active torsions:
REMARK  status: ('A' for Active; 'I' for Inactive)
REMARK    1  A    between atoms: _2  and  _10
REMARK    2  A    between atoms: _3  and  _49
REMARK    3  A    between atoms: _7  and  _8
REMARK    4  A    between atoms: _7  and  _20
REMARK    5  A    between atoms: _13  and  _49
REMARK    6  A    between atoms: _20  and  _22
REMARK    7  A    between atoms: _21  and  _26
REMARK    8  A    between atoms: _22  and  _25
REMARK    9  A    between atoms: _30  and  _40
REMARK   10  A    between atoms: _32  and  _33
REMARK   11  A    between atoms: _34  and  _36
REMARK   12  A    between atoms: _36  and  _38
REMARK   13  A    between atoms: _38  and  _40
REMARK                            x       y       z     vdW  Elec       q    Type
REMARK                         _______ _______ _______ _____ _____    ______ ____
ROOT
ATOM      1  O   UNL     1      28.604  15.878  -0.329  0.00  0.00    -0.450 OA
ENDROOT
BRANCH   1   2
ATOM      2  C   UNL     1      29.609  16.657  -0.096  0.00  0.00    +0.400 C 
ATOM      3  N   UNL     1      30.811  16.028   0.129  0.00  0.00    -0.278 N 
ATOM      4  H   UNL     1      31.518  16.829   0.100  0.00  0.00    +0.152 HD
ATOM      5  O   UNL     1      29.588  17.885  -0.088  0.00  0.00    -0.226 OA
BRANCH   3   6
ATOM      6  C   UNL     1      31.535  14.789   0.398  0.00  0.00    +0.152 C 
BRANCH   6   7
ATOM      7  C   UNL     1      32.506  14.317  -0.704  0.00  0.00    +0.193 C 
ATOM      8  O   UNL     1      33.091  15.506  -1.280  0.00  0.00    -0.219 OA
BRANCH   7   9
ATOM      9  C   UNL     1      33.718  13.463  -0.271  0.00  0.00    +0.212 C 
ATOM     10  O   UNL     1      34.941  14.052  -0.743  0.00  0.00    -0.218 OA
BRANCH   9  11
ATOM     11  C   UNL     1      33.821  13.270   1.290  0.00  0.00    +0.171 C 
ATOM     12  O   UNL     1      34.785  14.132   1.886  0.00  0.00    -0.343 OA
ATOM     13  C   UNL     1      35.251  14.006   3.197  0.00  0.00    +0.220 C 
ATOM     14  C   UNL     1      35.711  12.571   3.504  0.00  0.00    +0.076 C 
ATOM     15  C   UNL     1      34.556  11.625   3.134  0.00  0.00    +0.177 C 
ATOM     16  O   UNL     1      34.916  10.285   3.436  0.00  0.00    -0.221 OA
ATOM     17  C   UNL     1      34.191  11.788   1.625  0.00  0.00    +0.155 C 
BRANCH  17  18
ATOM     18  N   UNL     1      33.098  10.887   1.268  0.00  0.00    -0.202 NA
ATOM     19  C   UNL     1      33.080   9.849   0.394  0.00  0.00    +0.242 C 
ATOM     20  C   UNL     1      31.910   8.901   0.433  0.00  0.00    +0.096 C 
ATOM     21  O   UNL     1      34.008   9.707  -0.400  0.00  0.00    -0.273 OA
ENDBRANCH  17  18
BRANCH  13  22
ATOM     22  C   UNL     1      34.200  14.547   4.312  0.00  0.00    +0.391 C 
ATOM     23  O   UNL     1      33.368  15.365   3.637  0.00  0.00    -0.243 OA
ATOM     24  O   UNL     1      34.363  13.763   5.385  0.00  0.00    -0.243 OA
ENDBRANCH  13  22
ENDBRANCH   9  11
ENDBRANCH   7   9
ENDBRANCH   6   7
ENDBRANCH   3   6
ENDBRANCH   1   2
BRANCH   1  25
ATOM     25  C   UNL     1      28.176  14.948  -1.296  0.00  0.00    +0.240 C 
BRANCH  25  26
ATOM     26  C   UNL     1      27.418  13.703  -0.798  0.00  0.00    +0.100 C 
BRANCH  26  28
ATOM     27  N   UNL     1      29.066  12.004  -0.059  0.00  0.00    -0.134 NA
ATOM     28  C   UNL     1      28.196  13.011   0.246  0.00  0.00    +0.086 A 
ATOM     29  C   UNL     1      28.214  13.224   1.604  0.00  0.00    +0.139 A 
ATOM     30  N   UNL     1      29.142  12.333   2.093  0.00  0.00    -0.220 N 
ATOM     31  N   UNL     1      29.633  11.593   1.068  0.00  0.00    -0.061 NA
BRANCH  30  32
ATOM     32  C   UNL     1      29.597  12.177   3.427  0.00  0.00    +0.067 A 
ATOM     33  C   UNL     1      30.857  12.663   3.807  0.00  0.00    +0.030 A 
ATOM     34  C   UNL     1      31.326  12.456   5.104  0.00  0.00    +0.031 A 
ATOM     35  C   UNL     1      30.533  11.773   6.029  0.00  0.00    +0.109 A 
ATOM     36  C   UNL     1      29.273  11.293   5.668  0.00  0.00    +0.031 A 
ATOM     37  C   UNL     1      28.799  11.504   4.368  0.00  0.00    +0.030 A 
BRANCH  35  38
ATOM     38  S   UNL     1      31.223  11.397   7.618  0.00  0.00    +0.074 S 
ATOM     39  O   UNL     1      30.465  12.135   8.610  0.00  0.00    -0.150 OA
ATOM     40  O   UNL     1      31.364   9.964   7.733  0.00  0.00    -0.150 OA
BRANCH  38  41
ATOM     41  N   UNL     1      32.736  12.145   7.579  0.00  0.00    -0.194 N 
ATOM     42  H   UNL     1      32.697  12.900   8.259  0.00  0.00    +0.176 HD
ATOM     43  C   UNL     1      33.786  11.233   7.811  0.00  0.00    +0.177 A 
ATOM     44  S   UNL     1      34.512  11.032   9.345  0.00  0.00    -0.059 S 
ATOM     45  C   UNL     1      35.638   9.943   8.643  0.00  0.00    +0.068 A 
ATOM     46  C   UNL     1      35.425   9.876   7.282  0.00  0.00    +0.120 A 
ATOM     47  N   UNL     1      34.341  10.593   6.812  0.00  0.00    -0.232 NA
ENDBRANCH  38  41
ENDBRANCH  35  38
ENDBRANCH  30  32
ENDBRANCH  26  28
ENDBRANCH  25  26
ENDBRANCH   1  25
TORSDOF 13
