REMARK VINA RESULT:    -6.444      1.525      2.068
REMARK INTER + INTRA:         -13.540
REMARK INTER:                 -11.636
REMARK INTRA:                  -1.904
REMARK UNBOUND:                -1.823
REMARK  Name = lig_assembled_12.pdb
REMARK  14 active torsions:
REMARK  status: ('A' for Active; 'I' for Inactive)
REMARK    1  A    between atoms: _2  and  _8
REMARK    2  A    between atoms: _5  and  _6
REMARK    3  A    between atoms: _5  and  _16
REMARK    4  A    between atoms: _8  and  _15
REMARK    5  A    between atoms: _9  and  _10
REMARK    6  A    between atoms: _9  and  _15
REMARK    7  A    between atoms: _16  and  _18
REMARK    8  A    between atoms: _17  and  _22
REMARK    9  A    between atoms: _18  and  _21
REMARK   10  A    between atoms: _26  and  _36
REMARK   11  A    between atoms: _28  and  _29
REMARK   12  A    between atoms: _30  and  _32
REMARK   13  A    between atoms: _32  and  _34
REMARK   14  A    between atoms: _34  and  _36
REMARK                            x       y       z     vdW  Elec       q    Type
REMARK                         _______ _______ _______ _____ _____    ______ ____
ROOT
ATOM      1  C   UNL     1      27.152  12.942  -2.708  0.00  0.00    +0.400 C 
ATOM      2  N   UNL     1      27.495  13.783  -1.676  0.00  0.00    -0.278 N 
ATOM      3  H   UNL     1      26.899  13.431  -0.861  0.00  0.00    +0.152 HD
ATOM      4  O   UNL     1      26.462  11.959  -2.449  0.00  0.00    -0.226 OA
ENDROOT
BRANCH   2   5
ATOM      5  C   UNL     1      28.299  14.907  -1.202  0.00  0.00    +0.152 C 
BRANCH   5   6
ATOM      6  C   UNL     1      29.088  14.674   0.103  0.00  0.00    +0.193 C 
ATOM      7  O   UNL     1      29.106  13.247   0.329  0.00  0.00    -0.219 OA
BRANCH   6   8
ATOM      8  C   UNL     1      30.577  15.086   0.121  0.00  0.00    +0.212 C 
ATOM      9  O   UNL     1      30.718  16.439   0.583  0.00  0.00    -0.218 OA
BRANCH   8  10
ATOM     10  C   UNL     1      31.472  14.151   1.021  0.00  0.00    +0.171 C 
ATOM     11  O   UNL     1      31.664  14.672   2.332  0.00  0.00    -0.343 OA
ATOM     12  C   UNL     1      32.599  14.181   3.246  0.00  0.00    +0.220 C 
ATOM     13  C   UNL     1      34.000  14.065   2.622  0.00  0.00    +0.076 C 
ATOM     14  C   UNL     1      33.864  13.242   1.330  0.00  0.00    +0.177 C 
ATOM     15  O   UNL     1      35.141  13.070   0.732  0.00  0.00    -0.221 OA
ATOM     16  C   UNL     1      32.869  13.938   0.351  0.00  0.00    +0.155 C 
BRANCH  16  17
ATOM     17  N   UNL     1      32.743  13.163  -0.880  0.00  0.00    -0.202 NA
ATOM     18  C   UNL     1      33.038  13.510  -2.159  0.00  0.00    +0.242 C 
ATOM     19  C   UNL     1      33.092  12.424  -3.201  0.00  0.00    +0.096 C 
ATOM     20  O   UNL     1      33.254  14.689  -2.434  0.00  0.00    -0.273 OA
ENDBRANCH  16  17
BRANCH  12  21
ATOM     21  C   UNL     1      32.144  12.792   3.955  0.00  0.00    +0.391 C 
ATOM     22  O   UNL     1      33.259  12.323   4.547  0.00  0.00    -0.243 OA
ATOM     23  O   UNL     1      30.805  12.792   3.943  0.00  0.00    -0.243 OA
ENDBRANCH  12  21
ENDBRANCH   8  10
ENDBRANCH   6   8
ENDBRANCH   5   6
ENDBRANCH   2   5
BRANCH   1  24
ATOM     24  O   UNL     1      27.572  13.292  -3.879  0.00  0.00    -0.450 OA
BRANCH  24  25
ATOM     25  C   UNL     1      27.053  13.617  -5.148  0.00  0.00    +0.240 C 
BRANCH  25  26
ATOM     26  C   UNL     1      26.468  15.029  -5.336  0.00  0.00    +0.100 C 
BRANCH  26  28
ATOM     27  N   UNL     1      25.101  15.871  -3.446  0.00  0.00    -0.134 NA
ATOM     28  C   UNL     1      25.188  15.157  -4.615  0.00  0.00    +0.086 A 
ATOM     29  C   UNL     1      23.950  14.647  -4.923  0.00  0.00    +0.136 A 
ATOM     30  N   UNL     1      23.156  15.056  -3.892  0.00  0.00    -0.226 N 
ATOM     31  N   UNL     1      23.846  15.812  -3.017  0.00  0.00    -0.063 NA
BRANCH  30  32
ATOM     32  C   UNL     1      21.738  14.817  -3.690  0.00  0.00    +0.305 C 
BRANCH  32  33
ATOM     33  O   UNL     1      21.563  13.562  -3.037  0.00  0.00    -0.353 OA
BRANCH  33  34
ATOM     34  C   UNL     1      20.921  13.709  -1.777  0.00  0.00    +0.197 C 
BRANCH  34  35
ATOM     35  C   UNL     1      21.703  12.907  -0.774  0.00  0.00    -0.022 A 
ATOM     36  C   UNL     1      23.094  12.778  -0.893  0.00  0.00    +0.006 A 
ATOM     37  C   UNL     1      23.814  11.999   0.016  0.00  0.00    +0.000 A 
ATOM     38  C   UNL     1      23.151  11.337   1.046  0.00  0.00    +0.000 A 
ATOM     39  C   UNL     1      21.767  11.449   1.168  0.00  0.00    +0.000 A 
ATOM     40  C   UNL     1      21.045  12.226   0.260  0.00  0.00    +0.006 A 
ENDBRANCH  34  35
ENDBRANCH  33  34
ENDBRANCH  32  33
ENDBRANCH  30  32
ENDBRANCH  26  28
ENDBRANCH  25  26
ENDBRANCH  24  25
ENDBRANCH   1  24
TORSDOF 14
