REMARK VINA RESULT:    -6.649      2.487      5.403
REMARK INTER + INTRA:         -13.886
REMARK INTER:                 -10.680
REMARK INTRA:                  -3.206
REMARK UNBOUND:                -1.794
REMARK  Name = lig_assembled_18.pdb
REMARK  14 active torsions:
REMARK  status: ('A' for Active; 'I' for Inactive)
REMARK    1  A    between atoms: _2  and  _9
REMARK    2  A    between atoms: _3  and  _11
REMARK    3  A    between atoms: _6  and  _7
REMARK    4  A    between atoms: _6  and  _16
REMARK    5  A    between atoms: _9  and  _10
REMARK    6  A    between atoms: _11  and  _12
REMARK    7  A    between atoms: _16  and  _18
REMARK    8  A    between atoms: _17  and  _22
REMARK    9  A    between atoms: _18  and  _21
REMARK   10  A    between atoms: _26  and  _36
REMARK   11  A    between atoms: _28  and  _29
REMARK   12  A    between atoms: _30  and  _32
REMARK   13  A    between atoms: _32  and  _34
REMARK   14  A    between atoms: _34  and  _36
REMARK                            x       y       z     vdW  Elec       q    Type
REMARK                         _______ _______ _______ _____ _____    ______ ____
ROOT
ATOM      1  C   UNL     1      31.713  15.657  -0.302  0.00  0.00    +0.400 C 
ATOM      2  N   UNL     1      31.725  14.831   0.797  0.00  0.00    -0.278 N 
ATOM      3  H   UNL     1      32.329  14.008   0.482  0.00  0.00    +0.152 HD
ATOM      4  O   UNL     1      32.471  15.393  -1.233  0.00  0.00    -0.226 OA
ENDROOT
BRANCH   2   5
ATOM      5  C   UNL     1      31.305  14.587   2.175  0.00  0.00    +0.152 C 
BRANCH   5   6
ATOM      6  C   UNL     1      30.753  13.179   2.478  0.00  0.00    +0.193 C 
ATOM      7  O   UNL     1      30.568  13.105   3.909  0.00  0.00    -0.219 OA
BRANCH   6   8
ATOM      8  C   UNL     1      29.373  12.810   1.891  0.00  0.00    +0.212 C 
ATOM      9  O   UNL     1      28.641  13.998   1.545  0.00  0.00    -0.218 OA
BRANCH   8  10
ATOM     10  C   UNL     1      29.462  11.885   0.619  0.00  0.00    +0.171 C 
ATOM     11  O   UNL     1      30.058  12.541  -0.496  0.00  0.00    -0.343 OA
ATOM     12  C   UNL     1      30.042  12.048  -1.802  0.00  0.00    +0.220 C 
ATOM     13  C   UNL     1      28.622  11.653  -2.246  0.00  0.00    +0.076 C 
ATOM     14  C   UNL     1      28.056  10.695  -1.185  0.00  0.00    +0.177 C 
ATOM     15  O   UNL     1      26.756  10.267  -1.567  0.00  0.00    -0.221 OA
ATOM     16  C   UNL     1      28.035  11.391   0.212  0.00  0.00    +0.155 C 
BRANCH  16  17
ATOM     17  N   UNL     1      27.491  10.486   1.221  0.00  0.00    -0.202 NA
ATOM     18  C   UNL     1      26.482  10.681   2.108  0.00  0.00    +0.242 C 
ATOM     19  C   UNL     1      25.927   9.484   2.835  0.00  0.00    +0.096 C 
ATOM     20  O   UNL     1      26.048  11.816   2.294  0.00  0.00    -0.273 OA
ENDBRANCH  16  17
BRANCH  12  21
ATOM     21  C   UNL     1      31.102  10.842  -2.052  0.00  0.00    +0.391 C 
ATOM     22  O   UNL     1      31.987  10.943  -1.041  0.00  0.00    -0.243 OA
ATOM     23  O   UNL     1      30.540  10.039  -2.964  0.00  0.00    -0.243 OA
ENDBRANCH  12  21
ENDBRANCH   8  10
ENDBRANCH   6   8
ENDBRANCH   5   6
ENDBRANCH   2   5
BRANCH   1  24
ATOM     24  O   UNL     1      30.865  16.632  -0.261  0.00  0.00    -0.450 OA
BRANCH  24  25
ATOM     25  C   UNL     1      29.533  16.873   0.128  0.00  0.00    +0.240 C 
BRANCH  25  26
ATOM     26  C   UNL     1      28.652  17.699  -0.829  0.00  0.00    +0.100 C 
BRANCH  26  28
ATOM     27  N   UNL     1      27.839  15.454  -1.494  0.00  0.00    -0.134 NA
ATOM     28  C   UNL     1      27.874  16.806  -1.708  0.00  0.00    +0.086 A 
ATOM     29  C   UNL     1      27.107  17.105  -2.812  0.00  0.00    +0.134 A 
ATOM     30  N   UNL     1      26.608  15.900  -3.205  0.00  0.00    -0.243 N 
ATOM     31  N   UNL     1      27.067  14.905  -2.424  0.00  0.00    -0.065 NA
BRANCH  30  32
ATOM     32  C   UNL     1      25.801  15.592  -4.363  0.00  0.00    +0.240 C 
BRANCH  32  33
ATOM     33  C   UNL     1      24.399  15.173  -3.987  0.00  0.00    +0.235 C 
ATOM     34  O   UNL     1      23.600  14.738  -4.815  0.00  0.00    -0.274 OA
ATOM     35  N   UNL     1      24.101  15.259  -2.641  0.00  0.00    -0.309 N 
ATOM     36  H   UNL     1      24.710  15.770  -2.017  0.00  0.00    +0.149 HD
BRANCH  35  37
ATOM     37  C   UNL     1      22.801  14.877  -2.128  0.00  0.00    +0.146 C 
BRANCH  37  38
ATOM     38  C   UNL     1      22.914  13.586  -1.385  0.00  0.00    +0.007 A 
ATOM     39  S   UNL     1      24.449  12.913  -1.029  0.00  0.00    -0.100 S 
ATOM     40  C   UNL     1      23.747  11.536  -0.295  0.00  0.00    +0.045 A 
ATOM     41  C   UNL     1      22.371  11.589  -0.305  0.00  0.00    +0.008 A 
ATOM     42  C   UNL     1      21.890  12.777  -0.928  0.00  0.00    +0.013 A 
ENDBRANCH  37  38
ENDBRANCH  35  37
ENDBRANCH  32  33
ENDBRANCH  30  32
ENDBRANCH  26  28
ENDBRANCH  25  26
ENDBRANCH  24  25
ENDBRANCH   1  24
TORSDOF 14
