REMARK VINA RESULT:    -7.158      1.315      1.609
REMARK INTER + INTRA:         -14.020
REMARK INTER:                 -12.569
REMARK INTRA:                  -1.451
REMARK UNBOUND:                -1.841
REMARK  Name = lig_assembled_39.pdb
REMARK  12 active torsions:
REMARK  status: ('A' for Active; 'I' for Inactive)
REMARK    1  A    between atoms: _2  and  _8
REMARK    2  A    between atoms: _5  and  _6
REMARK    3  A    between atoms: _5  and  _14
REMARK    4  A    between atoms: _8  and  _9
REMARK    5  A    between atoms: _14  and  _16
REMARK    6  A    between atoms: _15  and  _20
REMARK    7  A    between atoms: _16  and  _19
REMARK    8  A    between atoms: _24  and  _34
REMARK    9  A    between atoms: _26  and  _27
REMARK   10  A    between atoms: _28  and  _30
REMARK   11  A    between atoms: _30  and  _32
REMARK   12  A    between atoms: _32  and  _34
REMARK                            x       y       z     vdW  Elec       q    Type
REMARK                         _______ _______ _______ _____ _____    ______ ____
ROOT
ATOM      1  C   UNL     1      27.810  17.440  -0.849  0.00  0.00    +0.400 C 
ATOM      2  N   UNL     1      28.261  16.300  -0.227  0.00  0.00    -0.278 N 
ATOM      3  H   UNL     1      28.455  16.624   0.772  0.00  0.00    +0.152 HD
ATOM      4  O   UNL     1      27.572  18.424  -0.154  0.00  0.00    -0.226 OA
ENDROOT
BRANCH   2   5
ATOM      5  C   UNL     1      28.571  14.875  -0.313  0.00  0.00    +0.152 C 
BRANCH   5   6
ATOM      6  C   UNL     1      29.585  14.337   0.716  0.00  0.00    +0.193 C 
ATOM      7  O   UNL     1      29.789  12.940   0.408  0.00  0.00    -0.219 OA
BRANCH   6   8
ATOM      8  C   UNL     1      31.005  14.945   0.707  0.00  0.00    +0.212 C 
ATOM      9  O   UNL     1      30.987  16.271   1.260  0.00  0.00    -0.218 OA
BRANCH   8  10
ATOM     10  C   UNL     1      32.059  14.082   1.500  0.00  0.00    +0.171 C 
ATOM     11  O   UNL     1      32.378  14.640   2.771  0.00  0.00    -0.343 OA
ATOM     12  C   UNL     1      33.446  14.224   3.569  0.00  0.00    +0.220 C 
ATOM     13  C   UNL     1      34.765  14.178   2.779  0.00  0.00    +0.076 C 
ATOM     14  C   UNL     1      34.523  13.323   1.524  0.00  0.00    +0.177 C 
ATOM     15  O   UNL     1      35.725  13.215   0.775  0.00  0.00    -0.221 OA
ATOM     16  C   UNL     1      33.374  13.940   0.666  0.00  0.00    +0.155 C 
BRANCH  16  17
ATOM     17  N   UNL     1      33.146  13.135  -0.531  0.00  0.00    -0.202 NA
ATOM     18  C   UNL     1      33.139  13.504  -1.837  0.00  0.00    +0.242 C 
ATOM     19  C   UNL     1      33.170  12.423  -2.886  0.00  0.00    +0.096 C 
ATOM     20  O   UNL     1      33.108  14.697  -2.131  0.00  0.00    -0.273 OA
ENDBRANCH  16  17
BRANCH  12  21
ATOM     21  C   UNL     1      33.167  12.824   4.346  0.00  0.00    +0.391 C 
ATOM     22  O   UNL     1      34.361  12.464   4.853  0.00  0.00    -0.243 OA
ATOM     23  O   UNL     1      31.836  12.716   4.446  0.00  0.00    -0.243 OA
ENDBRANCH  12  21
ENDBRANCH   8  10
ENDBRANCH   6   8
ENDBRANCH   5   6
ENDBRANCH   2   5
BRANCH   1  24
ATOM     24  O   UNL     1      27.710  17.373  -2.136  0.00  0.00    -0.450 OA
BRANCH  24  25
ATOM     25  C   UNL     1      26.716  17.419  -3.134  0.00  0.00    +0.240 C 
BRANCH  25  26
ATOM     26  C   UNL     1      26.744  16.323  -4.216  0.00  0.00    +0.100 C 
BRANCH  26  28
ATOM     27  N   UNL     1      24.761  14.930  -4.722  0.00  0.00    -0.134 NA
ATOM     28  C   UNL     1      25.796  15.245  -3.881  0.00  0.00    +0.086 A 
ATOM     29  C   UNL     1      25.761  14.407  -2.789  0.00  0.00    +0.134 A 
ATOM     30  N   UNL     1      24.734  13.553  -3.067  0.00  0.00    -0.247 N 
ATOM     31  N   UNL     1      24.097  13.909  -4.199  0.00  0.00    -0.065 NA
BRANCH  30  32
ATOM     32  C   UNL     1      24.350  12.348  -2.345  0.00  0.00    +0.181 C 
BRANCH  32  33
ATOM     33  C   UNL     1      23.086  12.519  -1.523  0.00  0.00    -0.012 A 
ATOM     34  C   UNL     1      22.040  13.357  -1.964  0.00  0.00    +0.006 A 
ATOM     35  C   UNL     1      20.873  13.527  -1.214  0.00  0.00    +0.000 A 
ATOM     36  C   UNL     1      20.733  12.882   0.008  0.00  0.00    +0.001 A 
ATOM     37  C   UNL     1      21.767  12.082   0.488  0.00  0.00    +0.015 A 
ATOM     38  C   UNL     1      22.938  11.910  -0.264  0.00  0.00    +0.023 A 
ATOM     39 BR   UNL     1      24.303  10.843   0.521  0.00  0.00    -0.050 Br
ENDBRANCH  32  33
ENDBRANCH  30  32
ENDBRANCH  26  28
ENDBRANCH  25  26
ENDBRANCH  24  25
ENDBRANCH   1  24
TORSDOF 12
