REMARK VINA RESULT:    -7.038      2.991      7.561
REMARK INTER + INTRA:         -13.414
REMARK INTER:                 -10.881
REMARK INTRA:                  -2.533
REMARK UNBOUND:                -1.850
REMARK  Name = lig_assembled_2.pdb
REMARK  11 active torsions:
REMARK  status: ('A' for Active; 'I' for Inactive)
REMARK    1  A    between atoms: _2  and  _8
REMARK    2  A    between atoms: _5  and  _6
REMARK    3  A    between atoms: _5  and  _13
REMARK    4  A    between atoms: _13  and  _15
REMARK    5  A    between atoms: _14  and  _19
REMARK    6  A    between atoms: _15  and  _18
REMARK    7  A    between atoms: _23  and  _33
REMARK    8  A    between atoms: _25  and  _26
REMARK    9  A    between atoms: _27  and  _29
REMARK   10  A    between atoms: _29  and  _31
REMARK   11  A    between atoms: _31  and  _33
REMARK                            x       y       z     vdW  Elec       q    Type
REMARK                         _______ _______ _______ _____ _____    ______ ____
ROOT
ATOM      1  C   UNL     1      29.062  16.972  -0.482  0.00  0.00    +0.400 C 
ATOM      2  N   UNL     1      27.880  16.669  -1.115  0.00  0.00    -0.278 N 
ATOM      3  H   UNL     1      27.238  17.479  -0.842  0.00  0.00    +0.152 HD
ATOM      4  O   UNL     1      29.172  18.079   0.040  0.00  0.00    -0.226 OA
ENDROOT
BRANCH   1   5
ATOM      5  O   UNL     1      29.949  16.032  -0.473  0.00  0.00    -0.450 OA
BRANCH   5   6
ATOM      6  C   UNL     1      31.014  15.576   0.329  0.00  0.00    +0.240 C 
BRANCH   6   7
ATOM      7  C   UNL     1      30.664  14.683   1.534  0.00  0.00    +0.100 C 
BRANCH   7   9
ATOM      8  N   UNL     1      29.796  12.635   0.449  0.00  0.00    -0.134 NA
ATOM      9  C   UNL     1      29.566  13.760   1.186  0.00  0.00    +0.086 A 
ATOM     10  C   UNL     1      28.229  13.825   1.502  0.00  0.00    +0.139 A 
ATOM     11  N   UNL     1      27.679  12.689   0.955  0.00  0.00    -0.220 N 
ATOM     12  N   UNL     1      28.645  11.993   0.307  0.00  0.00    -0.061 NA
BRANCH  11  13
ATOM     13  C   UNL     1      26.340  12.223   1.033  0.00  0.00    +0.067 A 
ATOM     14  C   UNL     1      25.485  12.300  -0.077  0.00  0.00    +0.029 A 
ATOM     15  C   UNL     1      24.157  11.870   0.032  0.00  0.00    +0.022 A 
ATOM     16  C   UNL     1      23.684  11.365   1.241  0.00  0.00    +0.041 A 
ATOM     17 CL   UNL     1      22.045  10.860   1.371  0.00  0.00    -0.084 Cl
ATOM     18  C   UNL     1      24.530  11.271   2.344  0.00  0.00    +0.022 A 
ATOM     19  C   UNL     1      25.857  11.698   2.243  0.00  0.00    +0.029 A 
ENDBRANCH  11  13
ENDBRANCH   7   9
ENDBRANCH   6   7
ENDBRANCH   5   6
ENDBRANCH   1   5
BRANCH   2  20
ATOM     20  C   UNL     1      27.130  15.766  -1.985  0.00  0.00    +0.152 C 
BRANCH  20  21
ATOM     21  C   UNL     1      26.220  16.435  -3.036  0.00  0.00    +0.193 C 
ATOM     22  O   UNL     1      27.050  17.353  -3.781  0.00  0.00    -0.219 OA
BRANCH  21  23
ATOM     23  C   UNL     1      25.585  15.528  -4.113  0.00  0.00    +0.212 C 
ATOM     24  O   UNL     1      26.142  15.818  -5.405  0.00  0.00    -0.218 OA
BRANCH  23  25
ATOM     25  C   UNL     1      25.767  13.990  -3.820  0.00  0.00    +0.171 C 
ATOM     26  O   UNL     1      26.733  13.381  -4.671  0.00  0.00    -0.343 OA
ATOM     27  C   UNL     1      26.916  12.001  -4.796  0.00  0.00    +0.220 C 
ATOM     28  C   UNL     1      25.588  11.272  -5.063  0.00  0.00    +0.076 C 
ATOM     29  C   UNL     1      24.597  11.697  -3.967  0.00  0.00    +0.177 C 
ATOM     30  O   UNL     1      23.362  11.019  -4.144  0.00  0.00    -0.221 OA
ATOM     31  C   UNL     1      24.402  13.245  -3.989  0.00  0.00    +0.155 C 
BRANCH  31  32
ATOM     32  N   UNL     1      23.457  13.653  -2.954  0.00  0.00    -0.202 NA
ATOM     33  C   UNL     1      22.295  14.345  -3.064  0.00  0.00    +0.242 C 
ATOM     34  C   UNL     1      21.364  14.375  -1.879  0.00  0.00    +0.096 C 
ATOM     35  O   UNL     1      22.030  14.925  -4.115  0.00  0.00    -0.273 OA
ENDBRANCH  31  32
BRANCH  27  36
ATOM     36  C   UNL     1      27.720  11.340  -3.548  0.00  0.00    +0.391 C 
ATOM     37  O   UNL     1      27.543  10.012  -3.686  0.00  0.00    -0.243 OA
ATOM     38  O   UNL     1      28.487  12.315  -3.044  0.00  0.00    -0.243 OA
ENDBRANCH  27  36
ENDBRANCH  23  25
ENDBRANCH  21  23
ENDBRANCH  20  21
ENDBRANCH   2  20
TORSDOF 11
