REMARK VINA RESULT:    -7.484      1.431      3.490
REMARK INTER + INTRA:         -13.615
REMARK INTER:                 -12.050
REMARK INTRA:                  -1.565
REMARK UNBOUND:                -1.318
REMARK  Name = lig_assembled_40.pdb
REMARK  12 active torsions:
REMARK  status: ('A' for Active; 'I' for Inactive)
REMARK    1  A    between atoms: _2  and  _8
REMARK    2  A    between atoms: _5  and  _6
REMARK    3  A    between atoms: _5  and  _14
REMARK    4  A    between atoms: _11  and  _12
REMARK    5  A    between atoms: _14  and  _16
REMARK    6  A    between atoms: _15  and  _20
REMARK    7  A    between atoms: _16  and  _19
REMARK    8  A    between atoms: _24  and  _34
REMARK    9  A    between atoms: _26  and  _27
REMARK   10  A    between atoms: _28  and  _30
REMARK   11  A    between atoms: _30  and  _32
REMARK   12  A    between atoms: _32  and  _34
REMARK                            x       y       z     vdW  Elec       q    Type
REMARK                         _______ _______ _______ _____ _____    ______ ____
ROOT
ATOM      1  C   UNL     1      27.727  17.561  -0.915  0.00  0.00    +0.400 C 
ATOM      2  N   UNL     1      28.299  16.637  -0.073  0.00  0.00    -0.278 N 
ATOM      3  H   UNL     1      28.486  17.197   0.818  0.00  0.00    +0.152 HD
ATOM      4  O   UNL     1      27.412  18.653  -0.448  0.00  0.00    -0.226 OA
ENDROOT
BRANCH   1   5
ATOM      5  O   UNL     1      27.602  17.194  -2.148  0.00  0.00    -0.450 OA
BRANCH   5   6
ATOM      6  C   UNL     1      26.826  17.504  -3.282  0.00  0.00    +0.240 C 
BRANCH   6   7
ATOM      7  C   UNL     1      26.463  16.348  -4.233  0.00  0.00    +0.100 C 
BRANCH   7   9
ATOM      8  N   UNL     1      26.858  14.046  -3.413  0.00  0.00    -0.134 NA
ATOM      9  C   UNL     1      26.065  15.155  -3.462  0.00  0.00    +0.086 A 
ATOM     10  C   UNL     1      24.941  14.937  -2.702  0.00  0.00    +0.139 A 
ATOM     11  N   UNL     1      25.106  13.677  -2.173  0.00  0.00    -0.220 N 
ATOM     12  N   UNL     1      26.266  13.150  -2.636  0.00  0.00    -0.061 NA
BRANCH  11  13
ATOM     13  C   UNL     1      24.274  12.987  -1.254  0.00  0.00    +0.067 A 
ATOM     14  C   UNL     1      22.878  13.063  -1.353  0.00  0.00    +0.028 A 
ATOM     15  C   UNL     1      22.071  12.436  -0.399  0.00  0.00    +0.005 A 
ATOM     16  C   UNL     1      22.643  11.728   0.664  0.00  0.00    -0.050 A 
ATOM     17  C   UNL     1      24.037  11.624   0.741  0.00  0.00    +0.005 A 
ATOM     18  C   UNL     1      21.782  11.095   1.716  0.00  0.00    +0.044 C 
ATOM     19  C   UNL     1      24.850  12.249  -0.211  0.00  0.00    +0.028 A 
ENDBRANCH  11  13
ENDBRANCH   7   9
ENDBRANCH   6   7
ENDBRANCH   5   6
ENDBRANCH   1   5
BRANCH   2  20
ATOM     20  C   UNL     1      28.742  15.263   0.150  0.00  0.00    +0.152 C 
BRANCH  20  21
ATOM     21  C   UNL     1      30.147  14.908  -0.378  0.00  0.00    +0.193 C 
ATOM     22  O   UNL     1      30.845  16.158  -0.575  0.00  0.00    -0.219 OA
BRANCH  21  23
ATOM     23  C   UNL     1      31.074  14.092   0.550  0.00  0.00    +0.212 C 
ATOM     24  O   UNL     1      30.437  12.866   0.943  0.00  0.00    -0.218 OA
BRANCH  23  25
ATOM     25  C   UNL     1      32.467  13.749  -0.105  0.00  0.00    +0.171 C 
ATOM     26  O   UNL     1      32.337  12.986  -1.300  0.00  0.00    -0.343 OA
ATOM     27  C   UNL     1      33.398  12.345  -1.945  0.00  0.00    +0.220 C 
ATOM     28  C   UNL     1      34.218  11.480  -0.972  0.00  0.00    +0.076 C 
ATOM     29  C   UNL     1      34.625  12.374   0.211  0.00  0.00    +0.177 C 
ATOM     30  O   UNL     1      35.421  11.632   1.124  0.00  0.00    -0.221 OA
ATOM     31  C   UNL     1      33.355  12.954   0.908  0.00  0.00    +0.155 C 
BRANCH  31  32
ATOM     32  N   UNL     1      33.737  13.799   2.037  0.00  0.00    -0.202 NA
ATOM     33  C   UNL     1      33.469  13.654   3.360  0.00  0.00    +0.242 C 
ATOM     34  C   UNL     1      34.230  14.505   4.342  0.00  0.00    +0.096 C 
ATOM     35  O   UNL     1      32.621  12.840   3.722  0.00  0.00    -0.273 OA
ENDBRANCH  31  32
BRANCH  27  36
ATOM     36  C   UNL     1      34.347  13.356  -2.791  0.00  0.00    +0.391 C 
ATOM     37  O   UNL     1      35.489  12.670  -2.995  0.00  0.00    -0.243 OA
ATOM     38  O   UNL     1      33.550  14.343  -3.217  0.00  0.00    -0.243 OA
ENDBRANCH  27  36
ENDBRANCH  23  25
ENDBRANCH  21  23
ENDBRANCH  20  21
ENDBRANCH   2  20
TORSDOF 11
