REMARK VINA RESULT:    -7.176      2.389      5.234
REMARK INTER + INTRA:         -13.714
REMARK INTER:                 -12.148
REMARK INTRA:                  -1.566
REMARK UNBOUND:                -1.503
REMARK  Name = lig_assembled_89.pdb
REMARK  14 active torsions:
REMARK  status: ('A' for Active; 'I' for Inactive)
REMARK    1  A    between atoms: _2  and  _11
REMARK    2  A    between atoms: _5  and  _19
REMARK    3  A    between atoms: _8  and  _9
REMARK    4  A    between atoms: _8  and  _24
REMARK    5  A    between atoms: _19  and  _20
REMARK    6  A    between atoms: _19  and  _21
REMARK    7  A    between atoms: _24  and  _26
REMARK    8  A    between atoms: _25  and  _30
REMARK    9  A    between atoms: _26  and  _29
REMARK   10  A    between atoms: _34  and  _44
REMARK   11  A    between atoms: _36  and  _37
REMARK   12  A    between atoms: _38  and  _40
REMARK   13  A    between atoms: _40  and  _42
REMARK   14  A    between atoms: _42  and  _44
REMARK                            x       y       z     vdW  Elec       q    Type
REMARK                         _______ _______ _______ _____ _____    ______ ____
ROOT
ATOM      1  C   UNL     1      31.808  12.803  -2.854  0.00  0.00    +0.240 C 
ENDROOT
BRANCH   1   2
ATOM      2  C   UNL     1      31.311  12.817  -1.396  0.00  0.00    +0.100 C 
BRANCH   2   4
ATOM      3  N   UNL     1      29.925  14.734  -0.699  0.00  0.00    -0.134 NA
ATOM      4  C   UNL     1      30.018  13.517  -1.306  0.00  0.00    +0.087 A 
ATOM      5  C   UNL     1      28.778  13.155  -1.776  0.00  0.00    +0.141 A 
ATOM      6  N   UNL     1      27.946  14.210  -1.454  0.00  0.00    -0.200 N 
ATOM      7  N   UNL     1      28.670  15.148  -0.800  0.00  0.00    -0.059 NA
BRANCH   6   8
ATOM      8  C   UNL     1      26.578  14.336  -1.832  0.00  0.00    +0.186 A 
ATOM      9  C   UNL     1      25.479  13.607  -1.423  0.00  0.00    +0.158 A 
ATOM     10  C   UNL     1      25.326  12.433  -0.621  0.00  0.00    +0.280 A 
ATOM     11  O   UNL     1      26.246  11.653  -0.418  0.00  0.00    -0.265 OA
ATOM     12  N   UNL     1      24.030  12.222  -0.107  0.00  0.00    -0.302 N 
ATOM     13  C   UNL     1      22.890  12.861  -0.725  0.00  0.00    +0.069 A 
ATOM     14  C   UNL     1      21.567  12.486  -0.449  0.00  0.00    +0.028 A 
ATOM     15  C   UNL     1      20.488  13.092  -1.105  0.00  0.00    +0.002 A 
ATOM     16  C   UNL     1      20.705  14.095  -2.043  0.00  0.00    +0.002 A 
ATOM     17  C   UNL     1      22.004  14.502  -2.333  0.00  0.00    +0.028 A 
ATOM     18  C   UNL     1      23.081  13.881  -1.684  0.00  0.00    +0.072 A 
ATOM     19  N   UNL     1      24.404  14.262  -1.959  0.00  0.00    -0.291 N 
ATOM     20  C   UNL     1      24.891  15.274  -2.747  0.00  0.00    +0.207 A 
ATOM     21  N   UNL     1      26.203  15.357  -2.685  0.00  0.00    -0.216 NA
BRANCH  12  22
ATOM     22  C   UNL     1      23.858  11.180   0.933  0.00  0.00    +0.085 C 
ATOM     23  C   UNL     1      24.809  11.339   2.134  0.00  0.00    +0.030 C 
ATOM     24  C   UNL     1      23.966   9.771   0.347  0.00  0.00    +0.030 C 
ENDBRANCH  12  22
ENDBRANCH   6   8
ENDBRANCH   2   4
ENDBRANCH   1   2
BRANCH   1  25
ATOM     25  O   UNL     1      32.875  13.662  -3.185  0.00  0.00    -0.450 OA
BRANCH  25  26
ATOM     26  C   UNL     1      33.784  13.790  -4.094  0.00  0.00    +0.400 C 
ATOM     27  N   UNL     1      34.757  12.818  -4.105  0.00  0.00    -0.278 N 
ATOM     28  H   UNL     1      35.272  12.995  -5.025  0.00  0.00    +0.152 HD
ATOM     29  O   UNL     1      33.835  14.670  -4.950  0.00  0.00    -0.226 OA
BRANCH  27  30
ATOM     30  C   UNL     1      35.396  11.690  -3.433  0.00  0.00    +0.152 C 
BRANCH  30  31
ATOM     31  C   UNL     1      36.162  12.017  -2.135  0.00  0.00    +0.193 C 
ATOM     32  O   UNL     1      36.890  13.240  -2.380  0.00  0.00    -0.219 OA
BRANCH  31  33
ATOM     33  C   UNL     1      35.329  12.311  -0.868  0.00  0.00    +0.212 C 
ATOM     34  O   UNL     1      34.491  11.189  -0.546  0.00  0.00    -0.218 OA
BRANCH  33  35
ATOM     35  C   UNL     1      36.210  12.660   0.392  0.00  0.00    +0.171 C 
ATOM     36  O   UNL     1      37.339  11.803   0.525  0.00  0.00    -0.343 OA
ATOM     37  C   UNL     1      38.142  11.729   1.665  0.00  0.00    +0.220 C 
ATOM     38  C   UNL     1      37.305  11.535   2.941  0.00  0.00    +0.076 C 
ATOM     39  C   UNL     1      36.242  12.646   2.969  0.00  0.00    +0.177 C 
ATOM     40  O   UNL     1      35.463  12.538   4.153  0.00  0.00    -0.221 OA
ATOM     41  C   UNL     1      35.348  12.567   1.693  0.00  0.00    +0.155 C 
BRANCH  41  42
ATOM     42  N   UNL     1      34.332  13.616   1.719  0.00  0.00    -0.202 NA
ATOM     43  C   UNL     1      32.992  13.522   1.915  0.00  0.00    +0.242 C 
ATOM     44  C   UNL     1      32.219  14.786   2.188  0.00  0.00    +0.096 C 
ATOM     45  O   UNL     1      32.447  12.421   1.868  0.00  0.00    -0.273 OA
ENDBRANCH  41  42
BRANCH  37  46
ATOM     46  C   UNL     1      39.175  12.974   1.811  0.00  0.00    +0.391 C 
ATOM     47  O   UNL     1      39.508  12.998   3.116  0.00  0.00    -0.243 OA
ATOM     48  O   UNL     1      39.533  13.306   0.565  0.00  0.00    -0.243 OA
ENDBRANCH  37  46
ENDBRANCH  33  35
ENDBRANCH  31  33
ENDBRANCH  30  31
ENDBRANCH  27  30
ENDBRANCH  25  26
ENDBRANCH   1  25
TORSDOF 12
