REMARK VINA RESULT:    -6.393      2.173      2.365
REMARK INTER + INTRA:         -13.538
REMARK INTER:                 -11.213
REMARK INTRA:                  -2.324
REMARK UNBOUND:                -2.287
REMARK  Name = lig_assembled_67.pdb
REMARK  13 active torsions:
REMARK  status: ('A' for Active; 'I' for Inactive)
REMARK    1  A    between atoms: _2  and  _8
REMARK    2  A    between atoms: _5  and  _6
REMARK    3  A    between atoms: _5  and  _14
REMARK    4  A    between atoms: _8  and  _9
REMARK    5  A    between atoms: _9  and  _10
REMARK    6  A    between atoms: _14  and  _16
REMARK    7  A    between atoms: _15  and  _20
REMARK    8  A    between atoms: _16  and  _19
REMARK    9  A    between atoms: _24  and  _34
REMARK   10  A    between atoms: _26  and  _27
REMARK   11  A    between atoms: _28  and  _30
REMARK   12  A    between atoms: _30  and  _32
REMARK   13  A    between atoms: _32  and  _34
REMARK                            x       y       z     vdW  Elec       q    Type
REMARK                         _______ _______ _______ _____ _____    ______ ____
ROOT
ATOM      1  C   UNL     1      27.916  17.314  -1.040  0.00  0.00    +0.400 C 
ATOM      2  N   UNL     1      28.348  16.257  -0.274  0.00  0.00    -0.278 N 
ATOM      3  H   UNL     1      28.582  16.711   0.665  0.00  0.00    +0.152 HD
ATOM      4  O   UNL     1      27.729  18.393  -0.485  0.00  0.00    -0.226 OA
ENDROOT
BRANCH   2   5
ATOM      5  C   UNL     1      28.610  14.824  -0.166  0.00  0.00    +0.152 C 
BRANCH   5   6
ATOM      6  C   UNL     1      29.616  14.398   0.923  0.00  0.00    +0.193 C 
ATOM      7  O   UNL     1      29.768  12.965   0.810  0.00  0.00    -0.219 OA
BRANCH   6   8
ATOM      8  C   UNL     1      31.056  14.947   0.821  0.00  0.00    +0.212 C 
ATOM      9  O   UNL     1      31.116  16.292   1.321  0.00  0.00    -0.218 OA
BRANCH   8  10
ATOM     10  C   UNL     1      32.114  14.073   1.596  0.00  0.00    +0.171 C 
ATOM     11  O   UNL     1      32.491  14.647   2.843  0.00  0.00    -0.343 OA
ATOM     12  C   UNL     1      33.574  14.219   3.613  0.00  0.00    +0.220 C 
ATOM     13  C   UNL     1      34.864  14.122   2.779  0.00  0.00    +0.076 C 
ATOM     14  C   UNL     1      34.557  13.249   1.551  0.00  0.00    +0.177 C 
ATOM     15  O   UNL     1      35.729  13.095   0.764  0.00  0.00    -0.221 OA
ATOM     16  C   UNL     1      33.396  13.879   0.720  0.00  0.00    +0.155 C 
BRANCH  16  17
ATOM     17  N   UNL     1      33.105  13.057  -0.451  0.00  0.00    -0.202 NA
ATOM     18  C   UNL     1      33.092  13.393  -1.766  0.00  0.00    +0.242 C 
ATOM     19  C   UNL     1      33.051  12.285  -2.787  0.00  0.00    +0.096 C 
ATOM     20  O   UNL     1      33.116  14.578  -2.090  0.00  0.00    -0.273 OA
ENDBRANCH  16  17
BRANCH  12  21
ATOM     21  C   UNL     1      33.286  12.843   4.427  0.00  0.00    +0.391 C 
ATOM     22  O   UNL     1      34.481  12.483   4.936  0.00  0.00    -0.243 OA
ATOM     23  O   UNL     1      31.955  12.751   4.540  0.00  0.00    -0.243 OA
ENDBRANCH  12  21
ENDBRANCH   8  10
ENDBRANCH   6   8
ENDBRANCH   5   6
ENDBRANCH   2   5
BRANCH   1  24
ATOM     24  O   UNL     1      27.776  17.070  -2.302  0.00  0.00    -0.450 OA
BRANCH  24  25
ATOM     25  C   UNL     1      26.911  17.400  -3.364  0.00  0.00    +0.240 C 
BRANCH  25  26
ATOM     26  C   UNL     1      26.416  16.249  -4.261  0.00  0.00    +0.100 C 
BRANCH  26  28
ATOM     27  N   UNL     1      24.906  15.171  -2.623  0.00  0.00    -0.134 NA
ATOM     28  C   UNL     1      26.006  15.096  -3.438  0.00  0.00    +0.086 A 
ATOM     29  C   UNL     1      26.568  13.845  -3.321  0.00  0.00    +0.133 A 
ATOM     30  N   UNL     1      25.768  13.209  -2.419  0.00  0.00    -0.251 N 
ATOM     31  N   UNL     1      24.772  14.007  -2.000  0.00  0.00    -0.065 NA
BRANCH  30  32
ATOM     32  C   UNL     1      25.877  11.855  -1.924  0.00  0.00    +0.150 C 
BRANCH  32  33
ATOM     33  C   UNL     1      26.770  11.724  -0.692  0.00  0.00    +0.084 C 
BRANCH  33  34
ATOM     34  C   UNL     1      25.977  11.748   0.607  0.00  0.00    +0.252 C 
ATOM     35  O   UNL     1      26.008  10.458   1.228  0.00  0.00    -0.349 OA
ATOM     36  C   UNL     1      25.893  10.763   2.616  0.00  0.00    +0.191 C 
ATOM     37  C   UNL     1      26.676  12.043   2.757  0.00  0.00    +0.191 C 
ATOM     38  O   UNL     1      26.522  12.718   1.508  0.00  0.00    -0.349 OA
ENDBRANCH  33  34
ENDBRANCH  32  33
ENDBRANCH  30  32
ENDBRANCH  26  28
ENDBRANCH  25  26
ENDBRANCH  24  25
ENDBRANCH   1  24
TORSDOF 13
