REMARK VINA RESULT:    -7.668      1.935      3.941
REMARK INTER + INTRA:         -14.927
REMARK INTER:                 -13.365
REMARK INTRA:                  -1.562
REMARK UNBOUND:                -1.431
REMARK  Name = lig_assembled_36.pdb
REMARK  13 active torsions:
REMARK  status: ('A' for Active; 'I' for Inactive)
REMARK    1  A    between atoms: _2  and  _9
REMARK    2  A    between atoms: _6  and  _7
REMARK    3  A    between atoms: _6  and  _16
REMARK    4  A    between atoms: _9  and  _10
REMARK    5  A    between atoms: _13  and  _14
REMARK    6  A    between atoms: _16  and  _18
REMARK    7  A    between atoms: _17  and  _22
REMARK    8  A    between atoms: _18  and  _21
REMARK    9  A    between atoms: _26  and  _36
REMARK   10  A    between atoms: _28  and  _29
REMARK   11  A    between atoms: _30  and  _32
REMARK   12  A    between atoms: _32  and  _34
REMARK   13  A    between atoms: _34  and  _36
REMARK                            x       y       z     vdW  Elec       q    Type
REMARK                         _______ _______ _______ _____ _____    ______ ____
ROOT
ATOM      1  C   UNL     1      28.289  17.557  -0.612  0.00  0.00    +0.400 C 
ATOM      2  N   UNL     1      29.482  17.427   0.060  0.00  0.00    -0.278 N 
ATOM      3  H   UNL     1      29.492  18.273   0.713  0.00  0.00    +0.152 HD
ATOM      4  O   UNL     1      27.496  18.411  -0.223  0.00  0.00    -0.226 OA
ENDROOT
BRANCH   1   5
ATOM      5  O   UNL     1      28.129  16.773  -1.627  0.00  0.00    -0.450 OA
BRANCH   5   6
ATOM      6  C   UNL     1      27.149  15.924  -2.177  0.00  0.00    +0.240 C 
BRANCH   6   7
ATOM      7  C   UNL     1      26.560  16.312  -3.546  0.00  0.00    +0.100 C 
BRANCH   7   9
ATOM      8  N   UNL     1      24.939  14.830  -4.692  0.00  0.00    -0.134 NA
ATOM      9  C   UNL     1      25.210  15.740  -3.703  0.00  0.00    +0.086 A 
ATOM     10  C   UNL     1      24.070  15.951  -2.959  0.00  0.00    +0.134 A 
ATOM     11  N   UNL     1      23.172  15.071  -3.486  0.00  0.00    -0.247 N 
ATOM     12  N   UNL     1      23.678  14.441  -4.562  0.00  0.00    -0.065 NA
BRANCH  11  13
ATOM     13  C   UNL     1      21.836  14.770  -3.012  0.00  0.00    +0.180 C 
BRANCH  13  14
ATOM     14  C   UNL     1      21.872  13.825  -1.833  0.00  0.00    -0.026 A 
ATOM     15  C   UNL     1      23.025  13.081  -1.541  0.00  0.00    +0.007 A 
ATOM     16  C   UNL     1      23.051  12.213  -0.444  0.00  0.00    +0.019 A 
ATOM     17  C   UNL     1      21.924  12.073   0.370  0.00  0.00    +0.052 A 
ATOM     18  C   UNL     1      20.763  12.792   0.072  0.00  0.00    +0.019 A 
ATOM     19  C   UNL     1      20.737  13.659  -1.024  0.00  0.00    +0.007 A 
BRANCH  17  20
ATOM     20  C   UNL     1      21.959  11.198   1.508  0.00  0.00    +0.099 C 
ATOM     21  N   UNL     1      21.986  10.500   2.434  0.00  0.00    -0.191 NA
ENDBRANCH  17  20
ENDBRANCH  13  14
ENDBRANCH  11  13
ENDBRANCH   7   9
ENDBRANCH   6   7
ENDBRANCH   5   6
ENDBRANCH   1   5
BRANCH   2  22
ATOM     22  C   UNL     1      30.705  16.661   0.287  0.00  0.00    +0.152 C 
BRANCH  22  23
ATOM     23  C   UNL     1      30.585  15.130   0.140  0.00  0.00    +0.193 C 
ATOM     24  O   UNL     1      31.476  14.745  -0.930  0.00  0.00    -0.219 OA
BRANCH  23  25
ATOM     25  C   UNL     1      31.024  14.261   1.339  0.00  0.00    +0.212 C 
ATOM     26  O   UNL     1      31.383  15.091   2.456  0.00  0.00    -0.218 OA
BRANCH  25  27
ATOM     27  C   UNL     1      29.918  13.239   1.807  0.00  0.00    +0.171 C 
ATOM     28  O   UNL     1      28.620  13.821   1.858  0.00  0.00    -0.343 OA
ATOM     29  C   UNL     1      27.512  13.224   2.463  0.00  0.00    +0.220 C 
ATOM     30  C   UNL     1      27.827  12.752   3.893  0.00  0.00    +0.076 C 
ATOM     31  C   UNL     1      29.081  11.866   3.822  0.00  0.00    +0.177 C 
ATOM     32  O   UNL     1      29.394  11.369   5.115  0.00  0.00    -0.221 OA
ATOM     33  C   UNL     1      30.275  12.671   3.219  0.00  0.00    +0.155 C 
BRANCH  33  34
ATOM     34  N   UNL     1      31.470  11.834   3.156  0.00  0.00    -0.202 NA
ATOM     35  C   UNL     1      32.614  11.899   3.884  0.00  0.00    +0.242 C 
ATOM     36  C   UNL     1      33.569  10.735   3.822  0.00  0.00    +0.096 C 
ATOM     37  O   UNL     1      32.842  12.893   4.571  0.00  0.00    -0.273 OA
ENDBRANCH  33  34
BRANCH  29  38
ATOM     38  C   UNL     1      26.852  12.035   1.574  0.00  0.00    +0.391 C 
ATOM     39  O   UNL     1      26.033  11.381   2.420  0.00  0.00    -0.243 OA
ATOM     40  O   UNL     1      27.128  12.331   0.297  0.00  0.00    -0.243 OA
ENDBRANCH  29  38
ENDBRANCH  25  27
ENDBRANCH  23  25
ENDBRANCH  22  23
ENDBRANCH   2  22
TORSDOF 13
