REMARK VINA RESULT:    -7.230      1.110      1.394
REMARK INTER + INTRA:         -14.942
REMARK INTER:                 -13.048
REMARK INTRA:                  -1.893
REMARK UNBOUND:                -1.794
REMARK  Name = lig_assembled_18.pdb
REMARK  14 active torsions:
REMARK  status: ('A' for Active; 'I' for Inactive)
REMARK    1  A    between atoms: _2  and  _9
REMARK    2  A    between atoms: _3  and  _11
REMARK    3  A    between atoms: _6  and  _7
REMARK    4  A    between atoms: _6  and  _16
REMARK    5  A    between atoms: _9  and  _10
REMARK    6  A    between atoms: _11  and  _12
REMARK    7  A    between atoms: _16  and  _18
REMARK    8  A    between atoms: _17  and  _22
REMARK    9  A    between atoms: _18  and  _21
REMARK   10  A    between atoms: _26  and  _36
REMARK   11  A    between atoms: _28  and  _29
REMARK   12  A    between atoms: _30  and  _32
REMARK   13  A    between atoms: _32  and  _34
REMARK   14  A    between atoms: _34  and  _36
REMARK                            x       y       z     vdW  Elec       q    Type
REMARK                         _______ _______ _______ _____ _____    ______ ____
ROOT
ATOM      1  C   UNL     1      27.851  17.229  -1.014  0.00  0.00    +0.400 C 
ATOM      2  N   UNL     1      28.315  16.204  -0.224  0.00  0.00    -0.278 N 
ATOM      3  H   UNL     1      28.549  16.690   0.699  0.00  0.00    +0.152 HD
ATOM      4  O   UNL     1      27.646  18.320  -0.487  0.00  0.00    -0.226 OA
ENDROOT
BRANCH   2   5
ATOM      5  C   UNL     1      28.611  14.781  -0.078  0.00  0.00    +0.152 C 
BRANCH   5   6
ATOM      6  C   UNL     1      29.625  14.407   1.022  0.00  0.00    +0.193 C 
ATOM      7  O   UNL     1      29.773  12.971   0.979  0.00  0.00    -0.219 OA
BRANCH   6   8
ATOM      8  C   UNL     1      31.065  14.948   0.880  0.00  0.00    +0.212 C 
ATOM      9  O   UNL     1      31.150  16.290   1.387  0.00  0.00    -0.218 OA
BRANCH   8  10
ATOM     10  C   UNL     1      32.140  14.062   1.619  0.00  0.00    +0.171 C 
ATOM     11  O   UNL     1      32.542  14.615   2.867  0.00  0.00    -0.343 OA
ATOM     12  C   UNL     1      33.642  14.175   3.607  0.00  0.00    +0.220 C 
ATOM     13  C   UNL     1      34.914  14.094   2.745  0.00  0.00    +0.076 C 
ATOM     14  C   UNL     1      34.581  13.241   1.509  0.00  0.00    +0.177 C 
ATOM     15  O   UNL     1      35.738  13.101   0.696  0.00  0.00    -0.221 OA
ATOM     16  C   UNL     1      33.403  13.884   0.714  0.00  0.00    +0.155 C 
BRANCH  16  17
ATOM     17  N   UNL     1      33.089  13.081  -0.465  0.00  0.00    -0.202 NA
ATOM     18  C   UNL     1      33.067  13.434  -1.775  0.00  0.00    +0.242 C 
ATOM     19  C   UNL     1      32.999  12.341  -2.810  0.00  0.00    +0.096 C 
ATOM     20  O   UNL     1      33.103  14.624  -2.084  0.00  0.00    -0.273 OA
ENDBRANCH  16  17
BRANCH  12  21
ATOM     21  C   UNL     1      33.371  12.785   4.404  0.00  0.00    +0.391 C 
ATOM     22  O   UNL     1      34.588  12.376   4.813  0.00  0.00    -0.243 OA
ATOM     23  O   UNL     1      32.050  12.729   4.612  0.00  0.00    -0.243 OA
ENDBRANCH  12  21
ENDBRANCH   8  10
ENDBRANCH   6   8
ENDBRANCH   5   6
ENDBRANCH   2   5
BRANCH   1  24
ATOM     24  O   UNL     1      27.702  16.947  -2.267  0.00  0.00    -0.450 OA
BRANCH  24  25
ATOM     25  C   UNL     1      26.868  17.293  -3.348  0.00  0.00    +0.240 C 
BRANCH  25  26
ATOM     26  C   UNL     1      26.548  16.195  -4.380  0.00  0.00    +0.100 C 
BRANCH  26  28
ATOM     27  N   UNL     1      24.552  15.885  -2.943  0.00  0.00    -0.134 NA
ATOM     28  C   UNL     1      25.229  15.598  -4.098  0.00  0.00    +0.086 A 
ATOM     29  C   UNL     1      24.481  14.720  -4.850  0.00  0.00    +0.134 A 
ATOM     30  N   UNL     1      23.349  14.535  -4.114  0.00  0.00    -0.243 N 
ATOM     31  N   UNL     1      23.404  15.219  -2.957  0.00  0.00    -0.065 NA
BRANCH  30  32
ATOM     32  C   UNL     1      22.239  13.647  -4.373  0.00  0.00    +0.240 C 
BRANCH  32  33
ATOM     33  C   UNL     1      21.294  13.556  -3.199  0.00  0.00    +0.235 C 
ATOM     34  O   UNL     1      20.133  13.960  -3.258  0.00  0.00    -0.274 OA
ATOM     35  N   UNL     1      21.808  12.934  -2.077  0.00  0.00    -0.309 N 
ATOM     36  H   UNL     1      22.801  12.765  -2.001  0.00  0.00    +0.149 HD
BRANCH  35  37
ATOM     37  C   UNL     1      21.014  12.759  -0.878  0.00  0.00    +0.146 C 
BRANCH  37  38
ATOM     38  C   UNL     1      21.837  12.094   0.176  0.00  0.00    +0.007 A 
ATOM     39  S   UNL     1      23.484  11.717  -0.108  0.00  0.00    -0.100 S 
ATOM     40  C   UNL     1      23.648  10.982   1.428  0.00  0.00    +0.045 A 
ATOM     41  C   UNL     1      22.479  11.034   2.155  0.00  0.00    +0.008 A 
ATOM     42  C   UNL     1      21.435  11.683   1.434  0.00  0.00    +0.013 A 
ENDBRANCH  37  38
ENDBRANCH  35  37
ENDBRANCH  32  33
ENDBRANCH  30  32
ENDBRANCH  26  28
ENDBRANCH  25  26
ENDBRANCH  24  25
ENDBRANCH   1  24
TORSDOF 14
