REMARK VINA RESULT:    -7.113      2.134      3.987
REMARK INTER + INTRA:         -15.211
REMARK INTER:                 -12.854
REMARK INTRA:                  -2.357
REMARK UNBOUND:                -1.860
REMARK  Name = lig_assembled_37.pdb
REMARK  16 active torsions:
REMARK  status: ('A' for Active; 'I' for Inactive)
REMARK    1  A    between atoms: _2  and  _8
REMARK    2  A    between atoms: _5  and  _6
REMARK    3  A    between atoms: _5  and  _19
REMARK    4  A    between atoms: _8  and  _9
REMARK    5  A    between atoms: _8  and  _10
REMARK    6  A    between atoms: _10  and  _17
REMARK    7  A    between atoms: _11  and  _12
REMARK    8  A    between atoms: _11  and  _17
REMARK    9  A    between atoms: _19  and  _21
REMARK   10  A    between atoms: _20  and  _25
REMARK   11  A    between atoms: _21  and  _24
REMARK   12  A    between atoms: _29  and  _39
REMARK   13  A    between atoms: _31  and  _32
REMARK   14  A    between atoms: _33  and  _35
REMARK   15  A    between atoms: _35  and  _37
REMARK   16  A    between atoms: _37  and  _39
REMARK                            x       y       z     vdW  Elec       q    Type
REMARK                         _______ _______ _______ _____ _____    ______ ____
ROOT
ATOM      1  C   UNL     1      31.098  16.097   0.410  0.00  0.00    +0.400 C 
ATOM      2  N   UNL     1      32.199  15.465  -0.118  0.00  0.00    -0.278 N 
ATOM      3  H   UNL     1      32.914  15.511   0.675  0.00  0.00    +0.152 HD
ATOM      4  O   UNL     1      31.107  16.373   1.607  0.00  0.00    -0.226 OA
ENDROOT
BRANCH   2   5
ATOM      5  C   UNL     1      32.811  14.764  -1.244  0.00  0.00    +0.152 C 
BRANCH   5   6
ATOM      6  C   UNL     1      33.107  13.265  -1.030  0.00  0.00    +0.193 C 
ATOM      7  O   UNL     1      34.200  12.929  -1.913  0.00  0.00    -0.219 OA
BRANCH   6   8
ATOM      8  C   UNL     1      33.592  12.824   0.368  0.00  0.00    +0.212 C 
ATOM      9  O   UNL     1      34.222  13.921   1.050  0.00  0.00    -0.218 OA
BRANCH   8  10
ATOM     10  C   UNL     1      32.436  12.261   1.281  0.00  0.00    +0.171 C 
ATOM     11  O   UNL     1      31.159  12.783   0.931  0.00  0.00    -0.343 OA
ATOM     12  C   UNL     1      30.010  12.648   1.714  0.00  0.00    +0.220 C 
ATOM     13  C   UNL     1      30.261  13.070   3.172  0.00  0.00    +0.076 C 
ATOM     14  C   UNL     1      31.485  12.288   3.677  0.00  0.00    +0.177 C 
ATOM     15  O   UNL     1      31.737  12.613   5.036  0.00  0.00    -0.221 OA
ATOM     16  C   UNL     1      32.725  12.595   2.781  0.00  0.00    +0.155 C 
BRANCH  16  17
ATOM     17  N   UNL     1      33.892  11.859   3.261  0.00  0.00    -0.202 NA
ATOM     18  C   UNL     1      34.902  12.266   4.072  0.00  0.00    +0.242 C 
ATOM     19  C   UNL     1      35.822  11.221   4.648  0.00  0.00    +0.096 C 
ATOM     20  O   UNL     1      35.040  13.463   4.316  0.00  0.00    -0.273 OA
ENDBRANCH  16  17
BRANCH  12  21
ATOM     21  C   UNL     1      29.339  11.171   1.628  0.00  0.00    +0.391 C 
ATOM     22  O   UNL     1      28.507  11.105   2.686  0.00  0.00    -0.243 OA
ATOM     23  O   UNL     1      29.624  10.706   0.406  0.00  0.00    -0.243 OA
ENDBRANCH  12  21
ENDBRANCH   8  10
ENDBRANCH   6   8
ENDBRANCH   5   6
ENDBRANCH   2   5
BRANCH   1  24
ATOM     24  O   UNL     1      30.155  16.373  -0.430  0.00  0.00    -0.450 OA
BRANCH  24  25
ATOM     25  C   UNL     1      28.750  16.318  -0.514  0.00  0.00    +0.240 C 
BRANCH  25  26
ATOM     26  C   UNL     1      28.048  17.374  -1.390  0.00  0.00    +0.100 C 
BRANCH  26  28
ATOM     27  N   UNL     1      26.795  17.383  -3.527  0.00  0.00    -0.134 NA
ATOM     28  C   UNL     1      27.194  16.720  -2.398  0.00  0.00    +0.086 A 
ATOM     29  C   UNL     1      26.676  15.444  -2.419  0.00  0.00    +0.134 A 
ATOM     30  N   UNL     1      25.948  15.400  -3.571  0.00  0.00    -0.238 N 
ATOM     31  N   UNL     1      26.038  16.563  -4.244  0.00  0.00    -0.065 NA
BRANCH  30  32
ATOM     32  C   UNL     1      25.201  14.297  -4.144  0.00  0.00    +0.214 C 
ATOM     33  C   UNL     1      25.706  12.951  -3.626  0.00  0.00    +0.045 C 
BRANCH  32  34
ATOM     34  C   UNL     1      23.720  14.440  -3.873  0.00  0.00    +0.332 C 
ATOM     35  O   UNL     1      22.886  14.699  -4.734  0.00  0.00    -0.248 OA
BRANCH  34  36
ATOM     36  O   UNL     1      23.442  14.248  -2.556  0.00  0.00    -0.458 OA
BRANCH  36  37
ATOM     37  C   UNL     1      22.190  13.608  -2.261  0.00  0.00    +0.267 C 
BRANCH  37  38
ATOM     38  C   UNL     1      22.311  12.799  -0.996  0.00  0.00    -0.010 A 
ATOM     39  C   UNL     1      23.551  12.275  -0.604  0.00  0.00    +0.007 A 
ATOM     40  C   UNL     1      23.670  11.549   0.583  0.00  0.00    +0.000 A 
ATOM     41  C   UNL     1      22.553  11.338   1.388  0.00  0.00    +0.000 A 
ATOM     42  C   UNL     1      21.314  11.849   1.006  0.00  0.00    +0.000 A 
ATOM     43  C   UNL     1      21.192  12.574  -0.182  0.00  0.00    +0.007 A 
ENDBRANCH  37  38
ENDBRANCH  36  37
ENDBRANCH  34  36
ENDBRANCH  32  34
ENDBRANCH  30  32
ENDBRANCH  26  28
ENDBRANCH  25  26
ENDBRANCH  24  25
ENDBRANCH   1  24
TORSDOF 15
