REMARK VINA RESULT:    -6.101      3.349      8.174
REMARK INTER + INTRA:         -14.211
REMARK INTER:                 -11.653
REMARK INTRA:                  -2.558
REMARK UNBOUND:                -3.117
REMARK  Name = lig_assembled_9.pdb
REMARK  15 active torsions:
REMARK  status: ('A' for Active; 'I' for Inactive)
REMARK    1  A    between atoms: _2  and  _8
REMARK    2  A    between atoms: _5  and  _6
REMARK    3  A    between atoms: _5  and  _18
REMARK    4  A    between atoms: _10  and  _11
REMARK    5  A    between atoms: _11  and  _16
REMARK    6  A    between atoms: _12  and  _13
REMARK    7  A    between atoms: _12  and  _16
REMARK    8  A    between atoms: _18  and  _20
REMARK    9  A    between atoms: _19  and  _24
REMARK   10  A    between atoms: _20  and  _23
REMARK   11  A    between atoms: _28  and  _38
REMARK   12  A    between atoms: _30  and  _31
REMARK   13  A    between atoms: _32  and  _34
REMARK   14  A    between atoms: _34  and  _36
REMARK   15  A    between atoms: _36  and  _38
REMARK                            x       y       z     vdW  Elec       q    Type
REMARK                         _______ _______ _______ _____ _____    ______ ____
ROOT
ATOM      1  C   UNL     1      27.841  17.622  -0.917  0.00  0.00    +0.400 C 
ATOM      2  N   UNL     1      27.114  17.412  -2.065  0.00  0.00    -0.278 N 
ATOM      3  H   UNL     1      26.116  17.659  -1.773  0.00  0.00    +0.152 HD
ATOM      4  O   UNL     1      27.284  18.171   0.030  0.00  0.00    -0.226 OA
ENDROOT
BRANCH   2   5
ATOM      5  C   UNL     1      27.096  17.026  -3.473  0.00  0.00    +0.152 C 
BRANCH   5   6
ATOM      6  C   UNL     1      25.938  16.107  -3.911  0.00  0.00    +0.193 C 
ATOM      7  O   UNL     1      26.082  15.907  -5.335  0.00  0.00    -0.219 OA
BRANCH   6   8
ATOM      8  C   UNL     1      25.897  14.679  -3.324  0.00  0.00    +0.212 C 
ATOM      9  O   UNL     1      26.584  14.635  -2.063  0.00  0.00    -0.218 OA
BRANCH   8  10
ATOM     10  C   UNL     1      24.434  14.129  -3.120  0.00  0.00    +0.171 C 
ATOM     11  O   UNL     1      23.737  14.801  -2.076  0.00  0.00    -0.343 OA
ATOM     12  C   UNL     1      22.530  14.363  -1.525  0.00  0.00    +0.220 C 
ATOM     13  C   UNL     1      22.596  12.882  -1.112  0.00  0.00    +0.076 C 
ATOM     14  C   UNL     1      23.077  12.083  -2.334  0.00  0.00    +0.177 C 
ATOM     15  O   UNL     1      23.117  10.698  -2.019  0.00  0.00    -0.221 OA
ATOM     16  C   UNL     1      24.474  12.599  -2.798  0.00  0.00    +0.155 C 
BRANCH  16  17
ATOM     17  N   UNL     1      24.938  11.838  -3.955  0.00  0.00    -0.202 NA
ATOM     18  C   UNL     1      26.065  11.097  -4.111  0.00  0.00    +0.242 C 
ATOM     19  C   UNL     1      26.157  10.176  -5.300  0.00  0.00    +0.096 C 
ATOM     20  O   UNL     1      26.974  11.193  -3.289  0.00  0.00    -0.273 OA
ENDBRANCH  16  17
BRANCH  12  21
ATOM     21  C   UNL     1      21.241  14.664  -2.466  0.00  0.00    +0.391 C 
ATOM     22  O   UNL     1      20.208  14.064  -1.844  0.00  0.00    -0.243 OA
ATOM     23  O   UNL     1      21.622  15.625  -3.318  0.00  0.00    -0.243 OA
ENDBRANCH  12  21
ENDBRANCH   8  10
ENDBRANCH   6   8
ENDBRANCH   5   6
ENDBRANCH   2   5
BRANCH   1  24
ATOM     24  O   UNL     1      29.058  17.185  -0.937  0.00  0.00    -0.450 OA
BRANCH  24  25
ATOM     25  C   UNL     1      30.187  17.131  -0.097  0.00  0.00    +0.240 C 
BRANCH  25  26
ATOM     26  C   UNL     1      31.122  15.915  -0.240  0.00  0.00    +0.100 C 
BRANCH  26  28
ATOM     27  N   UNL     1      31.867  15.054   1.957  0.00  0.00    -0.134 NA
ATOM     28  C   UNL     1      30.977  15.021   0.923  0.00  0.00    +0.086 A 
ATOM     29  C   UNL     1      30.015  14.075   1.189  0.00  0.00    +0.139 A 
ATOM     30  N   UNL     1      30.339  13.576   2.430  0.00  0.00    -0.220 N 
ATOM     31  N   UNL     1      31.477  14.168   2.865  0.00  0.00    -0.061 NA
BRANCH  30  32
ATOM     32  C   UNL     1      29.639  12.624   3.214  0.00  0.00    +0.068 A 
ATOM     33  C   UNL     1      28.386  12.148   2.804  0.00  0.00    +0.042 A 
ATOM     34  C   UNL     1      27.681  11.231   3.599  0.00  0.00    +0.061 A 
ATOM     35  C   UNL     1      28.238  10.788   4.805  0.00  0.00    +0.015 A 
ATOM     36  C   UNL     1      29.491  11.251   5.209  0.00  0.00    +0.003 A 
ATOM     37  C   UNL     1      30.191  12.164   4.418  0.00  0.00    +0.028 A 
BRANCH  34  38
ATOM     38  C   UNL     1      26.379  10.657   3.171  0.00  0.00    +0.339 C 
ATOM     39  O   UNL     1      26.120   9.465   3.203  0.00  0.00    -0.245 OA
BRANCH  38  40
ATOM     40  O   UNL     1      25.591  11.636   2.661  0.00  0.00    -0.461 OA
BRANCH  40  41
ATOM     41  C   UNL     1      24.881  11.296   1.463  0.00  0.00    +0.229 C 
ATOM     42  C   UNL     1      25.828  11.469   0.290  0.00  0.00    +0.048 C 
ENDBRANCH  40  41
ENDBRANCH  38  40
ENDBRANCH  34  38
ENDBRANCH  30  32
ENDBRANCH  26  28
ENDBRANCH  25  26
ENDBRANCH  24  25
ENDBRANCH   1  24
TORSDOF 14
