REMARK VINA RESULT:    -5.966      3.455      8.175
REMARK INTER + INTRA:         -13.165
REMARK INTER:                 -10.485
REMARK INTRA:                  -2.679
REMARK UNBOUND:                -1.966
REMARK  Name = lig_assembled_17.pdb
REMARK  17 active torsions:
REMARK  status: ('A' for Active; 'I' for Inactive)
REMARK    1  A    between atoms: _2  and  _9
REMARK    2  A    between atoms: _3  and  _10
REMARK    3  A    between atoms: _3  and  _11
REMARK    4  A    between atoms: _3  and  _13
REMARK    5  A    between atoms: _5  and  _13
REMARK    6  A    between atoms: _6  and  _7
REMARK    7  A    between atoms: _6  and  _14
REMARK    8  A    between atoms: _9  and  _10
REMARK    9  A    between atoms: _11  and  _12
REMARK   10  A    between atoms: _14  and  _16
REMARK   11  A    between atoms: _15  and  _20
REMARK   12  A    between atoms: _16  and  _19
REMARK   13  A    between atoms: _24  and  _34
REMARK   14  A    between atoms: _26  and  _27
REMARK   15  A    between atoms: _28  and  _30
REMARK   16  A    between atoms: _30  and  _32
REMARK   17  A    between atoms: _32  and  _34
REMARK                            x       y       z     vdW  Elec       q    Type
REMARK                         _______ _______ _______ _____ _____    ______ ____
ROOT
ATOM      1  C   UNL     1      25.661  15.761  -4.657  0.00  0.00    +0.400 C 
ATOM      2  N   UNL     1      24.334  15.477  -4.439  0.00  0.00    -0.278 N 
ATOM      3  H   UNL     1      23.988  15.158  -5.398  0.00  0.00    +0.152 HD
ATOM      4  O   UNL     1      26.152  15.439  -5.736  0.00  0.00    -0.226 OA
ENDROOT
BRANCH   2   5
ATOM      5  C   UNL     1      23.215  15.403  -3.503  0.00  0.00    +0.152 C 
BRANCH   5   6
ATOM      6  C   UNL     1      23.379  14.423  -2.323  0.00  0.00    +0.193 C 
ATOM      7  O   UNL     1      22.146  14.467  -1.572  0.00  0.00    -0.219 OA
BRANCH   6   8
ATOM      8  C   UNL     1      23.573  12.927  -2.658  0.00  0.00    +0.212 C 
ATOM      9  O   UNL     1      23.777  12.751  -4.069  0.00  0.00    -0.218 OA
BRANCH   8  10
ATOM     10  C   UNL     1      24.779  12.266  -1.888  0.00  0.00    +0.171 C 
ATOM     11  O   UNL     1      25.780  11.763  -2.767  0.00  0.00    -0.343 OA
ATOM     12  C   UNL     1      26.825  10.924  -2.373  0.00  0.00    +0.220 C 
ATOM     13  C   UNL     1      26.315   9.716  -1.569  0.00  0.00    +0.076 C 
ATOM     14  C   UNL     1      25.451  10.258  -0.418  0.00  0.00    +0.177 C 
ATOM     15  O   UNL     1      24.985   9.181   0.383  0.00  0.00    -0.221 OA
ATOM     16  C   UNL     1      24.264  11.097  -0.986  0.00  0.00    +0.155 C 
BRANCH  16  17
ATOM     17  N   UNL     1      23.437  11.608   0.104  0.00  0.00    -0.202 NA
ATOM     18  C   UNL     1      22.108  11.455   0.330  0.00  0.00    +0.242 C 
ATOM     19  C   UNL     1      21.563  11.835   1.682  0.00  0.00    +0.096 C 
ATOM     20  O   UNL     1      21.387  11.013  -0.563  0.00  0.00    -0.273 OA
ENDBRANCH  16  17
BRANCH  12  21
ATOM     21  C   UNL     1      28.019  11.701  -1.591  0.00  0.00    +0.391 C 
ATOM     22  O   UNL     1      28.628  10.751  -0.856  0.00  0.00    -0.243 OA
ATOM     23  O   UNL     1      28.137  12.894  -2.187  0.00  0.00    -0.243 OA
ENDBRANCH  12  21
ENDBRANCH   8  10
ENDBRANCH   6   8
ENDBRANCH   5   6
ENDBRANCH   2   5
BRANCH   1  24
ATOM     24  O   UNL     1      26.266  16.381  -3.698  0.00  0.00    -0.450 OA
BRANCH  24  25
ATOM     25  C   UNL     1      26.708  16.140  -2.382  0.00  0.00    +0.240 C 
BRANCH  25  26
ATOM     26  C   UNL     1      27.435  17.288  -1.655  0.00  0.00    +0.100 C 
BRANCH  26  28
ATOM     27  N   UNL     1      29.752  17.463  -0.813  0.00  0.00    -0.134 NA
ATOM     28  C   UNL     1      28.578  16.761  -0.890  0.00  0.00    +0.086 A 
ATOM     29  C   UNL     1      28.701  15.598  -0.161  0.00  0.00    +0.133 A 
ATOM     30  N   UNL     1      29.962  15.664   0.346  0.00  0.00    -0.250 N 
ATOM     31  N   UNL     1      30.596  16.778  -0.055  0.00  0.00    -0.065 NA
BRANCH  30  32
ATOM     32  C   UNL     1      30.620  14.741   1.249  0.00  0.00    +0.160 C 
BRANCH  32  33
ATOM     33  C   UNL     1      30.007  13.339   1.130  0.00  0.00    +0.107 C 
BRANCH  33  34
ATOM     34  N   UNL     1      29.518  12.734   2.394  0.00  0.00    -0.301 NA
BRANCH  34  35
ATOM     35  C   UNL     1      28.173  13.271   2.690  0.00  0.00    +0.081 C 
ATOM     36  C   UNL     1      27.019  12.481   2.080  0.00  0.00    +0.020 C 
ENDBRANCH  34  35
BRANCH  34  37
ATOM     37  C   UNL     1      30.464  12.879   3.515  0.00  0.00    +0.081 C 
ATOM     38  C   UNL     1      31.715  12.005   3.468  0.00  0.00    +0.020 C 
ENDBRANCH  34  37
ENDBRANCH  33  34
ENDBRANCH  32  33
ENDBRANCH  30  32
ENDBRANCH  26  28
ENDBRANCH  25  26
ENDBRANCH  24  25
ENDBRANCH   1  24
TORSDOF 15
