REMARK VINA RESULT:    -6.827      3.170      9.595
REMARK INTER + INTRA:         -14.530
REMARK INTER:                 -12.565
REMARK INTRA:                  -1.965
REMARK UNBOUND:                -2.115
REMARK  Name = lig_assembled_26.pdb
REMARK  15 active torsions:
REMARK  status: ('A' for Active; 'I' for Inactive)
REMARK    1  A    between atoms: _2  and  _8
REMARK    2  A    between atoms: _5  and  _6
REMARK    3  A    between atoms: _5  and  _18
REMARK    4  A    between atoms: _8  and  _9
REMARK    5  A    between atoms: _8  and  _10
REMARK    6  A    between atoms: _10  and  _11
REMARK    7  A    between atoms: _11  and  _12
REMARK    8  A    between atoms: _18  and  _20
REMARK    9  A    between atoms: _19  and  _24
REMARK   10  A    between atoms: _20  and  _23
REMARK   11  A    between atoms: _28  and  _38
REMARK   12  A    between atoms: _30  and  _31
REMARK   13  A    between atoms: _32  and  _34
REMARK   14  A    between atoms: _34  and  _36
REMARK   15  A    between atoms: _36  and  _38
REMARK                            x       y       z     vdW  Elec       q    Type
REMARK                         _______ _______ _______ _____ _____    ______ ____
ROOT
ATOM      1  C   UNL     1      28.027  17.192  -0.861  0.00  0.00    +0.400 C 
ATOM      2  N   UNL     1      26.977  16.992  -1.726  0.00  0.00    -0.278 N 
ATOM      3  H   UNL     1      26.219  17.643  -1.349  0.00  0.00    +0.152 HD
ATOM      4  O   UNL     1      27.944  18.113  -0.053  0.00  0.00    -0.226 OA
ENDROOT
BRANCH   2   5
ATOM      5  C   UNL     1      26.451  16.315  -2.909  0.00  0.00    +0.152 C 
BRANCH   5   6
ATOM      6  C   UNL     1      25.346  15.268  -2.658  0.00  0.00    +0.193 C 
ATOM      7  O   UNL     1      24.508  15.259  -3.835  0.00  0.00    -0.219 OA
BRANCH   6   8
ATOM      8  C   UNL     1      25.782  13.797  -2.483  0.00  0.00    +0.212 C 
ATOM      9  O   UNL     1      27.184  13.652  -2.762  0.00  0.00    -0.218 OA
BRANCH   8  10
ATOM     10  C   UNL     1      25.494  13.227  -1.042  0.00  0.00    +0.171 C 
ATOM     11  O   UNL     1      26.504  12.329  -0.595  0.00  0.00    -0.343 OA
ATOM     12  C   UNL     1      26.385  11.501   0.524  0.00  0.00    +0.220 C 
ATOM     13  C   UNL     1      25.075  10.694   0.499  0.00  0.00    +0.076 C 
ATOM     14  C   UNL     1      23.921  11.692   0.305  0.00  0.00    +0.177 C 
ATOM     15  O   UNL     1      22.680  11.000   0.315  0.00  0.00    -0.221 OA
ATOM     16  C   UNL     1      24.116  12.488  -1.022  0.00  0.00    +0.155 C 
BRANCH  16  17
ATOM     17  N   UNL     1      23.017  13.432  -1.213  0.00  0.00    -0.202 NA
ATOM     18  C   UNL     1      22.054  13.460  -2.169  0.00  0.00    +0.242 C 
ATOM     19  C   UNL     1      20.869  14.369  -1.964  0.00  0.00    +0.096 C 
ATOM     20  O   UNL     1      22.167  12.751  -3.167  0.00  0.00    -0.273 OA
ENDBRANCH  16  17
BRANCH  12  21
ATOM     21  C   UNL     1      26.576  12.287   1.933  0.00  0.00    +0.391 C 
ATOM     22  O   UNL     1      26.120  11.434   2.871  0.00  0.00    -0.243 OA
ATOM     23  O   UNL     1      27.372  13.330   1.670  0.00  0.00    -0.243 OA
ENDBRANCH  12  21
ENDBRANCH   8  10
ENDBRANCH   6   8
ENDBRANCH   5   6
ENDBRANCH   2   5
BRANCH   1  24
ATOM     24  O   UNL     1      29.006  16.354  -0.965  0.00  0.00    -0.450 OA
BRANCH  24  25
ATOM     25  C   UNL     1      29.581  15.288  -0.246  0.00  0.00    +0.240 C 
BRANCH  25  26
ATOM     26  C   UNL     1      31.016  15.479   0.281  0.00  0.00    +0.100 C 
BRANCH  26  28
ATOM     27  N   UNL     1      32.483  13.891   1.500  0.00  0.00    -0.134 NA
ATOM     28  C   UNL     1      31.285  14.545   1.389  0.00  0.00    +0.086 A 
ATOM     29  C   UNL     1      30.473  14.179   2.437  0.00  0.00    +0.134 A 
ATOM     30  N   UNL     1      31.218  13.280   3.140  0.00  0.00    -0.248 N 
ATOM     31  N   UNL     1      32.439  13.130   2.587  0.00  0.00    -0.065 NA
BRANCH  30  32
ATOM     32  C   UNL     1      30.897  12.573   4.370  0.00  0.00    +0.113 C 
ATOM     33  C   UNL     1      29.648  11.684   4.283  0.00  0.00    +0.033 C 
BRANCH  32  34
ATOM     34  C   UNL     1      32.101  11.810   4.950  0.00  0.00    +0.106 C 
BRANCH  34  35
ATOM     35  C   UNL     1      32.844  12.563   6.038  0.00  0.00    +0.165 C 
ATOM     36  O   UNL     1      33.754  13.351   5.789  0.00  0.00    -0.292 OA
BRANCH  35  37
ATOM     37  C   UNL     1      32.483  12.307   7.464  0.00  0.00    +0.017 A 
ATOM     38  C   UNL     1      33.439  12.266   8.487  0.00  0.00    +0.011 A 
ATOM     39  C   UNL     1      33.040  12.064   9.810  0.00  0.00    +0.001 A 
ATOM     40  C   UNL     1      31.690  11.895  10.119  0.00  0.00    +0.000 A 
ATOM     41  C   UNL     1      30.736  11.923   9.107  0.00  0.00    +0.001 A 
ATOM     42  C   UNL     1      31.128  12.127   7.784  0.00  0.00    +0.011 A 
ENDBRANCH  35  37
ENDBRANCH  34  35
ENDBRANCH  32  34
ENDBRANCH  30  32
ENDBRANCH  26  28
ENDBRANCH  25  26
ENDBRANCH  24  25
ENDBRANCH   1  24
TORSDOF 14
