REMARK VINA RESULT:    -6.250      1.653      2.479
REMARK INTER + INTRA:         -14.482
REMARK INTER:                 -12.371
REMARK INTRA:                  -2.111
REMARK UNBOUND:                -3.117
REMARK  Name = lig_assembled_9.pdb
REMARK  15 active torsions:
REMARK  status: ('A' for Active; 'I' for Inactive)
REMARK    1  A    between atoms: _2  and  _8
REMARK    2  A    between atoms: _5  and  _6
REMARK    3  A    between atoms: _5  and  _18
REMARK    4  A    between atoms: _10  and  _11
REMARK    5  A    between atoms: _11  and  _16
REMARK    6  A    between atoms: _12  and  _13
REMARK    7  A    between atoms: _12  and  _16
REMARK    8  A    between atoms: _18  and  _20
REMARK    9  A    between atoms: _19  and  _24
REMARK   10  A    between atoms: _20  and  _23
REMARK   11  A    between atoms: _28  and  _38
REMARK   12  A    between atoms: _30  and  _31
REMARK   13  A    between atoms: _32  and  _34
REMARK   14  A    between atoms: _34  and  _36
REMARK   15  A    between atoms: _36  and  _38
REMARK                            x       y       z     vdW  Elec       q    Type
REMARK                         _______ _______ _______ _____ _____    ______ ____
ROOT
ATOM      1  C   UNL     1      27.771  17.032  -1.454  0.00  0.00    +0.400 C 
ATOM      2  N   UNL     1      28.007  15.793  -0.904  0.00  0.00    -0.278 N 
ATOM      3  H   UNL     1      28.423  16.023   0.053  0.00  0.00    +0.152 HD
ATOM      4  O   UNL     1      27.893  18.018  -0.732  0.00  0.00    -0.226 OA
ENDROOT
BRANCH   2   5
ATOM      5  C   UNL     1      27.932  14.341  -1.033  0.00  0.00    +0.152 C 
BRANCH   5   6
ATOM      6  C   UNL     1      28.273  13.528   0.232  0.00  0.00    +0.193 C 
ATOM      7  O   UNL     1      27.019  13.065   0.780  0.00  0.00    -0.219 OA
BRANCH   6   8
ATOM      8  C   UNL     1      29.113  12.243   0.053  0.00  0.00    +0.212 C 
ATOM      9  O   UNL     1      29.827  12.281  -1.194  0.00  0.00    -0.218 OA
BRANCH   8  10
ATOM     10  C   UNL     1      30.146  12.005   1.219  0.00  0.00    +0.171 C 
ATOM     11  O   UNL     1      29.521  11.590   2.429  0.00  0.00    -0.343 OA
ATOM     12  C   UNL     1      30.159  11.544   3.670  0.00  0.00    +0.220 C 
ATOM     13  C   UNL     1      30.879  12.865   3.991  0.00  0.00    +0.076 C 
ATOM     14  C   UNL     1      31.798  13.192   2.802  0.00  0.00    +0.177 C 
ATOM     15  O   UNL     1      32.519  14.387   3.065  0.00  0.00    -0.221 OA
ATOM     16  C   UNL     1      30.960  13.312   1.492  0.00  0.00    +0.155 C 
BRANCH  16  17
ATOM     17  N   UNL     1      31.828  13.629   0.361  0.00  0.00    -0.202 NA
ATOM     18  C   UNL     1      31.950  14.783  -0.343  0.00  0.00    +0.242 C 
ATOM     19  C   UNL     1      33.129  14.936  -1.269  0.00  0.00    +0.096 C 
ATOM     20  O   UNL     1      31.106  15.667  -0.211  0.00  0.00    -0.273 OA
ENDBRANCH  16  17
BRANCH  12  21
ATOM     21  C   UNL     1      31.150  10.268   3.842  0.00  0.00    +0.391 C 
ATOM     22  O   UNL     1      30.782   9.409   2.871  0.00  0.00    -0.243 OA
ATOM     23  O   UNL     1      32.129  10.668   4.662  0.00  0.00    -0.243 OA
ENDBRANCH  12  21
ENDBRANCH   8  10
ENDBRANCH   6   8
ENDBRANCH   5   6
ENDBRANCH   2   5
BRANCH   1  24
ATOM     24  O   UNL     1      27.466  17.038  -2.710  0.00  0.00    -0.450 OA
BRANCH  24  25
ATOM     25  C   UNL     1      26.338  17.213  -3.535  0.00  0.00    +0.240 C 
BRANCH  25  26
ATOM     26  C   UNL     1      25.971  16.061  -4.490  0.00  0.00    +0.100 C 
BRANCH  26  28
ATOM     27  N   UNL     1      25.761  13.679  -3.853  0.00  0.00    -0.134 NA
ATOM     28  C   UNL     1      25.323  14.966  -3.744  0.00  0.00    +0.086 A 
ATOM     29  C   UNL     1      24.263  15.008  -2.869  0.00  0.00    +0.139 A 
ATOM     30  N   UNL     1      24.111  13.712  -2.432  0.00  0.00    -0.220 N 
ATOM     31  N   UNL     1      25.014  12.921  -3.059  0.00  0.00    -0.061 NA
BRANCH  30  32
ATOM     32  C   UNL     1      23.209  13.202  -1.464  0.00  0.00    +0.068 A 
ATOM     33  C   UNL     1      23.672  12.406  -0.409  0.00  0.00    +0.042 A 
ATOM     34  C   UNL     1      22.772  11.877   0.529  0.00  0.00    +0.061 A 
ATOM     35  C   UNL     1      21.404  12.153   0.408  0.00  0.00    +0.015 A 
ATOM     36  C   UNL     1      20.941  12.957  -0.634  0.00  0.00    +0.003 A 
ATOM     37  C   UNL     1      21.838  13.481  -1.568  0.00  0.00    +0.028 A 
BRANCH  34  38
ATOM     38  C   UNL     1      23.229  11.078   1.696  0.00  0.00    +0.339 C 
ATOM     39  O   UNL     1      24.401  10.832   1.932  0.00  0.00    -0.245 OA
BRANCH  38  40
ATOM     40  O   UNL     1      22.156  10.601   2.374  0.00  0.00    -0.461 OA
BRANCH  40  41
ATOM     41  C   UNL     1      22.314   9.293   2.939  0.00  0.00    +0.229 C 
ATOM     42  C   UNL     1      21.935   8.275   1.879  0.00  0.00    +0.048 C 
ENDBRANCH  40  41
ENDBRANCH  38  40
ENDBRANCH  34  38
ENDBRANCH  30  32
ENDBRANCH  26  28
ENDBRANCH  25  26
ENDBRANCH  24  25
ENDBRANCH   1  24
TORSDOF 14
