REMARK VINA RESULT:    -7.520      1.705      2.868
REMARK INTER + INTRA:         -15.729
REMARK INTER:                 -13.703
REMARK INTRA:                  -2.026
REMARK UNBOUND:                -2.494
REMARK  Name = lig_assembled_79.pdb
REMARK  15 active torsions:
REMARK  status: ('A' for Active; 'I' for Inactive)
REMARK    1  A    between atoms: _2  and  _9
REMARK    2  A    between atoms: _6  and  _7
REMARK    3  A    between atoms: _6  and  _21
REMARK    4  A    between atoms: _9  and  _10
REMARK    5  A    between atoms: _9  and  _11
REMARK    6  A    between atoms: _9  and  _12
REMARK    7  A    between atoms: _12  and  _13
REMARK    8  A    between atoms: _21  and  _23
REMARK    9  A    between atoms: _22  and  _27
REMARK   10  A    between atoms: _23  and  _26
REMARK   11  A    between atoms: _31  and  _41
REMARK   12  A    between atoms: _33  and  _34
REMARK   13  A    between atoms: _35  and  _37
REMARK   14  A    between atoms: _37  and  _39
REMARK   15  A    between atoms: _39  and  _41
REMARK                            x       y       z     vdW  Elec       q    Type
REMARK                         _______ _______ _______ _____ _____    ______ ____
ROOT
ATOM      1  O   UNL     1      28.214  17.261  -1.717  0.00  0.00    -0.450 OA
ENDROOT
BRANCH   1   2
ATOM      2  C   UNL     1      28.307  17.723  -0.513  0.00  0.00    +0.400 C 
ATOM      3  N   UNL     1      29.434  17.352   0.182  0.00  0.00    -0.278 N 
ATOM      4  H   UNL     1      29.410  17.983   1.045  0.00  0.00    +0.152 HD
ATOM      5  O   UNL     1      27.506  18.474   0.039  0.00  0.00    -0.226 OA
BRANCH   3   6
ATOM      6  C   UNL     1      30.612  16.494   0.275  0.00  0.00    +0.152 C 
BRANCH   6   7
ATOM      7  C   UNL     1      30.415  15.147   1.001  0.00  0.00    +0.193 C 
ATOM      8  O   UNL     1      29.124  14.642   0.595  0.00  0.00    -0.219 OA
BRANCH   7   9
ATOM      9  C   UNL     1      31.399  14.004   0.665  0.00  0.00    +0.212 C 
ATOM     10  O   UNL     1      32.334  14.426  -0.341  0.00  0.00    -0.218 OA
BRANCH   9  11
ATOM     11  C   UNL     1      32.205  13.486   1.917  0.00  0.00    +0.171 C 
ATOM     12  O   UNL     1      33.545  13.129   1.595  0.00  0.00    -0.343 OA
ATOM     13  C   UNL     1      34.398  12.421   2.446  0.00  0.00    +0.220 C 
ATOM     14  C   UNL     1      33.732  11.144   2.987  0.00  0.00    +0.076 C 
ATOM     15  C   UNL     1      32.387  11.552   3.611  0.00  0.00    +0.177 C 
ATOM     16  O   UNL     1      31.747  10.411   4.163  0.00  0.00    -0.221 OA
ATOM     17  C   UNL     1      31.487  12.246   2.542  0.00  0.00    +0.155 C 
BRANCH  17  18
ATOM     18  N   UNL     1      30.205  12.628   3.129  0.00  0.00    -0.202 NA
ATOM     19  C   UNL     1      28.954  12.187   2.844  0.00  0.00    +0.242 C 
ATOM     20  C   UNL     1      27.840  12.529   3.800  0.00  0.00    +0.096 C 
ATOM     21  O   UNL     1      28.760  11.525   1.827  0.00  0.00    -0.273 OA
ENDBRANCH  17  18
BRANCH  13  22
ATOM     22  C   UNL     1      35.014  13.327   3.646  0.00  0.00    +0.391 C 
ATOM     23  O   UNL     1      34.961  14.593   3.187  0.00  0.00    -0.243 OA
ATOM     24  O   UNL     1      35.056  12.535   4.724  0.00  0.00    -0.243 OA
ENDBRANCH  13  22
ENDBRANCH   9  11
ENDBRANCH   7   9
ENDBRANCH   6   7
ENDBRANCH   3   6
ENDBRANCH   1   2
BRANCH   1  25
ATOM     25  C   UNL     1      27.417  16.368  -2.460  0.00  0.00    +0.240 C 
BRANCH  25  26
ATOM     26  C   UNL     1      26.654  16.936  -3.672  0.00  0.00    +0.100 C 
BRANCH  26  28
ATOM     27  N   UNL     1      25.620  15.352  -5.254  0.00  0.00    -0.134 NA
ATOM     28  C   UNL     1      25.570  16.018  -4.065  0.00  0.00    +0.086 A 
ATOM     29  C   UNL     1      24.410  15.680  -3.406  0.00  0.00    +0.134 A 
ATOM     30  N   UNL     1      23.828  14.731  -4.198  0.00  0.00    -0.238 N 
ATOM     31  N   UNL     1      24.532  14.604  -5.351  0.00  0.00    -0.065 NA
BRANCH  30  32
ATOM     32  C   UNL     1      22.520  14.024  -4.077  0.00  0.00    +0.122 C 
ATOM     33  C   UNL     1      22.810  12.520  -4.300  0.00  0.00    +0.044 C 
ATOM     34  C   UNL     1      21.617  14.672  -5.145  0.00  0.00    +0.044 C 
BRANCH  32  35
ATOM     35  C   UNL     1      21.871  14.166  -2.684  0.00  0.00    +0.192 C 
ATOM     36  O   UNL     1      21.086  15.090  -2.454  0.00  0.00    -0.289 OA
BRANCH  35  37
ATOM     37  C   UNL     1      22.166  13.230  -1.561  0.00  0.00    +0.045 A 
ATOM     38  C   UNL     1      21.124  12.566  -0.922  0.00  0.00    +0.095 A 
ATOM     39  N   UNL     1      21.621  11.792   0.083  0.00  0.00    -0.360 N 
ATOM     40  H   UNL     1      21.068  11.217   0.705  0.00  0.00    +0.165 HD
ATOM     41  C   UNL     1      22.984  11.914   0.138  0.00  0.00    +0.047 A 
ATOM     42  C   UNL     1      23.886  11.303   1.023  0.00  0.00    +0.026 A 
ATOM     43  C   UNL     1      25.244  11.590   0.884  0.00  0.00    +0.002 A 
ATOM     44  C   UNL     1      25.680  12.455  -0.106  0.00  0.00    +0.001 A 
ATOM     45  C   UNL     1      24.765  13.054  -0.980  0.00  0.00    +0.011 A 
ATOM     46  C   UNL     1      23.373  12.798  -0.878  0.00  0.00    +0.010 A 
ENDBRANCH  35  37
ENDBRANCH  32  35
ENDBRANCH  30  32
ENDBRANCH  26  28
ENDBRANCH  25  26
ENDBRANCH   1  25
TORSDOF 13
