REMARK VINA RESULT:    -6.943      3.782      9.266
REMARK INTER + INTRA:         -12.726
REMARK INTER:                 -11.476
REMARK INTRA:                  -1.250
REMARK UNBOUND:                -1.318
REMARK  Name = lig_assembled_40.pdb
REMARK  12 active torsions:
REMARK  status: ('A' for Active; 'I' for Inactive)
REMARK    1  A    between atoms: _2  and  _8
REMARK    2  A    between atoms: _5  and  _6
REMARK    3  A    between atoms: _5  and  _14
REMARK    4  A    between atoms: _11  and  _12
REMARK    5  A    between atoms: _14  and  _16
REMARK    6  A    between atoms: _15  and  _20
REMARK    7  A    between atoms: _16  and  _19
REMARK    8  A    between atoms: _24  and  _34
REMARK    9  A    between atoms: _26  and  _27
REMARK   10  A    between atoms: _28  and  _30
REMARK   11  A    between atoms: _30  and  _32
REMARK   12  A    between atoms: _32  and  _34
REMARK                            x       y       z     vdW  Elec       q    Type
REMARK                         _______ _______ _______ _____ _____    ______ ____
ROOT
ATOM      1  C   UNL     1      27.734  17.477  -1.405  0.00  0.00    +0.400 C 
ATOM      2  N   UNL     1      26.745  16.778  -2.055  0.00  0.00    -0.278 N 
ATOM      3  H   UNL     1      25.918  17.455  -2.049  0.00  0.00    +0.152 HD
ATOM      4  O   UNL     1      27.537  18.664  -1.157  0.00  0.00    -0.226 OA
ENDROOT
BRANCH   1   5
ATOM      5  O   UNL     1      28.783  16.793  -1.083  0.00  0.00    -0.450 OA
BRANCH   5   6
ATOM      6  C   UNL     1      29.166  15.789  -0.172  0.00  0.00    +0.240 C 
BRANCH   6   7
ATOM      7  C   UNL     1      30.650  15.728   0.237  0.00  0.00    +0.100 C 
BRANCH   7   9
ATOM      8  N   UNL     1      32.026  14.726   2.034  0.00  0.00    -0.134 NA
ATOM      9  C   UNL     1      30.830  14.818   1.383  0.00  0.00    +0.086 A 
ATOM     10  C   UNL     1      29.926  13.974   1.983  0.00  0.00    +0.139 A 
ATOM     11  N   UNL     1      30.612  13.401   3.029  0.00  0.00    -0.220 N 
ATOM     12  N   UNL     1      31.889  13.857   3.026  0.00  0.00    -0.061 NA
BRANCH  11  13
ATOM     13  C   UNL     1      30.129  12.508   4.021  0.00  0.00    +0.067 A 
ATOM     14  C   UNL     1      28.824  12.004   3.957  0.00  0.00    +0.028 A 
ATOM     15  C   UNL     1      28.338  11.181   4.979  0.00  0.00    +0.005 A 
ATOM     16  C   UNL     1      29.145  10.852   6.073  0.00  0.00    -0.050 A 
ATOM     17  C   UNL     1      30.461  11.328   6.116  0.00  0.00    +0.005 A 
ATOM     18  C   UNL     1      28.613  10.009   7.194  0.00  0.00    +0.044 C 
ATOM     19  C   UNL     1      30.953  12.151   5.098  0.00  0.00    +0.028 A 
ENDBRANCH  11  13
ENDBRANCH   7   9
ENDBRANCH   6   7
ENDBRANCH   5   6
ENDBRANCH   1   5
BRANCH   2  20
ATOM     20  C   UNL     1      26.331  15.560  -2.748  0.00  0.00    +0.152 C 
BRANCH  20  21
ATOM     21  C   UNL     1      25.498  15.757  -4.031  0.00  0.00    +0.193 C 
ATOM     22  O   UNL     1      26.434  15.799  -5.131  0.00  0.00    -0.219 OA
BRANCH  21  23
ATOM     23  C   UNL     1      24.501  14.642  -4.415  0.00  0.00    +0.212 C 
ATOM     24  O   UNL     1      25.155  13.634  -5.203  0.00  0.00    -0.218 OA
BRANCH  23  25
ATOM     25  C   UNL     1      23.828  13.950  -3.169  0.00  0.00    +0.171 C 
ATOM     26  O   UNL     1      24.433  12.704  -2.841  0.00  0.00    -0.343 OA
ATOM     27  C   UNL     1      23.891  11.775  -1.949  0.00  0.00    +0.220 C 
ATOM     28  C   UNL     1      22.419  11.465  -2.273  0.00  0.00    +0.076 C 
ATOM     29  C   UNL     1      21.669  12.805  -2.347  0.00  0.00    +0.177 C 
ATOM     30  O   UNL     1      20.292  12.573  -2.605  0.00  0.00    -0.221 OA
ATOM     31  C   UNL     1      22.305  13.718  -3.442  0.00  0.00    +0.155 C 
BRANCH  31  32
ATOM     32  N   UNL     1      21.591  14.989  -3.520  0.00  0.00    -0.202 NA
ATOM     33  C   UNL     1      20.882  15.524  -4.546  0.00  0.00    +0.242 C 
ATOM     34  C   UNL     1      20.000  16.713  -4.263  0.00  0.00    +0.096 C 
ATOM     35  O   UNL     1      20.972  15.032  -5.669  0.00  0.00    -0.273 OA
ENDBRANCH  31  32
BRANCH  27  36
ATOM     36  C   UNL     1      24.085  12.187  -0.389  0.00  0.00    +0.391 C 
ATOM     37  O   UNL     1      23.143  11.488   0.274  0.00  0.00    -0.243 OA
ATOM     38  O   UNL     1      25.268  12.809  -0.315  0.00  0.00    -0.243 OA
ENDBRANCH  27  36
ENDBRANCH  23  25
ENDBRANCH  21  23
ENDBRANCH  20  21
ENDBRANCH   2  20
TORSDOF 11
