REMARK VINA RESULT:    -7.166      3.101      8.314
REMARK INTER + INTRA:         -13.738
REMARK INTER:                 -10.955
REMARK INTRA:                  -2.783
REMARK UNBOUND:                -1.544
REMARK  Name = lig_assembled_69.pdb
REMARK  13 active torsions:
REMARK  status: ('A' for Active; 'I' for Inactive)
REMARK    1  A    between atoms: _2  and  _8
REMARK    2  A    between atoms: _5  and  _6
REMARK    3  A    between atoms: _5  and  _16
REMARK    4  A    between atoms: _10  and  _15
REMARK    5  A    between atoms: _13  and  _14
REMARK    6  A    between atoms: _16  and  _18
REMARK    7  A    between atoms: _17  and  _22
REMARK    8  A    between atoms: _18  and  _21
REMARK    9  A    between atoms: _26  and  _36
REMARK   10  A    between atoms: _28  and  _29
REMARK   11  A    between atoms: _30  and  _32
REMARK   12  A    between atoms: _32  and  _34
REMARK   13  A    between atoms: _34  and  _36
REMARK                            x       y       z     vdW  Elec       q    Type
REMARK                         _______ _______ _______ _____ _____    ______ ____
ROOT
ATOM      1  C   UNL     1      25.742  10.912   2.238  0.00  0.00    +0.400 C 
ATOM      2  N   UNL     1      26.465  12.059   2.006  0.00  0.00    -0.278 N 
ATOM      3  H   UNL     1      26.127  12.724   2.771  0.00  0.00    +0.152 HD
ATOM      4  O   UNL     1      25.084  10.842   3.272  0.00  0.00    -0.226 OA
ENDROOT
BRANCH   1   5
ATOM      5  O   UNL     1      25.804  10.014   1.310  0.00  0.00    -0.450 OA
BRANCH   5   6
ATOM      6  C   UNL     1      25.350   9.807  -0.007  0.00  0.00    +0.240 C 
BRANCH   6   7
ATOM      7  C   UNL     1      24.038  10.498  -0.425  0.00  0.00    +0.100 C 
BRANCH   7   9
ATOM      8  N   UNL     1      23.387  12.747  -1.213  0.00  0.00    -0.134 NA
ATOM      9  C   UNL     1      24.325  11.753  -1.142  0.00  0.00    +0.086 A 
ATOM     10  C   UNL     1      25.455  12.150  -1.822  0.00  0.00    +0.134 A 
ATOM     11  N   UNL     1      25.136  13.388  -2.295  0.00  0.00    -0.248 N 
ATOM     12  N   UNL     1      23.892  13.742  -1.927  0.00  0.00    -0.065 NA
BRANCH  11  13
ATOM     13  C   UNL     1      25.943  14.264  -3.144  0.00  0.00    +0.114 C 
ATOM     14  C   UNL     1      27.379  14.385  -2.622  0.00  0.00    +0.062 C 
ATOM     15  C   UNL     1      27.616  15.435  -1.533  0.00  0.00    +0.139 C 
ATOM     16  C   UNL     1      27.535  16.873  -1.959  0.00  0.00    +0.002 C 
ATOM     17  C   UNL     1      26.919  17.396  -3.031  0.00  0.00    +0.002 C 
ATOM     18  C   UNL     1      26.025  16.698  -4.009  0.00  0.00    +0.139 C 
ATOM     19  C   UNL     1      25.188  15.574  -3.408  0.00  0.00    +0.062 C 
BRANCH  18  20
ATOM     20  O   UNL     1      26.801  16.213  -5.093  0.00  0.00    -0.388 OA
ATOM     21  H   UNL     1      26.391  16.540  -5.913  0.00  0.00    +0.210 HD
ENDBRANCH  18  20
BRANCH  15  22
ATOM     22  O   UNL     1      28.957  15.251  -1.060  0.00  0.00    -0.388 OA
ATOM     23  H   UNL     1      28.950  15.410  -0.101  0.00  0.00    +0.210 HD
ENDBRANCH  15  22
ENDBRANCH  11  13
ENDBRANCH   7   9
ENDBRANCH   6   7
ENDBRANCH   5   6
ENDBRANCH   1   5
BRANCH   2  24
ATOM     24  C   UNL     1      27.474  12.754   1.211  0.00  0.00    +0.152 C 
BRANCH  24  25
ATOM     25  C   UNL     1      28.469  13.634   1.995  0.00  0.00    +0.193 C 
ATOM     26  O   UNL     1      27.805  14.024   3.217  0.00  0.00    -0.219 OA
BRANCH  25  27
ATOM     27  C   UNL     1      29.787  12.979   2.465  0.00  0.00    +0.212 C 
ATOM     28  O   UNL     1      29.745  11.559   2.253  0.00  0.00    -0.218 OA
BRANCH  27  29
ATOM     29  C   UNL     1      31.064  13.559   1.744  0.00  0.00    +0.171 C 
ATOM     30  O   UNL     1      30.991  13.447   0.327  0.00  0.00    -0.343 OA
ATOM     31  C   UNL     1      32.070  13.653  -0.536  0.00  0.00    +0.220 C 
ATOM     32  C   UNL     1      33.307  12.846  -0.106  0.00  0.00    +0.076 C 
ATOM     33  C   UNL     1      33.586  13.179   1.369  0.00  0.00    +0.177 C 
ATOM     34  O   UNL     1      34.747  12.488   1.808  0.00  0.00    -0.221 OA
ATOM     35  C   UNL     1      32.346  12.817   2.245  0.00  0.00    +0.155 C 
BRANCH  35  36
ATOM     36  N   UNL     1      32.610  13.125   3.649  0.00  0.00    -0.202 NA
ATOM     37  C   UNL     1      32.649  12.300   4.726  0.00  0.00    +0.242 C 
ATOM     38  C   UNL     1      33.233  12.828   6.010  0.00  0.00    +0.096 C 
ATOM     39  O   UNL     1      32.213  11.154   4.630  0.00  0.00    -0.273 OA
ENDBRANCH  35  36
BRANCH  31  40
ATOM     40  C   UNL     1      32.428  15.221  -0.761  0.00  0.00    +0.391 C 
ATOM     41  O   UNL     1      33.469  15.221  -1.616  0.00  0.00    -0.243 OA
ATOM     42  O   UNL     1      31.392  15.912  -0.269  0.00  0.00    -0.243 OA
ENDBRANCH  31  40
ENDBRANCH  27  29
ENDBRANCH  25  27
ENDBRANCH  24  25
ENDBRANCH   2  24
TORSDOF 13
