REMARK VINA RESULT:    -6.973      3.622      8.874
REMARK INTER + INTRA:         -13.066
REMARK INTER:                 -10.630
REMARK INTRA:                  -2.436
REMARK UNBOUND:                -1.609
REMARK  Name = lig_assembled_87.pdb
REMARK  12 active torsions:
REMARK  status: ('A' for Active; 'I' for Inactive)
REMARK    1  A    between atoms: _2  and  _9
REMARK    2  A    between atoms: _3  and  _12
REMARK    3  A    between atoms: _6  and  _7
REMARK    4  A    between atoms: _6  and  _16
REMARK    5  A    between atoms: _16  and  _18
REMARK    6  A    between atoms: _17  and  _22
REMARK    7  A    between atoms: _18  and  _21
REMARK    8  A    between atoms: _26  and  _36
REMARK    9  A    between atoms: _28  and  _29
REMARK   10  A    between atoms: _30  and  _32
REMARK   11  A    between atoms: _32  and  _34
REMARK   12  A    between atoms: _34  and  _36
REMARK                            x       y       z     vdW  Elec       q    Type
REMARK                         _______ _______ _______ _____ _____    ______ ____
ROOT
ATOM      1  C   UNL     1      28.564  16.830  -0.557  0.00  0.00    +0.400 C 
ATOM      2  N   UNL     1      27.940  15.605  -0.535  0.00  0.00    -0.278 N 
ATOM      3  H   UNL     1      26.921  15.849  -0.323  0.00  0.00    +0.152 HD
ATOM      4  O   UNL     1      27.862  17.838  -0.525  0.00  0.00    -0.226 OA
ENDROOT
BRANCH   1   5
ATOM      5  O   UNL     1      29.856  16.800  -0.578  0.00  0.00    -0.450 OA
BRANCH   5   6
ATOM      6  C   UNL     1      30.929  16.433   0.256  0.00  0.00    +0.240 C 
BRANCH   6   7
ATOM      7  C   UNL     1      31.633  15.095  -0.039  0.00  0.00    +0.100 C 
BRANCH   7   9
ATOM      8  N   UNL     1      31.459  14.545   2.364  0.00  0.00    -0.134 NA
ATOM      9  C   UNL     1      31.392  14.142   1.060  0.00  0.00    +0.086 A 
ATOM     10  C   UNL     1      31.067  12.805   1.018  0.00  0.00    +0.134 A 
ATOM     11  N   UNL     1      30.827  12.474   2.324  0.00  0.00    -0.248 N 
ATOM     12  N   UNL     1      31.182  13.500   3.124  0.00  0.00    -0.065 NA
BRANCH  11  13
ATOM     13  C   UNL     1      30.288  11.240   2.928  0.00  0.00    +0.112 C 
ATOM     14  C   UNL     1      29.143  10.566   2.123  0.00  0.00    +0.045 C 
ATOM     15  C   UNL     1      27.803  10.420   2.863  0.00  0.00    +0.059 C 
ATOM     16  C   UNL     1      27.817   9.242   3.849  0.00  0.00    +0.020 C 
ATOM     17  C   UNL     1      28.164   9.872   5.198  0.00  0.00    +0.020 C 
ATOM     18  C   UNL     1      28.499  11.323   4.851  0.00  0.00    +0.059 C 
ATOM     19  N   UNL     1      27.539  11.529   3.770  0.00  0.00    -0.299 NA
ATOM     20  C   UNL     1      27.448  12.854   3.198  0.00  0.00    +0.105 C 
ATOM     21  C   UNL     1      29.967  11.451   4.438  0.00  0.00    +0.045 C 
ENDBRANCH  11  13
ENDBRANCH   7   9
ENDBRANCH   6   7
ENDBRANCH   5   6
ENDBRANCH   1   5
BRANCH   2  22
ATOM     22  C   UNL     1      28.040  14.155  -0.683  0.00  0.00    +0.152 C 
BRANCH  22  23
ATOM     23  C   UNL     1      28.331  13.635  -2.106  0.00  0.00    +0.193 C 
ATOM     24  O   UNL     1      29.354  12.623  -1.977  0.00  0.00    -0.219 OA
BRANCH  23  25
ATOM     25  C   UNL     1      27.182  12.929  -2.858  0.00  0.00    +0.212 C 
ATOM     26  O   UNL     1      27.434  11.517  -2.947  0.00  0.00    -0.218 OA
BRANCH  25  27
ATOM     27  C   UNL     1      25.771  13.148  -2.191  0.00  0.00    +0.171 C 
ATOM     28  O   UNL     1      25.006  11.949  -2.121  0.00  0.00    -0.343 OA
ATOM     29  C   UNL     1      23.646  11.899  -1.806  0.00  0.00    +0.220 C 
ATOM     30  C   UNL     1      22.826  12.882  -2.660  0.00  0.00    +0.076 C 
ATOM     31  C   UNL     1      23.473  14.270  -2.518  0.00  0.00    +0.177 C 
ATOM     32  O   UNL     1      22.728  15.226  -3.258  0.00  0.00    -0.221 OA
ATOM     33  C   UNL     1      24.960  14.220  -2.989  0.00  0.00    +0.155 C 
BRANCH  33  34
ATOM     34  N   UNL     1      25.576  15.539  -2.862  0.00  0.00    -0.202 NA
ATOM     35  C   UNL     1      26.141  16.327  -3.811  0.00  0.00    +0.242 C 
ATOM     36  C   UNL     1      26.436  17.764  -3.465  0.00  0.00    +0.096 C 
ATOM     37  O   UNL     1      26.396  15.858  -4.919  0.00  0.00    -0.273 OA
ENDBRANCH  33  34
BRANCH  29  38
ATOM     38  C   UNL     1      23.342  12.088  -0.221  0.00  0.00    +0.391 C 
ATOM     39  O   UNL     1      24.551  12.056   0.371  0.00  0.00    -0.243 OA
ATOM     40  O   UNL     1      22.070  12.499  -0.135  0.00  0.00    -0.243 OA
ENDBRANCH  29  38
ENDBRANCH  25  27
ENDBRANCH  23  25
ENDBRANCH  22  23
ENDBRANCH   2  22
TORSDOF 11
