REMARK VINA RESULT:    -6.240      2.743      3.629
REMARK INTER + INTRA:         -12.683
REMARK INTER:                 -11.203
REMARK INTRA:                  -1.481
REMARK UNBOUND:                -1.336
REMARK  Name = lig_assembled_19.pdb
REMARK  15 active torsions:
REMARK  status: ('A' for Active; 'I' for Inactive)
REMARK    1  A    between atoms: _2  and  _8
REMARK    2  A    between atoms: _4  and  _10
REMARK    3  A    between atoms: _5  and  _6
REMARK    4  A    between atoms: _5  and  _13
REMARK    5  A    between atoms: _8  and  _9
REMARK    6  A    between atoms: _9  and  _12
REMARK    7  A    between atoms: _10  and  _12
REMARK    8  A    between atoms: _13  and  _15
REMARK    9  A    between atoms: _14  and  _19
REMARK   10  A    between atoms: _15  and  _18
REMARK   11  A    between atoms: _23  and  _33
REMARK   12  A    between atoms: _25  and  _26
REMARK   13  A    between atoms: _27  and  _29
REMARK   14  A    between atoms: _29  and  _31
REMARK   15  A    between atoms: _31  and  _33
REMARK                            x       y       z     vdW  Elec       q    Type
REMARK                         _______ _______ _______ _____ _____    ______ ____
ROOT
ATOM      1  C   UNL     1      28.933  15.439  -0.207  0.00  0.00    +0.152 C 
ENDROOT
BRANCH   1   3
ATOM      2  C   UNL     1      27.593  17.455  -1.468  0.00  0.00    +0.400 C 
ATOM      3  N   UNL     1      28.450  16.740  -0.664  0.00  0.00    -0.278 N 
ATOM      4  H   UNL     1      28.987  17.499  -0.137  0.00  0.00    +0.152 HD
ATOM      5  O   UNL     1      27.504  18.666  -1.286  0.00  0.00    -0.226 OA
BRANCH   2   6
ATOM      6  O   UNL     1      26.976  16.772  -2.375  0.00  0.00    -0.450 OA
BRANCH   6   7
ATOM      7  C   UNL     1      26.479  16.936  -3.683  0.00  0.00    +0.240 C 
BRANCH   7   8
ATOM      8  C   UNL     1      25.605  15.806  -4.258  0.00  0.00    +0.100 C 
BRANCH   8  10
ATOM      9  N   UNL     1      23.739  15.459  -2.665  0.00  0.00    -0.134 NA
ATOM     10  C   UNL     1      24.949  15.059  -3.170  0.00  0.00    +0.086 A 
ATOM     11  C   UNL     1      25.362  13.928  -2.502  0.00  0.00    +0.133 A 
ATOM     12  N   UNL     1      24.368  13.700  -1.599  0.00  0.00    -0.248 N 
ATOM     13  N   UNL     1      23.392  14.616  -1.701  0.00  0.00    -0.065 NA
BRANCH  12  14
ATOM     14  C   UNL     1      24.277  12.632  -0.629  0.00  0.00    +0.186 C 
BRANCH  14  15
ATOM     15  C   UNL     1      22.950  11.886  -0.730  0.00  0.00    +0.255 C 
BRANCH  15  16
ATOM     16  O   UNL     1      22.882  10.767   0.175  0.00  0.00    -0.463 OA
BRANCH  16  17
ATOM     17  C   UNL     1      22.826  11.074   1.498  0.00  0.00    +0.304 C 
ATOM     18  O   UNL     1      23.702  10.820   2.312  0.00  0.00    -0.251 OA
ATOM     19  C   UNL     1      21.558  11.801   1.825  0.00  0.00    +0.136 C 
ENDBRANCH  16  17
ENDBRANCH  15  16
ENDBRANCH  14  15
ENDBRANCH  12  14
ENDBRANCH   8  10
ENDBRANCH   7   8
ENDBRANCH   6   7
ENDBRANCH   2   6
ENDBRANCH   1   3
BRANCH   1  20
ATOM     20  C   UNL     1      30.464  15.257  -0.173  0.00  0.00    +0.193 C 
ATOM     21  O   UNL     1      31.040  16.582  -0.162  0.00  0.00    -0.219 OA
BRANCH  20  22
ATOM     22  C   UNL     1      31.074  14.561   1.064  0.00  0.00    +0.212 C 
ATOM     23  O   UNL     1      31.304  15.515   2.114  0.00  0.00    -0.218 OA
BRANCH  22  24
ATOM     24  C   UNL     1      30.177  13.395   1.630  0.00  0.00    +0.171 C 
ATOM     25  O   UNL     1      30.033  13.453   3.046  0.00  0.00    -0.343 OA
ATOM     26  C   UNL     1      29.503  12.423   3.827  0.00  0.00    +0.220 C 
ATOM     27  C   UNL     1      30.171  11.072   3.519  0.00  0.00    +0.076 C 
ATOM     28  C   UNL     1      30.080  10.846   2.001  0.00  0.00    +0.177 C 
ATOM     29  O   UNL     1      30.650   9.588   1.666  0.00  0.00    -0.221 OA
ATOM     30  C   UNL     1      30.789  12.010   1.240  0.00  0.00    +0.155 C 
BRANCH  30  31
ATOM     31  N   UNL     1      30.710  11.795  -0.202  0.00  0.00    -0.202 NA
ATOM     32  C   UNL     1      29.632  11.817  -1.026  0.00  0.00    +0.242 C 
ATOM     33  C   UNL     1      29.868  11.856  -2.513  0.00  0.00    +0.096 C 
ATOM     34  O   UNL     1      28.500  11.806  -0.545  0.00  0.00    -0.273 OA
ENDBRANCH  30  31
BRANCH  26  35
ATOM     35  C   UNL     1      27.883  12.320   3.748  0.00  0.00    +0.391 C 
ATOM     36  O   UNL     1      27.598  11.056   4.117  0.00  0.00    -0.243 OA
ATOM     37  O   UNL     1      27.437  13.578   3.646  0.00  0.00    -0.243 OA
ENDBRANCH  26  35
ENDBRANCH  22  24
ENDBRANCH  20  22
ENDBRANCH   1  20
TORSDOF 14
