REMARK VINA RESULT:    -6.883      1.658      2.952
REMARK INTER + INTRA:         -13.451
REMARK INTER:                 -11.934
REMARK INTRA:                  -1.517
REMARK UNBOUND:                -2.544
REMARK  Name = lig_assembled_65.pdb
REMARK  11 active torsions:
REMARK  status: ('A' for Active; 'I' for Inactive)
REMARK    1  A    between atoms: _8  and  _14
REMARK    2  A    between atoms: _9  and  _10
REMARK    3  A    between atoms: _9  and  _15
REMARK    4  A    between atoms: _15  and  _17
REMARK    5  A    between atoms: _16  and  _21
REMARK    6  A    between atoms: _17  and  _20
REMARK    7  A    between atoms: _25  and  _35
REMARK    8  A    between atoms: _27  and  _28
REMARK    9  A    between atoms: _29  and  _31
REMARK   10  A    between atoms: _31  and  _33
REMARK   11  A    between atoms: _33  and  _35
REMARK                            x       y       z     vdW  Elec       q    Type
REMARK                         _______ _______ _______ _____ _____    ______ ____
ROOT
ATOM      1  C   UNL     1      27.880  17.402  -0.848  0.00  0.00    +0.400 C 
ATOM      2  N   UNL     1      28.477  16.464  -0.039  0.00  0.00    -0.278 N 
ATOM      3  H   UNL     1      28.618  16.986   0.883  0.00  0.00    +0.152 HD
ATOM      4  O   UNL     1      27.504  18.453  -0.336  0.00  0.00    -0.226 OA
ENDROOT
BRANCH   1   5
ATOM      5  O   UNL     1      27.799  17.091  -2.100  0.00  0.00    -0.450 OA
BRANCH   5   6
ATOM      6  C   UNL     1      26.969  17.338  -3.211  0.00  0.00    +0.240 C 
BRANCH   6   7
ATOM      7  C   UNL     1      26.449  16.119  -3.995  0.00  0.00    +0.100 C 
BRANCH   7   9
ATOM      8  N   UNL     1      26.384  14.279  -2.340  0.00  0.00    -0.134 NA
ATOM      9  C   UNL     1      25.720  15.203  -3.098  0.00  0.00    +0.087 A 
ATOM     10  C   UNL     1      24.371  15.093  -2.860  0.00  0.00    +0.146 A 
ATOM     11  N   UNL     1      24.254  14.070  -1.944  0.00  0.00    -0.155 N 
ATOM     12  C   UNL     1      23.051  13.549  -1.383  0.00  0.00    +0.416 C 
ATOM     13  N   UNL     1      23.137  12.547  -0.499  0.00  0.00    +0.041 NA
ATOM     14  C   UNL     1      21.971  12.105  -0.033  0.00  0.00    +0.339 C 
ATOM     15  C   UNL     1      22.001  10.976   0.949  0.00  0.00    +0.149 C 
ATOM     16  N   UNL     1      20.782  12.590  -0.389  0.00  0.00    +0.007 NA
ATOM     17  C   UNL     1      20.807  13.569  -1.279  0.00  0.00    +0.386 C 
ATOM     18  N   UNL     1      19.596  14.091  -1.683  0.00  0.00    -0.296 N 
ATOM     19  H   UNL     1      18.880  13.908  -0.994  0.00  0.00    +0.148 HD
ATOM     20  H   UNL     1      19.697  15.041  -2.011  0.00  0.00    +0.148 HD
ATOM     21  N   UNL     1      21.901  14.103  -1.793  0.00  0.00    -0.290 NA
ATOM     22  N   UNL     1      25.489  13.595  -1.636  0.00  0.00    -0.056 NA
ENDBRANCH   7   9
ENDBRANCH   6   7
ENDBRANCH   5   6
ENDBRANCH   1   5
BRANCH   2  23
ATOM     23  C   UNL     1      28.980  15.102   0.127  0.00  0.00    +0.152 C 
BRANCH  23  24
ATOM     24  C   UNL     1      30.513  14.938   0.120  0.00  0.00    +0.193 C 
ATOM     25  O   UNL     1      31.030  15.818   1.143  0.00  0.00    -0.219 OA
BRANCH  24  26
ATOM     26  C   UNL     1      31.086  13.550   0.481  0.00  0.00    +0.212 C 
ATOM     27  O   UNL     1      32.224  13.247  -0.342  0.00  0.00    -0.218 OA
BRANCH  26  28
ATOM     28  C   UNL     1      31.511  13.424   1.994  0.00  0.00    +0.171 C 
ATOM     29  O   UNL     1      32.896  13.135   2.151  0.00  0.00    -0.343 OA
ATOM     30  C   UNL     1      33.486  12.735   3.353  0.00  0.00    +0.220 C 
ATOM     31  C   UNL     1      32.728  11.562   3.998  0.00  0.00    +0.076 C 
ATOM     32  C   UNL     1      31.249  11.971   4.107  0.00  0.00    +0.177 C 
ATOM     33  O   UNL     1      30.508  10.935   4.736  0.00  0.00    -0.221 OA
ATOM     34  C   UNL     1      30.677  12.301   2.694  0.00  0.00    +0.155 C 
BRANCH  34  35
ATOM     35  N   UNL     1      29.271  12.683   2.793  0.00  0.00    -0.202 NA
ATOM     36  C   UNL     1      28.163  12.038   2.347  0.00  0.00    +0.242 C 
ATOM     37  C   UNL     1      26.817  12.504   2.839  0.00  0.00    +0.096 C 
ATOM     38  O   UNL     1      28.280  11.098   1.564  0.00  0.00    -0.273 OA
ENDBRANCH  34  35
BRANCH  30  39
ATOM     39  C   UNL     1      33.705  13.955   4.404  0.00  0.00    +0.391 C 
ATOM     40  O   UNL     1      33.894  13.357   5.596  0.00  0.00    -0.243 OA
ATOM     41  O   UNL     1      33.914  15.049   3.662  0.00  0.00    -0.243 OA
ENDBRANCH  30  39
ENDBRANCH  26  28
ENDBRANCH  24  26
ENDBRANCH  23  24
ENDBRANCH   2  23
TORSDOF 10
