REMARK VINA RESULT:    -7.190      1.327      2.039
REMARK INTER + INTRA:         -13.661
REMARK INTER:                 -11.858
REMARK INTRA:                  -1.804
REMARK UNBOUND:                -1.427
REMARK  Name = lig_assembled_6.pdb
REMARK  12 active torsions:
REMARK  status: ('A' for Active; 'I' for Inactive)
REMARK    1  A    between atoms: _2  and  _9
REMARK    2  A    between atoms: _3  and  _12
REMARK    3  A    between atoms: _6  and  _7
REMARK    4  A    between atoms: _6  and  _16
REMARK    5  A    between atoms: _16  and  _18
REMARK    6  A    between atoms: _17  and  _22
REMARK    7  A    between atoms: _18  and  _21
REMARK    8  A    between atoms: _26  and  _36
REMARK    9  A    between atoms: _28  and  _29
REMARK   10  A    between atoms: _30  and  _32
REMARK   11  A    between atoms: _32  and  _34
REMARK   12  A    between atoms: _34  and  _36
REMARK                            x       y       z     vdW  Elec       q    Type
REMARK                         _______ _______ _______ _____ _____    ______ ____
ROOT
ATOM      1  C   UNL     1      28.468  17.053  -0.698  0.00  0.00    +0.400 C 
ATOM      2  N   UNL     1      28.639  15.890   0.016  0.00  0.00    -0.278 N 
ATOM      3  H   UNL     1      29.279  16.186   0.820  0.00  0.00    +0.152 HD
ATOM      4  O   UNL     1      28.880  18.100  -0.207  0.00  0.00    -0.226 OA
ENDROOT
BRANCH   2   5
ATOM      5  C   UNL     1      28.333  14.471   0.174  0.00  0.00    +0.152 C 
BRANCH   5   6
ATOM      6  C   UNL     1      28.915  13.786   1.427  0.00  0.00    +0.193 C 
ATOM      7  O   UNL     1      27.854  13.739   2.406  0.00  0.00    -0.219 OA
BRANCH   6   8
ATOM      8  C   UNL     1      29.378  12.318   1.291  0.00  0.00    +0.212 C 
ATOM      9  O   UNL     1      29.481  11.951  -0.095  0.00  0.00    -0.218 OA
BRANCH   8  10
ATOM     10  C   UNL     1      30.760  12.031   1.992  0.00  0.00    +0.171 C 
ATOM     11  O   UNL     1      30.645  11.933   3.408  0.00  0.00    -0.343 OA
ATOM     12  C   UNL     1      31.730  11.927   4.288  0.00  0.00    +0.220 C 
ATOM     13  C   UNL     1      32.692  13.097   4.016  0.00  0.00    +0.076 C 
ATOM     14  C   UNL     1      33.067  13.050   2.525  0.00  0.00    +0.177 C 
ATOM     15  O   UNL     1      33.989  14.089   2.227  0.00  0.00    -0.221 OA
ATOM     16  C   UNL     1      31.784  13.161   1.644  0.00  0.00    +0.155 C 
BRANCH  16  17
ATOM     17  N   UNL     1      32.136  13.123   0.227  0.00  0.00    -0.202 NA
ATOM     18  C   UNL     1      32.180  14.129  -0.683  0.00  0.00    +0.242 C 
ATOM     19  C   UNL     1      32.860  13.872  -2.002  0.00  0.00    +0.096 C 
ATOM     20  O   UNL     1      31.671  15.215  -0.413  0.00  0.00    -0.273 OA
ENDBRANCH  16  17
BRANCH  12  21
ATOM     21  C   UNL     1      32.517  10.506   4.336  0.00  0.00    +0.391 C 
ATOM     22  O   UNL     1      33.546  10.707   5.182  0.00  0.00    -0.243 OA
ATOM     23  O   UNL     1      31.696   9.610   3.774  0.00  0.00    -0.243 OA
ENDBRANCH  12  21
ENDBRANCH   8  10
ENDBRANCH   6   8
ENDBRANCH   5   6
ENDBRANCH   2   5
BRANCH   1  24
ATOM     24  O   UNL     1      27.905  16.922  -1.855  0.00  0.00    -0.450 OA
BRANCH  24  25
ATOM     25  C   UNL     1      27.108  17.667  -2.745  0.00  0.00    +0.240 C 
BRANCH  25  26
ATOM     26  C   UNL     1      26.378  16.896  -3.861  0.00  0.00    +0.100 C 
BRANCH  26  28
ATOM     27  N   UNL     1      26.368  14.420  -3.814  0.00  0.00    -0.134 NA
ATOM     28  C   UNL     1      25.876  15.607  -3.350  0.00  0.00    +0.086 A 
ATOM     29  C   UNL     1      24.920  15.353  -2.394  0.00  0.00    +0.139 A 
ATOM     30  N   UNL     1      24.884  13.982  -2.282  0.00  0.00    -0.220 N 
ATOM     31  N   UNL     1      25.754  13.439  -3.167  0.00  0.00    -0.061 NA
BRANCH  30  32
ATOM     32  C   UNL     1      24.124  13.183  -1.387  0.00  0.00    +0.067 A 
ATOM     33  C   UNL     1      22.720  13.215  -1.415  0.00  0.00    +0.034 A 
ATOM     34  C   UNL     1      21.983  12.472  -0.488  0.00  0.00    +0.086 A 
ATOM     35  C   UNL     1      22.648  11.692   0.467  0.00  0.00    +0.273 A 
ATOM     36  C   UNL     1      24.046  11.632   0.485  0.00  0.00    +0.086 A 
ATOM     37  C   UNL     1      24.782  12.377  -0.443  0.00  0.00    +0.034 A 
BRANCH  35  38
ATOM     38  N   UNL     1      21.869  10.947   1.465  0.00  0.00    +0.080 N 
ATOM     39  O   UNL     1      21.765   9.721   1.315  0.00  0.00    +0.041 OA
ATOM     40  O   UNL     1      21.357  11.587   2.393  0.00  0.00    -0.576 OA
ENDBRANCH  35  38
ENDBRANCH  30  32
ENDBRANCH  26  28
ENDBRANCH  25  26
ENDBRANCH  24  25
ENDBRANCH   1  24
TORSDOF 12
