REMARK VINA RESULT:    -6.867      1.594      3.102
REMARK INTER + INTRA:         -14.613
REMARK INTER:                 -12.942
REMARK INTRA:                  -1.671
REMARK UNBOUND:                -2.327
REMARK  Name = lig_assembled_68.pdb
REMARK  14 active torsions:
REMARK  status: ('A' for Active; 'I' for Inactive)
REMARK    1  A    between atoms: _2  and  _8
REMARK    2  A    between atoms: _5  and  _6
REMARK    3  A    between atoms: _5  and  _16
REMARK    4  A    between atoms: _8  and  _9
REMARK    5  A    between atoms: _9  and  _10
REMARK    6  A    between atoms: _9  and  _15
REMARK    7  A    between atoms: _16  and  _18
REMARK    8  A    between atoms: _17  and  _22
REMARK    9  A    between atoms: _18  and  _21
REMARK   10  A    between atoms: _26  and  _36
REMARK   11  A    between atoms: _28  and  _29
REMARK   12  A    between atoms: _30  and  _32
REMARK   13  A    between atoms: _32  and  _34
REMARK   14  A    between atoms: _34  and  _36
REMARK                            x       y       z     vdW  Elec       q    Type
REMARK                         _______ _______ _______ _____ _____    ______ ____
ROOT
ATOM      1  C   UNL     1      29.052  17.151  -0.374  0.00  0.00    +0.400 C 
ATOM      2  N   UNL     1      29.086  15.936   0.269  0.00  0.00    -0.278 N 
ATOM      3  H   UNL     1      29.745  16.110   1.093  0.00  0.00    +0.152 HD
ATOM      4  O   UNL     1      29.572  18.115   0.183  0.00  0.00    -0.226 OA
ENDROOT
BRANCH   2   5
ATOM      5  C   UNL     1      28.624  14.552   0.338  0.00  0.00    +0.152 C 
BRANCH   5   6
ATOM      6  C   UNL     1      28.617  13.907   1.740  0.00  0.00    +0.193 C 
ATOM      7  O   UNL     1      27.503  12.988   1.768  0.00  0.00    -0.219 OA
BRANCH   6   8
ATOM      8  C   UNL     1      29.837  13.046   2.136  0.00  0.00    +0.212 C 
ATOM      9  O   UNL     1      29.417  11.726   2.517  0.00  0.00    -0.218 OA
BRANCH   8  10
ATOM     10  C   UNL     1      30.913  12.922   0.990  0.00  0.00    +0.171 C 
ATOM     11  O   UNL     1      30.561  11.949   0.012  0.00  0.00    -0.343 OA
ATOM     12  C   UNL     1      31.432  11.465  -0.967  0.00  0.00    +0.220 C 
ATOM     13  C   UNL     1      32.769  11.001  -0.362  0.00  0.00    +0.076 C 
ATOM     14  C   UNL     1      33.323  12.161   0.481  0.00  0.00    +0.177 C 
ATOM     15  O   UNL     1      34.580  11.799   1.033  0.00  0.00    -0.221 OA
ATOM     16  C   UNL     1      32.304  12.548   1.598  0.00  0.00    +0.155 C 
BRANCH  16  17
ATOM     17  N   UNL     1      32.830  13.646   2.406  0.00  0.00    -0.202 NA
ATOM     18  C   UNL     1      33.266  13.646   3.691  0.00  0.00    +0.242 C 
ATOM     19  C   UNL     1      34.032  14.846   4.187  0.00  0.00    +0.096 C 
ATOM     20  O   UNL     1      33.030  12.679   4.413  0.00  0.00    -0.273 OA
ENDBRANCH  16  17
BRANCH  12  21
ATOM     21  C   UNL     1      31.661  12.500  -2.198  0.00  0.00    +0.391 C 
ATOM     22  O   UNL     1      32.764  12.050  -2.829  0.00  0.00    -0.243 OA
ATOM     23  O   UNL     1      30.530  13.207  -2.302  0.00  0.00    -0.243 OA
ENDBRANCH  12  21
ENDBRANCH   8  10
ENDBRANCH   6   8
ENDBRANCH   5   6
ENDBRANCH   2   5
BRANCH   1  24
ATOM     24  O   UNL     1      28.493  17.153  -1.539  0.00  0.00    -0.450 OA
BRANCH  24  25
ATOM     25  C   UNL     1      27.234  17.405  -2.119  0.00  0.00    +0.240 C 
BRANCH  25  26
ATOM     26  C   UNL     1      27.104  17.220  -3.643  0.00  0.00    +0.100 C 
BRANCH  26  28
ATOM     27  N   UNL     1      25.917  15.694  -5.195  0.00  0.00    -0.134 NA
ATOM     28  C   UNL     1      26.018  16.277  -3.957  0.00  0.00    +0.086 A 
ATOM     29  C   UNL     1      24.982  15.832  -3.168  0.00  0.00    +0.133 A 
ATOM     30  N   UNL     1      24.292  14.979  -3.977  0.00  0.00    -0.249 N 
ATOM     31  N   UNL     1      24.850  14.906  -5.199  0.00  0.00    -0.065 NA
BRANCH  30  32
ATOM     32  C   UNL     1      23.054  14.289  -3.688  0.00  0.00    +0.181 C 
BRANCH  32  33
ATOM     33  C   UNL     1      22.428  14.752  -2.366  0.00  0.00    +0.166 C 
BRANCH  33  34
ATOM     34  C   UNL     1      22.237  13.645  -1.339  0.00  0.00    -0.017 A 
ATOM     35  C   UNL     1      23.345  12.859  -0.975  0.00  0.00    +0.006 A 
ATOM     36  C   UNL     1      23.221  11.849  -0.018  0.00  0.00    +0.000 A 
ATOM     37  C   UNL     1      21.994  11.612   0.592  0.00  0.00    +0.000 A 
ATOM     38  C   UNL     1      20.892  12.392   0.258  0.00  0.00    +0.000 A 
ATOM     39  C   UNL     1      21.013  13.405  -0.699  0.00  0.00    +0.006 A 
ENDBRANCH  33  34
BRANCH  33  40
ATOM     40  O   UNL     1      21.145  15.331  -2.634  0.00  0.00    -0.385 OA
ATOM     41  H   UNL     1      20.509  14.609  -2.768  0.00  0.00    +0.210 HD
ENDBRANCH  33  40
ENDBRANCH  32  33
ENDBRANCH  30  32
ENDBRANCH  26  28
ENDBRANCH  25  26
ENDBRANCH  24  25
ENDBRANCH   1  24
TORSDOF 14
