REMARK VINA RESULT:    -7.908      3.095      7.246
REMARK INTER + INTRA:         -14.591
REMARK INTER:                 -12.140
REMARK INTRA:                  -2.451
REMARK UNBOUND:                -1.598
REMARK  Name = lig_assembled_80.pdb
REMARK  11 active torsions:
REMARK  status: ('A' for Active; 'I' for Inactive)
REMARK    1  A    between atoms: _2  and  _9
REMARK    2  A    between atoms: _6  and  _7
REMARK    3  A    between atoms: _6  and  _19
REMARK    4  A    between atoms: _19  and  _21
REMARK    5  A    between atoms: _20  and  _25
REMARK    6  A    between atoms: _21  and  _24
REMARK    7  A    between atoms: _29  and  _39
REMARK    8  A    between atoms: _31  and  _32
REMARK    9  A    between atoms: _33  and  _35
REMARK   10  A    between atoms: _35  and  _37
REMARK   11  A    between atoms: _37  and  _39
REMARK                            x       y       z     vdW  Elec       q    Type
REMARK                         _______ _______ _______ _____ _____    ______ ____
ROOT
ATOM      1  C   UNL     1      28.579  17.059  -0.571  0.00  0.00    +0.400 C 
ATOM      2  N   UNL     1      27.526  16.580  -1.315  0.00  0.00    -0.278 N 
ATOM      3  H   UNL     1      26.699  17.169  -0.982  0.00  0.00    +0.152 HD
ATOM      4  O   UNL     1      28.401  18.075   0.096  0.00  0.00    -0.226 OA
ENDROOT
BRANCH   1   5
ATOM      5  O   UNL     1      29.665  16.361  -0.625  0.00  0.00    -0.450 OA
BRANCH   5   6
ATOM      6  C   UNL     1      30.789  16.071   0.173  0.00  0.00    +0.240 C 
BRANCH   6   7
ATOM      7  C   UNL     1      31.053  14.593   0.519  0.00  0.00    +0.100 C 
BRANCH   7   9
ATOM      8  N   UNL     1      29.132  14.351   2.042  0.00  0.00    -0.134 NA
ATOM      9  C   UNL     1      29.799  13.927   0.927  0.00  0.00    +0.086 A 
ATOM     10  C   UNL     1      29.114  12.883   0.349  0.00  0.00    +0.134 A 
ATOM     11  N   UNL     1      28.060  12.677   1.199  0.00  0.00    -0.240 N 
ATOM     12  N   UNL     1      28.057  13.589   2.195  0.00  0.00    -0.065 NA
BRANCH  11  13
ATOM     13  C   UNL     1      26.913  11.771   1.069  0.00  0.00    +0.195 C 
ATOM     14  C   UNL     1      26.114  11.816   2.364  0.00  0.00    +0.041 C 
ATOM     15  C   UNL     1      25.092  10.700   2.414  0.00  0.00    +0.039 C 
ATOM     16  C   UNL     1      23.841  11.124   1.707  0.00  0.00    -0.026 A 
ATOM     17  C   UNL     1      23.806  11.395   0.338  0.00  0.00    +0.037 A 
ATOM     18  C   UNL     1      22.572  11.669  -0.274  0.00  0.00    +0.023 A 
ATOM     19  C   UNL     1      21.406  11.791   0.479  0.00  0.00    +0.002 A 
ATOM     20  C   UNL     1      21.452  11.596   1.852  0.00  0.00    +0.000 A 
ATOM     21  N   UNL     1      24.925  11.504  -0.505  0.00  0.00    -0.284 N 
ATOM     22  H   UNL     1      24.705  11.679  -1.480  0.00  0.00    +0.155 HD
ATOM     23  C   UNL     1      22.655  11.239   2.457  0.00  0.00    +0.005 A 
ATOM     24  C   UNL     1      26.172  11.996  -0.244  0.00  0.00    +0.242 C 
ATOM     25  O   UNL     1      26.716  12.556  -1.204  0.00  0.00    -0.273 OA
ENDBRANCH  11  13
ENDBRANCH   7   9
ENDBRANCH   6   7
ENDBRANCH   5   6
ENDBRANCH   1   5
BRANCH   2  26
ATOM     26  C   UNL     1      27.045  15.659  -2.342  0.00  0.00    +0.152 C 
BRANCH  26  27
ATOM     27  C   UNL     1      26.016  16.230  -3.339  0.00  0.00    +0.193 C 
ATOM     28  O   UNL     1      26.605  17.421  -3.906  0.00  0.00    -0.219 OA
BRANCH  27  29
ATOM     29  C   UNL     1      25.648  15.361  -4.562  0.00  0.00    +0.212 C 
ATOM     30  O   UNL     1      26.517  15.658  -5.668  0.00  0.00    -0.218 OA
BRANCH  29  31
ATOM     31  C   UNL     1      25.713  13.813  -4.272  0.00  0.00    +0.171 C 
ATOM     32  O   UNL     1      26.549  13.118  -5.191  0.00  0.00    -0.343 OA
ATOM     33  C   UNL     1      26.596  11.728  -5.318  0.00  0.00    +0.220 C 
ATOM     34  C   UNL     1      25.190  11.121  -5.473  0.00  0.00    +0.076 C 
ATOM     35  C   UNL     1      24.333  11.637  -4.305  0.00  0.00    +0.177 C 
ATOM     36  O   UNL     1      23.031  11.073  -4.378  0.00  0.00    -0.221 OA
ATOM     37  C   UNL     1      24.278  13.196  -4.326  0.00  0.00    +0.155 C 
BRANCH  37  38
ATOM     38  N   UNL     1      23.458  13.689  -3.222  0.00  0.00    -0.202 NA
ATOM     39  C   UNL     1      22.359  14.486  -3.246  0.00  0.00    +0.242 C 
ATOM     40  C   UNL     1      21.533  14.602  -1.991  0.00  0.00    +0.096 C 
ATOM     41  O   UNL     1      22.066  15.087  -4.277  0.00  0.00    -0.273 OA
ENDBRANCH  37  38
BRANCH  33  42
ATOM     42  C   UNL     1      27.433  10.998  -4.132  0.00  0.00    +0.391 C 
ATOM     43  O   UNL     1      26.870   9.781  -4.007  0.00  0.00    -0.243 OA
ATOM     44  O   UNL     1      28.530  11.742  -3.942  0.00  0.00    -0.243 OA
ENDBRANCH  33  42
ENDBRANCH  29  31
ENDBRANCH  27  29
ENDBRANCH  26  27
ENDBRANCH   2  26
TORSDOF 11
