REMARK VINA RESULT:    -7.364      1.365      1.852
REMARK INTER + INTRA:         -13.956
REMARK INTER:                 -12.699
REMARK INTRA:                  -1.257
REMARK UNBOUND:                -1.427
REMARK  Name = lig_assembled_6.pdb
REMARK  12 active torsions:
REMARK  status: ('A' for Active; 'I' for Inactive)
REMARK    1  A    between atoms: _2  and  _9
REMARK    2  A    between atoms: _3  and  _12
REMARK    3  A    between atoms: _6  and  _7
REMARK    4  A    between atoms: _6  and  _16
REMARK    5  A    between atoms: _16  and  _18
REMARK    6  A    between atoms: _17  and  _22
REMARK    7  A    between atoms: _18  and  _21
REMARK    8  A    between atoms: _26  and  _36
REMARK    9  A    between atoms: _28  and  _29
REMARK   10  A    between atoms: _30  and  _32
REMARK   11  A    between atoms: _32  and  _34
REMARK   12  A    between atoms: _34  and  _36
REMARK                            x       y       z     vdW  Elec       q    Type
REMARK                         _______ _______ _______ _____ _____    ______ ____
ROOT
ATOM      1  C   UNL     1      27.860  17.383  -0.910  0.00  0.00    +0.400 C 
ATOM      2  N   UNL     1      28.604  16.516  -0.144  0.00  0.00    -0.278 N 
ATOM      3  H   UNL     1      28.848  17.097   0.719  0.00  0.00    +0.152 HD
ATOM      4  O   UNL     1      27.514  18.449  -0.407  0.00  0.00    -0.226 OA
ENDROOT
BRANCH   2   5
ATOM      5  C   UNL     1      29.182  15.185   0.022  0.00  0.00    +0.152 C 
BRANCH   5   6
ATOM      6  C   UNL     1      30.550  15.123   0.734  0.00  0.00    +0.193 C 
ATOM      7  O   UNL     1      30.954  16.488   0.976  0.00  0.00    -0.219 OA
BRANCH   6   8
ATOM      8  C   UNL     1      30.602  14.453   2.125  0.00  0.00    +0.212 C 
ATOM      9  O   UNL     1      29.532  13.505   2.265  0.00  0.00    -0.218 OA
BRANCH   8  10
ATOM     10  C   UNL     1      31.967  13.719   2.413  0.00  0.00    +0.171 C 
ATOM     11  O   UNL     1      32.907  14.554   3.082  0.00  0.00    -0.343 OA
ATOM     12  C   UNL     1      34.260  14.247   3.241  0.00  0.00    +0.220 C 
ATOM     13  C   UNL     1      34.915  13.847   1.907  0.00  0.00    +0.076 C 
ATOM     14  C   UNL     1      34.064  12.723   1.293  0.00  0.00    +0.177 C 
ATOM     15  O   UNL     1      34.649  12.287   0.074  0.00  0.00    -0.221 OA
ATOM     16  C   UNL     1      32.600  13.216   1.075  0.00  0.00    +0.155 C 
BRANCH  16  17
ATOM     17  N   UNL     1      31.790  12.153   0.484  0.00  0.00    -0.202 NA
ATOM     18  C   UNL     1      31.438  11.947  -0.810  0.00  0.00    +0.242 C 
ATOM     19  C   UNL     1      30.845  10.615  -1.188  0.00  0.00    +0.096 C 
ATOM     20  O   UNL     1      31.610  12.842  -1.636  0.00  0.00    -0.273 OA
ENDBRANCH  16  17
BRANCH  12  21
ATOM     21  C   UNL     1      34.542  13.142   4.399  0.00  0.00    +0.391 C 
ATOM     22  O   UNL     1      35.739  12.610   4.087  0.00  0.00    -0.243 OA
ATOM     23  O   UNL     1      33.649  13.386   5.367  0.00  0.00    -0.243 OA
ENDBRANCH  12  21
ENDBRANCH   8  10
ENDBRANCH   6   8
ENDBRANCH   5   6
ENDBRANCH   2   5
BRANCH   1  24
ATOM     24  O   UNL     1      27.620  16.995  -2.119  0.00  0.00    -0.450 OA
BRANCH  24  25
ATOM     25  C   UNL     1      26.782  17.330  -3.201  0.00  0.00    +0.240 C 
BRANCH  25  26
ATOM     26  C   UNL     1      26.183  16.171  -4.021  0.00  0.00    +0.100 C 
BRANCH  26  28
ATOM     27  N   UNL     1      23.815  15.877  -3.363  0.00  0.00    -0.134 NA
ATOM     28  C   UNL     1      25.121  15.495  -3.254  0.00  0.00    +0.086 A 
ATOM     29  C   UNL     1      25.209  14.444  -2.370  0.00  0.00    +0.139 A 
ATOM     30  N   UNL     1      23.912  14.194  -1.985  0.00  0.00    -0.220 N 
ATOM     31  N   UNL     1      23.088  15.087  -2.584  0.00  0.00    -0.061 NA
BRANCH  30  32
ATOM     32  C   UNL     1      23.420  13.164  -1.140  0.00  0.00    +0.067 A 
ATOM     33  C   UNL     1      22.039  12.945  -1.008  0.00  0.00    +0.034 A 
ATOM     34  C   UNL     1      21.564  11.970  -0.125  0.00  0.00    +0.086 A 
ATOM     35  C   UNL     1      22.469  11.209   0.625  0.00  0.00    +0.273 A 
ATOM     36  C   UNL     1      23.848  11.401   0.480  0.00  0.00    +0.086 A 
ATOM     37  C   UNL     1      24.321  12.377  -0.404  0.00  0.00    +0.034 A 
BRANCH  35  38
ATOM     38  N   UNL     1      21.963  10.216   1.581  0.00  0.00    +0.080 N 
ATOM     39  O   UNL     1      21.813  10.576   2.758  0.00  0.00    +0.041 OA
ATOM     40  O   UNL     1      21.723   9.077   1.159  0.00  0.00    -0.576 OA
ENDBRANCH  35  38
ENDBRANCH  30  32
ENDBRANCH  26  28
ENDBRANCH  25  26
ENDBRANCH  24  25
ENDBRANCH   1  24
TORSDOF 12
