REMARK VINA RESULT:    -7.140      2.041      3.566
REMARK INTER + INTRA:         -15.060
REMARK INTER:                 -12.566
REMARK INTRA:                  -2.494
REMARK UNBOUND:                -2.494
REMARK  Name = lig_assembled_79.pdb
REMARK  15 active torsions:
REMARK  status: ('A' for Active; 'I' for Inactive)
REMARK    1  A    between atoms: _2  and  _9
REMARK    2  A    between atoms: _6  and  _7
REMARK    3  A    between atoms: _6  and  _21
REMARK    4  A    between atoms: _9  and  _10
REMARK    5  A    between atoms: _9  and  _11
REMARK    6  A    between atoms: _9  and  _12
REMARK    7  A    between atoms: _12  and  _13
REMARK    8  A    between atoms: _21  and  _23
REMARK    9  A    between atoms: _22  and  _27
REMARK   10  A    between atoms: _23  and  _26
REMARK   11  A    between atoms: _31  and  _41
REMARK   12  A    between atoms: _33  and  _34
REMARK   13  A    between atoms: _35  and  _37
REMARK   14  A    between atoms: _37  and  _39
REMARK   15  A    between atoms: _39  and  _41
REMARK                            x       y       z     vdW  Elec       q    Type
REMARK                         _______ _______ _______ _____ _____    ______ ____
ROOT
ATOM      1  O   UNL     1      27.939  17.123  -1.931  0.00  0.00    -0.450 OA
ENDROOT
BRANCH   1   2
ATOM      2  C   UNL     1      28.225  17.194  -0.672  0.00  0.00    +0.400 C 
ATOM      3  N   UNL     1      28.980  16.159  -0.173  0.00  0.00    -0.278 N 
ATOM      4  H   UNL     1      29.262  16.504   0.798  0.00  0.00    +0.152 HD
ATOM      5  O   UNL     1      27.911  18.103   0.093  0.00  0.00    -0.226 OA
BRANCH   3   6
ATOM      6  C   UNL     1      29.544  14.825  -0.365  0.00  0.00    +0.152 C 
BRANCH   6   7
ATOM      7  C   UNL     1      31.005  14.633   0.091  0.00  0.00    +0.193 C 
ATOM      8  O   UNL     1      31.771  15.702  -0.507  0.00  0.00    -0.219 OA
BRANCH   7   9
ATOM      9  C   UNL     1      31.302  14.744   1.603  0.00  0.00    +0.212 C 
ATOM     10  O   UNL     1      30.119  14.465   2.369  0.00  0.00    -0.218 OA
BRANCH   9  11
ATOM     11  C   UNL     1      32.454  13.783   2.085  0.00  0.00    +0.171 C 
ATOM     12  O   UNL     1      33.750  14.330   1.871  0.00  0.00    -0.343 OA
ATOM     13  C   UNL     1      34.940  13.605   1.977  0.00  0.00    +0.220 C 
ATOM     14  C   UNL     1      34.886  12.300   1.164  0.00  0.00    +0.076 C 
ATOM     15  C   UNL     1      33.623  11.537   1.596  0.00  0.00    +0.177 C 
ATOM     16  O   UNL     1      33.545  10.300   0.902  0.00  0.00    -0.221 OA
ATOM     17  C   UNL     1      32.355  12.411   1.341  0.00  0.00    +0.155 C 
BRANCH  17  18
ATOM     18  N   UNL     1      31.151  11.687   1.744  0.00  0.00    -0.202 NA
ATOM     19  C   UNL     1      30.219  11.061   0.981  0.00  0.00    +0.242 C 
ATOM     20  C   UNL     1      29.239  10.141   1.662  0.00  0.00    +0.096 C 
ATOM     21  O   UNL     1      30.198  11.254  -0.233  0.00  0.00    -0.273 OA
ENDBRANCH  17  18
BRANCH  13  22
ATOM     22  C   UNL     1      35.398  13.335   3.512  0.00  0.00    +0.391 C 
ATOM     23  O   UNL     1      36.498  12.563   3.415  0.00  0.00    -0.243 OA
ATOM     24  O   UNL     1      34.712  14.206   4.262  0.00  0.00    -0.243 OA
ENDBRANCH  13  22
ENDBRANCH   9  11
ENDBRANCH   7   9
ENDBRANCH   6   7
ENDBRANCH   3   6
ENDBRANCH   1   2
BRANCH   1  25
ATOM     25  C   UNL     1      26.854  17.368  -2.795  0.00  0.00    +0.240 C 
BRANCH  25  26
ATOM     26  C   UNL     1      26.764  16.520  -4.079  0.00  0.00    +0.100 C 
BRANCH  26  28
ATOM     27  N   UNL     1      25.794  14.345  -4.719  0.00  0.00    -0.134 NA
ATOM     28  C   UNL     1      26.320  15.153  -3.754  0.00  0.00    +0.086 A 
ATOM     29  C   UNL     1      26.327  14.479  -2.554  0.00  0.00    +0.134 A 
ATOM     30  N   UNL     1      25.878  13.225  -2.862  0.00  0.00    -0.238 N 
ATOM     31  N   UNL     1      25.484  13.186  -4.159  0.00  0.00    -0.065 NA
BRANCH  30  32
ATOM     32  C   UNL     1      25.588  12.049  -1.990  0.00  0.00    +0.122 C 
ATOM     33  C   UNL     1      26.957  11.500  -1.522  0.00  0.00    +0.044 C 
ATOM     34  C   UNL     1      24.775  11.086  -2.878  0.00  0.00    +0.044 C 
BRANCH  32  35
ATOM     35  C   UNL     1      24.779  12.406  -0.725  0.00  0.00    +0.192 C 
ATOM     36  O   UNL     1      25.340  12.478   0.372  0.00  0.00    -0.289 OA
BRANCH  35  37
ATOM     37  C   UNL     1      23.309  12.655  -0.755  0.00  0.00    +0.045 A 
ATOM     38  C   UNL     1      22.464  11.904   0.056  0.00  0.00    +0.095 A 
ATOM     39  N   UNL     1      21.172  12.281  -0.154  0.00  0.00    -0.360 N 
ATOM     40  H   UNL     1      20.364  11.880   0.304  0.00  0.00    +0.165 HD
ATOM     41  C   UNL     1      21.121  13.278  -1.093  0.00  0.00    +0.047 A 
ATOM     42  C   UNL     1      19.999  13.943  -1.609  0.00  0.00    +0.026 A 
ATOM     43  C   UNL     1      20.201  14.930  -2.573  0.00  0.00    +0.002 A 
ATOM     44  C   UNL     1      21.482  15.242  -2.999  0.00  0.00    +0.001 A 
ATOM     45  C   UNL     1      22.590  14.569  -2.471  0.00  0.00    +0.011 A 
ATOM     46  C   UNL     1      22.436  13.553  -1.492  0.00  0.00    +0.010 A 
ENDBRANCH  35  37
ENDBRANCH  32  35
ENDBRANCH  30  32
ENDBRANCH  26  28
ENDBRANCH  25  26
ENDBRANCH   1  25
TORSDOF 13
