REMARK VINA RESULT:    -7.392      2.132      2.921
REMARK INTER + INTRA:         -14.003
REMARK INTER:                 -12.110
REMARK INTRA:                  -1.893
REMARK UNBOUND:                -1.427
REMARK  Name = lig_assembled_6.pdb
REMARK  12 active torsions:
REMARK  status: ('A' for Active; 'I' for Inactive)
REMARK    1  A    between atoms: _2  and  _9
REMARK    2  A    between atoms: _3  and  _12
REMARK    3  A    between atoms: _6  and  _7
REMARK    4  A    between atoms: _6  and  _16
REMARK    5  A    between atoms: _16  and  _18
REMARK    6  A    between atoms: _17  and  _22
REMARK    7  A    between atoms: _18  and  _21
REMARK    8  A    between atoms: _26  and  _36
REMARK    9  A    between atoms: _28  and  _29
REMARK   10  A    between atoms: _30  and  _32
REMARK   11  A    between atoms: _32  and  _34
REMARK   12  A    between atoms: _34  and  _36
REMARK                            x       y       z     vdW  Elec       q    Type
REMARK                         _______ _______ _______ _____ _____    ______ ____
ROOT
ATOM      1  C   UNL     1      27.848  17.512  -0.850  0.00  0.00    +0.400 C 
ATOM      2  N   UNL     1      28.480  16.432  -0.281  0.00  0.00    -0.278 N 
ATOM      3  H   UNL     1      28.648  16.747   0.727  0.00  0.00    +0.152 HD
ATOM      4  O   UNL     1      27.481  18.424  -0.113  0.00  0.00    -0.226 OA
ENDROOT
BRANCH   2   5
ATOM      5  C   UNL     1      28.999  15.075  -0.427  0.00  0.00    +0.152 C 
BRANCH   5   6
ATOM      6  C   UNL     1      30.529  14.917  -0.318  0.00  0.00    +0.193 C 
ATOM      7  O   UNL     1      31.095  16.239  -0.462  0.00  0.00    -0.219 OA
BRANCH   6   8
ATOM      8  C   UNL     1      31.101  14.397   1.020  0.00  0.00    +0.212 C 
ATOM      9  O   UNL     1      31.226  15.473   1.964  0.00  0.00    -0.218 OA
BRANCH   8  10
ATOM     10  C   UNL     1      30.230  13.256   1.670  0.00  0.00    +0.171 C 
ATOM     11  O   UNL     1      30.070  13.421   3.075  0.00  0.00    -0.343 OA
ATOM     12  C   UNL     1      29.560  12.442   3.931  0.00  0.00    +0.220 C 
ATOM     13  C   UNL     1      30.267  11.090   3.736  0.00  0.00    +0.076 C 
ATOM     14  C   UNL     1      30.197  10.742   2.240  0.00  0.00    +0.177 C 
ATOM     15  O   UNL     1      30.802   9.478   2.011  0.00  0.00    -0.221 OA
ATOM     16  C   UNL     1      30.882  11.861   1.395  0.00  0.00    +0.155 C 
BRANCH  16  17
ATOM     17  N   UNL     1      30.823  11.531  -0.026  0.00  0.00    -0.202 NA
ATOM     18  C   UNL     1      31.827  11.410  -0.931  0.00  0.00    +0.242 C 
ATOM     19  C   UNL     1      31.519  10.772  -2.261  0.00  0.00    +0.096 C 
ATOM     20  O   UNL     1      32.952  11.818  -0.649  0.00  0.00    -0.273 OA
ENDBRANCH  16  17
BRANCH  12  21
ATOM     21  C   UNL     1      27.945  12.289   3.849  0.00  0.00    +0.391 C 
ATOM     22  O   UNL     1      27.688  11.057   4.330  0.00  0.00    -0.243 OA
ATOM     23  O   UNL     1      27.467  13.520   3.628  0.00  0.00    -0.243 OA
ENDBRANCH  12  21
ENDBRANCH   8  10
ENDBRANCH   6   8
ENDBRANCH   5   6
ENDBRANCH   2   5
BRANCH   1  24
ATOM     24  O   UNL     1      27.726  17.475  -2.137  0.00  0.00    -0.450 OA
BRANCH  24  25
ATOM     25  C   UNL     1      26.718  17.340  -3.111  0.00  0.00    +0.240 C 
BRANCH  25  26
ATOM     26  C   UNL     1      26.456  15.930  -3.673  0.00  0.00    +0.100 C 
BRANCH  26  28
ATOM     27  N   UNL     1      24.107  15.720  -2.922  0.00  0.00    -0.134 NA
ATOM     28  C   UNL     1      25.392  15.260  -2.903  0.00  0.00    +0.086 A 
ATOM     29  C   UNL     1      25.459  14.145  -2.099  0.00  0.00    +0.139 A 
ATOM     30  N   UNL     1      24.168  13.939  -1.669  0.00  0.00    -0.220 N 
ATOM     31  N   UNL     1      23.371  14.917  -2.164  0.00  0.00    -0.061 NA
BRANCH  30  32
ATOM     32  C   UNL     1      23.655  12.881  -0.873  0.00  0.00    +0.067 A 
ATOM     33  C   UNL     1      22.270  12.690  -0.743  0.00  0.00    +0.034 A 
ATOM     34  C   UNL     1      21.776  11.683   0.093  0.00  0.00    +0.086 A 
ATOM     35  C   UNL     1      22.666  10.862   0.796  0.00  0.00    +0.273 A 
ATOM     36  C   UNL     1      24.049  11.027   0.651  0.00  0.00    +0.086 A 
ATOM     37  C   UNL     1      24.540  12.035  -0.185  0.00  0.00    +0.034 A 
BRANCH  35  38
ATOM     38  N   UNL     1      22.142   9.835   1.705  0.00  0.00    +0.080 N 
ATOM     39  O   UNL     1      21.840  10.184   2.856  0.00  0.00    +0.041 OA
ATOM     40  O   UNL     1      22.037   8.680   1.272  0.00  0.00    -0.576 OA
ENDBRANCH  35  38
ENDBRANCH  30  32
ENDBRANCH  26  28
ENDBRANCH  25  26
ENDBRANCH  24  25
ENDBRANCH   1  24
TORSDOF 12
