REMARK VINA RESULT:    -6.345      1.757      2.108
REMARK INTER + INTRA:         -14.023
REMARK INTER:                 -12.066
REMARK INTRA:                  -1.957
REMARK UNBOUND:                -2.486
REMARK  Name = lig_assembled_29.pdb
REMARK  16 active torsions:
REMARK  status: ('A' for Active; 'I' for Inactive)
REMARK    1  A    between atoms: _2  and  _8
REMARK    2  A    between atoms: _5  and  _6
REMARK    3  A    between atoms: _5  and  _18
REMARK    4  A    between atoms: _8  and  _9
REMARK    5  A    between atoms: _11  and  _17
REMARK    6  A    between atoms: _12  and  _17
REMARK    7  A    between atoms: _13  and  _16
REMARK    8  A    between atoms: _14  and  _16
REMARK    9  A    between atoms: _18  and  _20
REMARK   10  A    between atoms: _19  and  _24
REMARK   11  A    between atoms: _20  and  _23
REMARK   12  A    between atoms: _28  and  _38
REMARK   13  A    between atoms: _30  and  _31
REMARK   14  A    between atoms: _32  and  _34
REMARK   15  A    between atoms: _34  and  _36
REMARK   16  A    between atoms: _36  and  _38
REMARK                            x       y       z     vdW  Elec       q    Type
REMARK                         _______ _______ _______ _____ _____    ______ ____
ROOT
ATOM      1  C   UNL     1      27.844  17.401  -0.794  0.00  0.00    +0.400 C 
ATOM      2  N   UNL     1      28.589  16.511  -0.057  0.00  0.00    -0.278 N 
ATOM      3  H   UNL     1      28.787  17.043   0.848  0.00  0.00    +0.152 HD
ATOM      4  O   UNL     1      27.447  18.423  -0.239  0.00  0.00    -0.226 OA
ENDROOT
BRANCH   2   5
ATOM      5  C   UNL     1      29.205  15.191   0.046  0.00  0.00    +0.152 C 
BRANCH   5   6
ATOM      6  C   UNL     1      30.592  15.139   0.721  0.00  0.00    +0.193 C 
ATOM      7  O   UNL     1      31.056  16.503   0.822  0.00  0.00    -0.219 OA
BRANCH   6   8
ATOM      8  C   UNL     1      30.664  14.598   2.166  0.00  0.00    +0.212 C 
ATOM      9  O   UNL     1      29.549  13.733   2.435  0.00  0.00    -0.218 OA
BRANCH   8  10
ATOM     10  C   UNL     1      31.996  13.813   2.473  0.00  0.00    +0.171 C 
ATOM     11  O   UNL     1      33.001  14.643   3.048  0.00  0.00    -0.343 OA
ATOM     12  C   UNL     1      34.340  14.273   3.192  0.00  0.00    +0.220 C 
ATOM     13  C   UNL     1      34.929  13.736   1.876  0.00  0.00    +0.076 C 
ATOM     14  C   UNL     1      34.000  12.618   1.376  0.00  0.00    +0.177 C 
ATOM     15  O   UNL     1      34.521  12.058   0.179  0.00  0.00    -0.221 OA
ATOM     16  C   UNL     1      32.558  13.174   1.160  0.00  0.00    +0.155 C 
BRANCH  16  17
ATOM     17  N   UNL     1      31.673  12.116   0.678  0.00  0.00    -0.202 NA
ATOM     18  C   UNL     1      31.280  11.824  -0.588  0.00  0.00    +0.242 C 
ATOM     19  C   UNL     1      30.601  10.503  -0.838  0.00  0.00    +0.096 C 
ATOM     20  O   UNL     1      31.485  12.633  -1.490  0.00  0.00    -0.273 OA
ENDBRANCH  16  17
BRANCH  12  21
ATOM     21  C   UNL     1      34.599  13.247   4.425  0.00  0.00    +0.391 C 
ATOM     22  O   UNL     1      35.739  12.602   4.107  0.00  0.00    -0.243 OA
ATOM     23  O   UNL     1      33.775  13.633   5.407  0.00  0.00    -0.243 OA
ENDBRANCH  12  21
ENDBRANCH   8  10
ENDBRANCH   6   8
ENDBRANCH   5   6
ENDBRANCH   2   5
BRANCH   1  24
ATOM     24  O   UNL     1      27.657  17.084  -2.033  0.00  0.00    -0.450 OA
BRANCH  24  25
ATOM     25  C   UNL     1      26.880  17.493  -3.134  0.00  0.00    +0.240 C 
BRANCH  25  26
ATOM     26  C   UNL     1      26.450  16.410  -4.142  0.00  0.00    +0.100 C 
BRANCH  26  28
ATOM     27  N   UNL     1      24.458  15.793  -2.801  0.00  0.00    -0.134 NA
ATOM     28  C   UNL     1      25.580  15.414  -3.489  0.00  0.00    +0.086 A 
ATOM     29  C   UNL     1      25.684  14.043  -3.463  0.00  0.00    +0.134 A 
ATOM     30  N   UNL     1      24.546  13.641  -2.824  0.00  0.00    -0.247 N 
ATOM     31  N   UNL     1      23.836  14.696  -2.387  0.00  0.00    -0.065 NA
BRANCH  30  32
ATOM     32  C   UNL     1      24.052  12.289  -2.639  0.00  0.00    +0.180 C 
BRANCH  32  33
ATOM     33  C   UNL     1      24.064  11.909  -1.176  0.00  0.00    -0.022 A 
ATOM     34  C   UNL     1      25.257  11.986  -0.435  0.00  0.00    +0.054 A 
ATOM     35  C   UNL     1      25.266  11.712   0.940  0.00  0.00    +0.162 A 
ATOM     36  C   UNL     1      24.068  11.346   1.585  0.00  0.00    +0.162 A 
ATOM     37  C   UNL     1      22.884  11.269   0.846  0.00  0.00    +0.050 A 
ATOM     38  C   UNL     1      22.882  11.546  -0.524  0.00  0.00    +0.009 A 
BRANCH  36  39
ATOM     39  O   UNL     1      24.159  11.088   2.931  0.00  0.00    -0.491 OA
ATOM     40  C   UNL     1      23.897   9.763   3.369  0.00  0.00    +0.277 C 
ENDBRANCH  36  39
BRANCH  35  41
ATOM     41  O   UNL     1      26.382  11.786   1.736  0.00  0.00    -0.491 OA
ATOM     42  C   UNL     1      27.528  11.043   1.343  0.00  0.00    +0.277 C 
ENDBRANCH  35  41
ENDBRANCH  32  33
ENDBRANCH  30  32
ENDBRANCH  26  28
ENDBRANCH  25  26
ENDBRANCH  24  25
ENDBRANCH   1  24
TORSDOF 14
