REMARK VINA RESULT:    -7.292      1.803      2.606
REMARK INTER + INTRA:         -13.831
REMARK INTER:                 -11.396
REMARK INTRA:                  -2.435
REMARK UNBOUND:                -1.850
REMARK  Name = lig_assembled_2.pdb
REMARK  11 active torsions:
REMARK  status: ('A' for Active; 'I' for Inactive)
REMARK    1  A    between atoms: _2  and  _8
REMARK    2  A    between atoms: _5  and  _6
REMARK    3  A    between atoms: _5  and  _13
REMARK    4  A    between atoms: _13  and  _15
REMARK    5  A    between atoms: _14  and  _19
REMARK    6  A    between atoms: _15  and  _18
REMARK    7  A    between atoms: _23  and  _33
REMARK    8  A    between atoms: _25  and  _26
REMARK    9  A    between atoms: _27  and  _29
REMARK   10  A    between atoms: _29  and  _31
REMARK   11  A    between atoms: _31  and  _33
REMARK                            x       y       z     vdW  Elec       q    Type
REMARK                         _______ _______ _______ _____ _____    ______ ____
ROOT
ATOM      1  C   UNL     1      28.063  17.063  -0.870  0.00  0.00    +0.400 C 
ATOM      2  N   UNL     1      28.325  15.821  -0.340  0.00  0.00    -0.278 N 
ATOM      3  H   UNL     1      28.559  16.032   0.681  0.00  0.00    +0.152 HD
ATOM      4  O   UNL     1      27.975  18.015  -0.099  0.00  0.00    -0.226 OA
ENDROOT
BRANCH   1   5
ATOM      5  O   UNL     1      27.964  17.112  -2.158  0.00  0.00    -0.450 OA
BRANCH   5   6
ATOM      6  C   UNL     1      27.024  17.468  -3.144  0.00  0.00    +0.240 C 
BRANCH   6   7
ATOM      7  C   UNL     1      26.637  16.394  -4.178  0.00  0.00    +0.100 C 
BRANCH   7   9
ATOM      8  N   UNL     1      26.710  13.965  -3.708  0.00  0.00    -0.134 NA
ATOM      9  C   UNL     1      26.135  15.185  -3.497  0.00  0.00    +0.086 A 
ATOM     10  C   UNL     1      25.103  15.046  -2.598  0.00  0.00    +0.139 A 
ATOM     11  N   UNL     1      25.103  13.712  -2.260  0.00  0.00    -0.220 N 
ATOM     12  N   UNL     1      26.074  13.075  -2.959  0.00  0.00    -0.061 NA
BRANCH  11  13
ATOM     13  C   UNL     1      24.282  13.033  -1.322  0.00  0.00    +0.067 A 
ATOM     14  C   UNL     1      22.895  13.244  -1.293  0.00  0.00    +0.029 A 
ATOM     15  C   UNL     1      22.109  12.593  -0.335  0.00  0.00    +0.022 A 
ATOM     16  C   UNL     1      22.701  11.734   0.588  0.00  0.00    +0.041 A 
ATOM     17 CL   UNL     1      21.729  10.956   1.774  0.00  0.00    -0.084 Cl
ATOM     18  C   UNL     1      24.075  11.507   0.557  0.00  0.00    +0.022 A 
ATOM     19  C   UNL     1      24.867  12.153  -0.396  0.00  0.00    +0.029 A 
ENDBRANCH  11  13
ENDBRANCH   7   9
ENDBRANCH   6   7
ENDBRANCH   5   6
ENDBRANCH   1   5
BRANCH   2  20
ATOM     20  C   UNL     1      28.410  14.376  -0.538  0.00  0.00    +0.152 C 
BRANCH  20  21
ATOM     21  C   UNL     1      28.075  13.502   0.687  0.00  0.00    +0.193 C 
ATOM     22  O   UNL     1      28.597  12.183   0.411  0.00  0.00    -0.219 OA
BRANCH  21  23
ATOM     23  C   UNL     1      28.710  13.892   2.040  0.00  0.00    +0.212 C 
ATOM     24  O   UNL     1      27.709  13.937   3.070  0.00  0.00    -0.218 OA
BRANCH  23  25
ATOM     25  C   UNL     1      29.859  12.914   2.496  0.00  0.00    +0.171 C 
ATOM     26  O   UNL     1      29.637  12.378   3.796  0.00  0.00    -0.343 OA
ATOM     27  C   UNL     1      30.598  11.686   4.538  0.00  0.00    +0.220 C 
ATOM     28  C   UNL     1      31.926  12.461   4.614  0.00  0.00    +0.076 C 
ATOM     29  C   UNL     1      32.343  12.805   3.175  0.00  0.00    +0.177 C 
ATOM     30  O   UNL     1      33.588  13.489   3.185  0.00  0.00    -0.221 OA
ATOM     31  C   UNL     1      31.234  13.658   2.483  0.00  0.00    +0.155 C 
BRANCH  31  32
ATOM     32  N   UNL     1      31.630  13.993   1.117  0.00  0.00    -0.202 NA
ATOM     33  C   UNL     1      31.665  15.199   0.496  0.00  0.00    +0.242 C 
ATOM     34  C   UNL     1      32.393  15.305  -0.819  0.00  0.00    +0.096 C 
ATOM     35  O   UNL     1      31.110  16.166   1.013  0.00  0.00    -0.273 OA
ENDBRANCH  31  32
BRANCH  27  36
ATOM     36  C   UNL     1      30.826  10.158   4.036  0.00  0.00    +0.391 C 
ATOM     37  O   UNL     1      31.952   9.753   4.656  0.00  0.00    -0.243 OA
ATOM     38  O   UNL     1      29.680   9.784   3.455  0.00  0.00    -0.243 OA
ENDBRANCH  27  36
ENDBRANCH  23  25
ENDBRANCH  21  23
ENDBRANCH  20  21
ENDBRANCH   2  20
TORSDOF 11
