REMARK VINA RESULT:    -6.687      1.656      2.961
REMARK INTER + INTRA:         -15.277
REMARK INTER:                 -13.386
REMARK INTRA:                  -1.891
REMARK UNBOUND:                -3.117
REMARK  Name = lig_assembled_9.pdb
REMARK  15 active torsions:
REMARK  status: ('A' for Active; 'I' for Inactive)
REMARK    1  A    between atoms: _2  and  _8
REMARK    2  A    between atoms: _5  and  _6
REMARK    3  A    between atoms: _5  and  _18
REMARK    4  A    between atoms: _10  and  _11
REMARK    5  A    between atoms: _11  and  _16
REMARK    6  A    between atoms: _12  and  _13
REMARK    7  A    between atoms: _12  and  _16
REMARK    8  A    between atoms: _18  and  _20
REMARK    9  A    between atoms: _19  and  _24
REMARK   10  A    between atoms: _20  and  _23
REMARK   11  A    between atoms: _28  and  _38
REMARK   12  A    between atoms: _30  and  _31
REMARK   13  A    between atoms: _32  and  _34
REMARK   14  A    between atoms: _34  and  _36
REMARK   15  A    between atoms: _36  and  _38
REMARK                            x       y       z     vdW  Elec       q    Type
REMARK                         _______ _______ _______ _____ _____    ______ ____
ROOT
ATOM      1  C   UNL     1      28.382  17.060  -0.764  0.00  0.00    +0.400 C 
ATOM      2  N   UNL     1      29.220  16.084  -0.277  0.00  0.00    -0.278 N 
ATOM      3  H   UNL     1      29.692  16.557   0.557  0.00  0.00    +0.152 HD
ATOM      4  O   UNL     1      28.231  18.080  -0.096  0.00  0.00    -0.226 OA
ENDROOT
BRANCH   2   5
ATOM      5  C   UNL     1      29.731  14.720  -0.377  0.00  0.00    +0.152 C 
BRANCH   5   6
ATOM      6  C   UNL     1      31.247  14.544  -0.156  0.00  0.00    +0.193 C 
ATOM      7  O   UNL     1      31.891  15.685  -0.764  0.00  0.00    -0.219 OA
BRANCH   6   8
ATOM      8  C   UNL     1      31.761  14.542   1.301  0.00  0.00    +0.212 C 
ATOM      9  O   UNL     1      31.230  15.666   2.022  0.00  0.00    -0.218 OA
BRANCH   8  10
ATOM     10  C   UNL     1      31.404  13.224   2.088  0.00  0.00    +0.171 C 
ATOM     11  O   UNL     1      30.031  13.163   2.459  0.00  0.00    -0.343 OA
ATOM     12  C   UNL     1      29.499  12.238   3.361  0.00  0.00    +0.220 C 
ATOM     13  C   UNL     1      30.301  12.197   4.674  0.00  0.00    +0.076 C 
ATOM     14  C   UNL     1      31.777  11.968   4.308  0.00  0.00    +0.177 C 
ATOM     15  O   UNL     1      32.558  11.881   5.491  0.00  0.00    -0.221 OA
ATOM     16  C   UNL     1      32.283  13.113   3.377  0.00  0.00    +0.155 C 
BRANCH  16  17
ATOM     17  N   UNL     1      33.687  12.904   3.033  0.00  0.00    -0.202 NA
ATOM     18  C   UNL     1      34.776  13.656   3.334  0.00  0.00    +0.242 C 
ATOM     19  C   UNL     1      36.141  13.060   3.109  0.00  0.00    +0.096 C 
ATOM     20  O   UNL     1      34.625  14.792   3.778  0.00  0.00    -0.273 OA
ENDBRANCH  16  17
BRANCH  12  21
ATOM     21  C   UNL     1      29.309  10.754   2.730  0.00  0.00    +0.391 C 
ATOM     22  O   UNL     1      28.952   9.977   3.771  0.00  0.00    -0.243 OA
ATOM     23  O   UNL     1      29.282  10.917   1.402  0.00  0.00    -0.243 OA
ENDBRANCH  12  21
ENDBRANCH   8  10
ENDBRANCH   6   8
ENDBRANCH   5   6
ENDBRANCH   2   5
BRANCH   1  24
ATOM     24  O   UNL     1      27.849  16.816  -1.916  0.00  0.00    -0.450 OA
BRANCH  24  25
ATOM     25  C   UNL     1      27.013  17.443  -2.861  0.00  0.00    +0.240 C 
BRANCH  25  26
ATOM     26  C   UNL     1      26.384  16.557  -3.953  0.00  0.00    +0.100 C 
BRANCH  26  28
ATOM     27  N   UNL     1      26.143  14.172  -3.338  0.00  0.00    -0.134 NA
ATOM     28  C   UNL     1      25.641  15.441  -3.338  0.00  0.00    +0.086 A 
ATOM     29  C   UNL     1      24.425  15.443  -2.697  0.00  0.00    +0.139 A 
ATOM     30  N   UNL     1      24.238  14.144  -2.282  0.00  0.00    -0.220 N 
ATOM     31  N   UNL     1      25.281  13.388  -2.701  0.00  0.00    -0.061 NA
BRANCH  30  32
ATOM     32  C   UNL     1      23.179  13.603  -1.511  0.00  0.00    +0.068 A 
ATOM     33  C   UNL     1      23.405  12.518  -0.653  0.00  0.00    +0.042 A 
ATOM     34  C   UNL     1      22.347  11.965   0.084  0.00  0.00    +0.061 A 
ATOM     35  C   UNL     1      21.061  12.506  -0.036  0.00  0.00    +0.015 A 
ATOM     36  C   UNL     1      20.835  13.595  -0.879  0.00  0.00    +0.003 A 
ATOM     37  C   UNL     1      21.889  14.144  -1.614  0.00  0.00    +0.028 A 
BRANCH  34  38
ATOM     38  C   UNL     1      22.556  10.854   1.049  0.00  0.00    +0.339 C 
ATOM     39  O   UNL     1      21.650  10.284   1.634  0.00  0.00    -0.245 OA
BRANCH  38  40
ATOM     40  O   UNL     1      23.885  10.656   1.239  0.00  0.00    -0.461 OA
BRANCH  40  41
ATOM     41  C   UNL     1      24.235   9.466   1.958  0.00  0.00    +0.229 C 
ATOM     42  C   UNL     1      24.828   9.881   3.292  0.00  0.00    +0.048 C 
ENDBRANCH  40  41
ENDBRANCH  38  40
ENDBRANCH  34  38
ENDBRANCH  30  32
ENDBRANCH  26  28
ENDBRANCH  25  26
ENDBRANCH  24  25
ENDBRANCH   1  24
TORSDOF 14
