REMARK VINA RESULT:    -7.243      1.824      2.551
REMARK INTER + INTRA:         -14.631
REMARK INTER:                 -13.052
REMARK INTRA:                  -1.579
REMARK UNBOUND:                -2.096
REMARK  Name = lig_assembled_88.pdb
REMARK  13 active torsions:
REMARK  status: ('A' for Active; 'I' for Inactive)
REMARK    1  A    between atoms: _2  and  _8
REMARK    2  A    between atoms: _4  and  _14
REMARK    3  A    between atoms: _5  and  _6
REMARK    4  A    between atoms: _5  and  _15
REMARK    5  A    between atoms: _8  and  _9
REMARK    6  A    between atoms: _15  and  _17
REMARK    7  A    between atoms: _16  and  _21
REMARK    8  A    between atoms: _17  and  _20
REMARK    9  A    between atoms: _25  and  _35
REMARK   10  A    between atoms: _27  and  _28
REMARK   11  A    between atoms: _29  and  _31
REMARK   12  A    between atoms: _31  and  _33
REMARK   13  A    between atoms: _33  and  _35
REMARK                            x       y       z     vdW  Elec       q    Type
REMARK                         _______ _______ _______ _____ _____    ______ ____
ROOT
ATOM      1  C   UNL     1      27.745  17.504  -1.237  0.00  0.00    +0.400 C 
ATOM      2  N   UNL     1      28.198  16.337  -0.668  0.00  0.00    -0.278 N 
ATOM      3  H   UNL     1      28.424  16.623   0.337  0.00  0.00    +0.152 HD
ATOM      4  O   UNL     1      27.537  18.465  -0.500  0.00  0.00    -0.226 OA
ENDROOT
BRANCH   1   5
ATOM      5  O   UNL     1      27.608  17.485  -2.522  0.00  0.00    -0.450 OA
BRANCH   5   6
ATOM      6  C   UNL     1      26.583  17.443  -3.487  0.00  0.00    +0.240 C 
BRANCH   6   7
ATOM      7  C   UNL     1      26.438  16.152  -4.315  0.00  0.00    +0.100 C 
BRANCH   7   9
ATOM      8  N   UNL     1      24.525  14.704  -4.928  0.00  0.00    -0.134 NA
ATOM      9  C   UNL     1      25.170  15.471  -3.993  0.00  0.00    +0.086 A 
ATOM     10  C   UNL     1      24.435  15.474  -2.829  0.00  0.00    +0.134 A 
ATOM     11  N   UNL     1      23.319  14.755  -3.145  0.00  0.00    -0.247 N 
ATOM     12  N   UNL     1      23.402  14.251  -4.391  0.00  0.00    -0.065 NA
BRANCH  11  13
ATOM     13  C   UNL     1      22.117  14.566  -2.348  0.00  0.00    +0.184 C 
BRANCH  13  14
ATOM     14  C   UNL     1      20.877  15.156  -2.990  0.00  0.00    +0.017 A 
ATOM     15  C   UNL     1      20.914  16.327  -3.772  0.00  0.00    +0.024 A 
ATOM     16  C   UNL     1      19.751  16.842  -4.348  0.00  0.00    +0.019 A 
ATOM     17 BR   UNL     1      19.832  18.444  -5.350  0.00  0.00    -0.050 Br
ATOM     18  C   UNL     1      18.530  16.193  -4.190  0.00  0.00    +0.034 A 
ATOM     19  C   UNL     1      18.486  15.008  -3.460  0.00  0.00    +0.061 A 
ATOM     20 BR   UNL     1      16.826  14.107  -3.279  0.00  0.00    -0.046 Br
ATOM     21  C   UNL     1      19.648  14.493  -2.870  0.00  0.00    +0.136 A 
BRANCH  21  22
ATOM     22  O   UNL     1      19.617  13.320  -2.162  0.00  0.00    -0.505 OA
ATOM     23  H   UNL     1      19.378  13.538  -1.241  0.00  0.00    +0.292 HD
ENDBRANCH  21  22
ENDBRANCH  13  14
ENDBRANCH  11  13
ENDBRANCH   7   9
ENDBRANCH   6   7
ENDBRANCH   5   6
ENDBRANCH   1   5
BRANCH   2  24
ATOM     24  C   UNL     1      28.489  14.914  -0.814  0.00  0.00    +0.152 C 
BRANCH  24  25
ATOM     25  C   UNL     1      29.479  14.314   0.207  0.00  0.00    +0.193 C 
ATOM     26  O   UNL     1      29.683  12.936  -0.173  0.00  0.00    -0.219 OA
BRANCH  25  27
ATOM     27  C   UNL     1      30.901  14.914   0.260  0.00  0.00    +0.212 C 
ATOM     28  O   UNL     1      30.866  16.242   0.808  0.00  0.00    -0.218 OA
BRANCH  27  29
ATOM     29  C   UNL     1      31.913  14.048   1.102  0.00  0.00    +0.171 C 
ATOM     30  O   UNL     1      32.170  14.602   2.388  0.00  0.00    -0.343 OA
ATOM     31  C   UNL     1      33.197  14.182   3.237  0.00  0.00    +0.220 C 
ATOM     32  C   UNL     1      34.553  14.134   2.512  0.00  0.00    +0.076 C 
ATOM     33  C   UNL     1      34.371  13.282   1.245  0.00  0.00    +0.177 C 
ATOM     34  O   UNL     1      35.608  13.172   0.556  0.00  0.00    -0.221 OA
ATOM     35  C   UNL     1      33.267  13.903   0.333  0.00  0.00    +0.155 C 
BRANCH  35  36
ATOM     36  N   UNL     1      33.095  13.100  -0.875  0.00  0.00    -0.202 NA
ATOM     37  C   UNL     1      33.278  13.441  -2.176  0.00  0.00    +0.242 C 
ATOM     38  C   UNL     1      33.317  12.340  -3.204  0.00  0.00    +0.096 C 
ATOM     39  O   UNL     1      33.407  14.624  -2.482  0.00  0.00    -0.273 OA
ENDBRANCH  35  36
BRANCH  31  40
ATOM     40  C   UNL     1      32.877  12.781   3.996  0.00  0.00    +0.391 C 
ATOM     41  O   UNL     1      34.063  12.373   4.487  0.00  0.00    -0.243 OA
ATOM     42  O   UNL     1      31.544  12.718   4.108  0.00  0.00    -0.243 OA
ENDBRANCH  31  40
ENDBRANCH  27  29
ENDBRANCH  25  27
ENDBRANCH  24  25
ENDBRANCH   2  24
TORSDOF 13
