REMARK VINA RESULT:    -5.595      4.432     11.782
REMARK INTER + INTRA:         -12.106
REMARK INTER:                 -10.566
REMARK INTRA:                  -1.540
REMARK UNBOUND:                -2.422
REMARK  Name = lig_assembled_53.pdb
REMARK  13 active torsions:
REMARK  status: ('A' for Active; 'I' for Inactive)
REMARK    1  A    between atoms: _2  and  _8
REMARK    2  A    between atoms: _4  and  _8
REMARK    3  A    between atoms: _4  and  _9
REMARK    4  A    between atoms: _5  and  _6
REMARK    5  A    between atoms: _5  and  _11
REMARK    6  A    between atoms: _11  and  _13
REMARK    7  A    between atoms: _12  and  _17
REMARK    8  A    between atoms: _13  and  _16
REMARK    9  A    between atoms: _21  and  _31
REMARK   10  A    between atoms: _23  and  _24
REMARK   11  A    between atoms: _25  and  _27
REMARK   12  A    between atoms: _27  and  _29
REMARK   13  A    between atoms: _29  and  _31
REMARK                            x       y       z     vdW  Elec       q    Type
REMARK                         _______ _______ _______ _____ _____    ______ ____
ROOT
ATOM      1  C   UNL     1      34.582  14.031  -0.260  0.00  0.00    +0.152 C 
ENDROOT
BRANCH   1   3
ATOM      2  C   UNL     1      35.660  13.405   2.167  0.00  0.00    +0.400 C 
ATOM      3  N   UNL     1      34.958  14.009   1.151  0.00  0.00    -0.278 N 
ATOM      4  H   UNL     1      34.493  14.843   1.633  0.00  0.00    +0.152 HD
ATOM      5  O   UNL     1      35.750  13.996   3.240  0.00  0.00    -0.226 OA
BRANCH   2   6
ATOM      6  O   UNL     1      36.142  12.236   1.896  0.00  0.00    -0.450 OA
BRANCH   6   7
ATOM      7  C   UNL     1      37.320  11.492   2.102  0.00  0.00    +0.240 C 
BRANCH   7   8
ATOM      8  C   UNL     1      38.485  11.720   1.121  0.00  0.00    +0.100 C 
BRANCH   8  10
ATOM      9  N   UNL     1      40.143  13.553   1.285  0.00  0.00    -0.134 NA
ATOM     10  C   UNL     1      39.603  12.404   1.797  0.00  0.00    +0.086 A 
ATOM     11  C   UNL     1      40.268  12.072   2.955  0.00  0.00    +0.134 A 
ATOM     12  N   UNL     1      41.244  13.016   3.062  0.00  0.00    -0.241 N 
ATOM     13  N   UNL     1      41.134  13.933   2.079  0.00  0.00    -0.065 NA
BRANCH  12  14
ATOM     14  C   UNL     1      42.215  13.245   4.111  0.00  0.00    +0.265 C 
BRANCH  14  15
ATOM     15  C   UNL     1      42.238  14.642   4.673  0.00  0.00    +0.326 C 
ATOM     16  O   UNL     1      43.214  15.245   5.093  0.00  0.00    -0.249 OA
BRANCH  15  17
ATOM     17  O   UNL     1      41.004  15.214   4.693  0.00  0.00    -0.479 OA
ATOM     18  H   UNL     1      40.685  15.568   3.841  0.00  0.00    +0.295 HD
ENDBRANCH  15  17
ENDBRANCH  14  15
ENDBRANCH  12  14
ENDBRANCH   8  10
ENDBRANCH   7   8
ENDBRANCH   6   7
ENDBRANCH   2   6
ENDBRANCH   1   3
BRANCH   1  19
ATOM     19  C   UNL     1      33.107  14.367  -0.566  0.00  0.00    +0.193 C 
ATOM     20  O   UNL     1      33.021  14.599  -1.989  0.00  0.00    -0.219 OA
BRANCH  19  21
ATOM     21  C   UNL     1      32.053  13.272  -0.290  0.00  0.00    +0.212 C 
ATOM     22  O   UNL     1      32.617  11.968  -0.499  0.00  0.00    -0.218 OA
BRANCH  21  23
ATOM     23  C   UNL     1      31.455  13.335   1.168  0.00  0.00    +0.171 C 
ATOM     24  O   UNL     1      31.516  12.081   1.839  0.00  0.00    -0.343 OA
ATOM     25  C   UNL     1      30.847  11.792   3.031  0.00  0.00    +0.220 C 
ATOM     26  C   UNL     1      29.356  12.165   2.954  0.00  0.00    +0.076 C 
ATOM     27  C   UNL     1      29.270  13.633   2.503  0.00  0.00    +0.177 C 
ATOM     28  O   UNL     1      27.911  14.042   2.453  0.00  0.00    -0.221 OA
ATOM     29  C   UNL     1      29.966  13.811   1.118  0.00  0.00    +0.155 C 
BRANCH  29  30
ATOM     30  N   UNL     1      29.880  15.203   0.682  0.00  0.00    -0.202 NA
ATOM     31  C   UNL     1      29.189  15.747  -0.352  0.00  0.00    +0.242 C 
ATOM     32  C   UNL     1      29.038  17.245  -0.400  0.00  0.00    +0.096 C 
ATOM     33  O   UNL     1      28.708  15.015  -1.214  0.00  0.00    -0.273 OA
ENDBRANCH  29  30
BRANCH  25  34
ATOM     34  C   UNL     1      31.557  12.435   4.343  0.00  0.00    +0.391 C 
ATOM     35  O   UNL     1      30.701  12.192   5.355  0.00  0.00    -0.243 OA
ATOM     36  O   UNL     1      32.824  12.685   3.993  0.00  0.00    -0.243 OA
ENDBRANCH  25  34
ENDBRANCH  21  23
ENDBRANCH  19  21
ENDBRANCH   1  19
TORSDOF 13
