REMARK VINA RESULT:    -6.277      2.823      5.112
REMARK INTER + INTRA:         -14.006
REMARK INTER:                 -12.048
REMARK INTRA:                  -1.958
REMARK UNBOUND:                -1.675
REMARK  Name = lig_assembled_33.pdb
REMARK  17 active torsions:
REMARK  status: ('A' for Active; 'I' for Inactive)
REMARK    1  A    between atoms: _2  and  _8
REMARK    2  A    between atoms: _4  and  _12
REMARK    3  A    between atoms: _4  and  _13
REMARK    4  A    between atoms: _5  and  _6
REMARK    5  A    between atoms: _5  and  _15
REMARK    6  A    between atoms: _8  and  _9
REMARK    7  A    between atoms: _9  and  _10
REMARK    8  A    between atoms: _10  and  _11
REMARK    9  A    between atoms: _11  and  _12
REMARK   10  A    between atoms: _15  and  _17
REMARK   11  A    between atoms: _16  and  _21
REMARK   12  A    between atoms: _17  and  _20
REMARK   13  A    between atoms: _25  and  _35
REMARK   14  A    between atoms: _27  and  _28
REMARK   15  A    between atoms: _29  and  _31
REMARK   16  A    between atoms: _31  and  _33
REMARK   17  A    between atoms: _33  and  _35
REMARK                            x       y       z     vdW  Elec       q    Type
REMARK                         _______ _______ _______ _____ _____    ______ ____
ROOT
ATOM      1  C   UNL     1      27.530  12.882   2.669  0.00  0.00    +0.400 C 
ATOM      2  N   UNL     1      28.056  13.512   1.566  0.00  0.00    -0.278 N 
ATOM      3  H   UNL     1      27.913  14.549   1.782  0.00  0.00    +0.152 HD
ATOM      4  O   UNL     1      27.222  13.571   3.638  0.00  0.00    -0.226 OA
ENDROOT
BRANCH   1   5
ATOM      5  O   UNL     1      27.380  11.602   2.563  0.00  0.00    -0.450 OA
BRANCH   5   6
ATOM      6  C   UNL     1      26.408  10.671   2.149  0.00  0.00    +0.240 C 
BRANCH   6   7
ATOM      7  C   UNL     1      25.225  10.407   3.100  0.00  0.00    +0.100 C 
BRANCH   7   9
ATOM      8  N   UNL     1      22.815   9.922   2.828  0.00  0.00    -0.134 NA
ATOM      9  C   UNL     1      23.945  10.558   2.385  0.00  0.00    +0.086 A 
ATOM     10  C   UNL     1      23.640  11.279   1.251  0.00  0.00    +0.133 A 
ATOM     11  N   UNL     1      22.312  11.046   1.063  0.00  0.00    -0.251 N 
ATOM     12  N   UNL     1      21.823  10.216   2.000  0.00  0.00    -0.065 NA
BRANCH  11  13
ATOM     13  C   UNL     1      21.451  11.559   0.017  0.00  0.00    +0.145 C 
BRANCH  13  14
ATOM     14  C   UNL     1      20.816  12.894   0.400  0.00  0.00    +0.023 C 
BRANCH  14  15
ATOM     15  C   UNL     1      20.351  13.696  -0.818  0.00  0.00    +0.002 C 
BRANCH  15  16
ATOM     16  C   UNL     1      21.153  13.278  -2.053  0.00  0.00    +0.011 C 
BRANCH  16  17
ATOM     17  C   UNL     1      22.038  14.398  -2.592  0.00  0.00    +0.120 C 
BRANCH  17  18
ATOM     18  C   UNL     1      23.347  14.473  -1.838  0.00  0.00    +0.305 C 
ATOM     19  O   UNL     1      23.992  13.515  -1.443  0.00  0.00    -0.251 OA
BRANCH  18  20
ATOM     20  O   UNL     1      23.756  15.748  -1.639  0.00  0.00    -0.481 OA
ATOM     21  H   UNL     1      24.277  16.114  -2.376  0.00  0.00    +0.295 HD
ENDBRANCH  18  20
ENDBRANCH  17  18
ENDBRANCH  16  17
ENDBRANCH  15  16
ENDBRANCH  14  15
ENDBRANCH  13  14
ENDBRANCH  11  13
ENDBRANCH   7   9
ENDBRANCH   6   7
ENDBRANCH   5   6
ENDBRANCH   1   5
BRANCH   2  22
ATOM     22  C   UNL     1      28.721  13.404   0.270  0.00  0.00    +0.152 C 
BRANCH  22  23
ATOM     23  C   UNL     1      29.176  14.731  -0.373  0.00  0.00    +0.193 C 
ATOM     24  O   UNL     1      28.333  15.768   0.175  0.00  0.00    -0.219 OA
BRANCH  23  25
ATOM     25  C   UNL     1      30.615  15.209  -0.083  0.00  0.00    +0.212 C 
ATOM     26  O   UNL     1      30.598  16.508   0.532  0.00  0.00    -0.218 OA
BRANCH  25  27
ATOM     27  C   UNL     1      31.426  14.224   0.843  0.00  0.00    +0.171 C 
ATOM     28  O   UNL     1      31.619  14.741   2.156  0.00  0.00    -0.343 OA
ATOM     29  C   UNL     1      32.498  14.197   3.096  0.00  0.00    +0.220 C 
ATOM     30  C   UNL     1      33.904  13.985   2.507  0.00  0.00    +0.076 C 
ATOM     31  C   UNL     1      33.746  13.164   1.216  0.00  0.00    +0.177 C 
ATOM     32  O   UNL     1      35.023  12.905   0.651  0.00  0.00    -0.221 OA
ATOM     33  C   UNL     1      32.822  13.917   0.209  0.00  0.00    +0.155 C 
BRANCH  33  34
ATOM     34  N   UNL     1      32.675  13.143  -1.021  0.00  0.00    -0.202 NA
ATOM     35  C   UNL     1      33.069  13.440  -2.285  0.00  0.00    +0.242 C 
ATOM     36  C   UNL     1      33.059  12.340  -3.315  0.00  0.00    +0.096 C 
ATOM     37  O   UNL     1      33.422  14.586  -2.558  0.00  0.00    -0.273 OA
ENDBRANCH  33  34
BRANCH  29  38
ATOM     38  C   UNL     1      31.936  12.845   3.800  0.00  0.00    +0.391 C 
ATOM     39  O   UNL     1      32.981  12.356   4.497  0.00  0.00    -0.243 OA
ATOM     40  O   UNL     1      30.604  12.889   3.675  0.00  0.00    -0.243 OA
ENDBRANCH  29  38
ENDBRANCH  25  27
ENDBRANCH  23  25
ENDBRANCH  22  23
ENDBRANCH   2  22
TORSDOF 17
