REMARK VINA RESULT:    -6.765      2.760      5.300
REMARK INTER + INTRA:         -13.326
REMARK INTER:                 -10.149
REMARK INTRA:                  -3.177
REMARK UNBOUND:                -1.815
REMARK  Name = lig_assembled_71.pdb
REMARK  12 active torsions:
REMARK  status: ('A' for Active; 'I' for Inactive)
REMARK    1  A    between atoms: _2  and  _11
REMARK    2  A    between atoms: _8  and  _9
REMARK    3  A    between atoms: _8  and  _17
REMARK    4  A    between atoms: _11  and  _12
REMARK    5  A    between atoms: _17  and  _19
REMARK    6  A    between atoms: _18  and  _23
REMARK    7  A    between atoms: _19  and  _22
REMARK    8  A    between atoms: _27  and  _37
REMARK    9  A    between atoms: _29  and  _30
REMARK   10  A    between atoms: _31  and  _33
REMARK   11  A    between atoms: _33  and  _35
REMARK   12  A    between atoms: _35  and  _37
REMARK                            x       y       z     vdW  Elec       q    Type
REMARK                         _______ _______ _______ _____ _____    ______ ____
ROOT
ATOM      1  C   UNL     1      26.649  12.512   0.708  0.00  0.00    +0.400 C 
ATOM      2  N   UNL     1      27.479  13.576   0.440  0.00  0.00    -0.278 N 
ATOM      3  H   UNL     1      27.093  13.965  -0.477  0.00  0.00    +0.152 HD
ATOM      4  O   UNL     1      25.643  12.374   0.018  0.00  0.00    -0.226 OA
ENDROOT
BRANCH   2   5
ATOM      5  C   UNL     1      28.614  14.401   0.845  0.00  0.00    +0.152 C 
BRANCH   5   6
ATOM      6  C   UNL     1      29.557  14.861  -0.285  0.00  0.00    +0.193 C 
ATOM      7  O   UNL     1      28.946  16.023  -0.889  0.00  0.00    -0.219 OA
BRANCH   6   8
ATOM      8  C   UNL     1      30.973  15.333   0.112  0.00  0.00    +0.212 C 
ATOM      9  O   UNL     1      30.902  16.558   0.860  0.00  0.00    -0.218 OA
BRANCH   8  10
ATOM     10  C   UNL     1      31.770  14.270   0.961  0.00  0.00    +0.171 C 
ATOM     11  O   UNL     1      32.081  14.736   2.270  0.00  0.00    -0.343 OA
ATOM     12  C   UNL     1      32.977  14.107   3.138  0.00  0.00    +0.220 C 
ATOM     13  C   UNL     1      34.325  13.818   2.455  0.00  0.00    +0.076 C 
ATOM     14  C   UNL     1      34.030  13.046   1.158  0.00  0.00    +0.177 C 
ATOM     15  O   UNL     1      35.249  12.718   0.506  0.00  0.00    -0.221 OA
ATOM     16  C   UNL     1      33.099  13.888   0.231  0.00  0.00    +0.155 C 
BRANCH  16  17
ATOM     17  N   UNL     1      32.823  13.161  -1.005  0.00  0.00    -0.202 NA
ATOM     18  C   UNL     1      33.085  13.504  -2.292  0.00  0.00    +0.242 C 
ATOM     19  C   UNL     1      32.964  12.444  -3.355  0.00  0.00    +0.096 C 
ATOM     20  O   UNL     1      33.413  14.659  -2.557  0.00  0.00    -0.273 OA
ENDBRANCH  16  17
BRANCH  12  21
ATOM     21  C   UNL     1      32.369  12.777   3.845  0.00  0.00    +0.391 C 
ATOM     22  O   UNL     1      31.049  12.814   3.578  0.00  0.00    -0.243 OA
ATOM     23  O   UNL     1      33.420  12.009   4.155  0.00  0.00    -0.243 OA
ENDBRANCH  12  21
ENDBRANCH   8  10
ENDBRANCH   6   8
ENDBRANCH   5   6
ENDBRANCH   2   5
BRANCH   1  24
ATOM     24  O   UNL     1      27.035  11.727   1.660  0.00  0.00    -0.450 OA
BRANCH  24  25
ATOM     25  C   UNL     1      28.152  10.946   2.014  0.00  0.00    +0.240 C 
BRANCH  25  26
ATOM     26  C   UNL     1      28.549   9.801   1.062  0.00  0.00    +0.100 C 
BRANCH  26  28
ATOM     27  N   UNL     1      29.821  11.276  -0.479  0.00  0.00    -0.134 NA
ATOM     28  C   UNL     1      28.846  10.332  -0.282  0.00  0.00    +0.086 A 
ATOM     29  C   UNL     1      28.274  10.022  -1.493  0.00  0.00    +0.134 A 
ATOM     30  N   UNL     1      28.928  10.819  -2.387  0.00  0.00    -0.243 N 
ATOM     31  N   UNL     1      29.868  11.561  -1.774  0.00  0.00    -0.065 NA
BRANCH  30  32
ATOM     32  C   UNL     1      28.804  10.853  -3.829  0.00  0.00    +0.241 C 
BRANCH  32  33
ATOM     33  C   UNL     1      28.241  12.165  -4.313  0.00  0.00    +0.241 C 
ATOM     34  O   UNL     1      28.489  12.559  -5.451  0.00  0.00    -0.273 OA
ATOM     35  N   UNL     1      27.528  12.866  -3.364  0.00  0.00    -0.253 N 
ATOM     36  H   UNL     1      27.522  12.601  -2.391  0.00  0.00    +0.158 HD
ATOM     37  C   UNL     1      26.904  14.084  -3.609  0.00  0.00    +0.221 A 
ATOM     38  N   UNL     1      26.511  14.757  -2.516  0.00  0.00    -0.223 NA
ATOM     39  C   UNL     1      25.972  15.975  -2.731  0.00  0.00    +0.116 A 
ATOM     40  C   UNL     1      25.790  16.523  -3.979  0.00  0.00    +0.039 A 
ATOM     41  C   UNL     1      26.183  15.733  -5.026  0.00  0.00    +0.116 A 
ATOM     42  N   UNL     1      26.737  14.522  -4.860  0.00  0.00    -0.223 NA
ENDBRANCH  32  33
ENDBRANCH  30  32
ENDBRANCH  26  28
ENDBRANCH  25  26
ENDBRANCH  24  25
ENDBRANCH   1  24
TORSDOF 12
