REMARK VINA RESULT:    -5.396      1.853      2.114
REMARK INTER + INTRA:         -11.850
REMARK INTER:                 -10.062
REMARK INTRA:                  -1.788
REMARK UNBOUND:                -2.511
REMARK  Name = lig_assembled_1.pdb
REMARK  13 active torsions:
REMARK  status: ('A' for Active; 'I' for Inactive)
REMARK    1  A    between atoms: _2  and  _8
REMARK    2  A    between atoms: _4  and  _8
REMARK    3  A    between atoms: _4  and  _9
REMARK    4  A    between atoms: _5  and  _6
REMARK    5  A    between atoms: _5  and  _10
REMARK    6  A    between atoms: _10  and  _12
REMARK    7  A    between atoms: _11  and  _16
REMARK    8  A    between atoms: _12  and  _15
REMARK    9  A    between atoms: _20  and  _30
REMARK   10  A    between atoms: _22  and  _23
REMARK   11  A    between atoms: _24  and  _26
REMARK   12  A    between atoms: _26  and  _28
REMARK   13  A    between atoms: _28  and  _30
REMARK                            x       y       z     vdW  Elec       q    Type
REMARK                         _______ _______ _______ _____ _____    ______ ____
ROOT
ATOM      1  C   UNL     1      28.604  14.083  -0.227  0.00  0.00    +0.193 C 
ATOM      2  O   UNL     1      28.500  12.648  -0.092  0.00  0.00    -0.219 OA
ENDROOT
BRANCH   1   3
ATOM      3  C   UNL     1      30.109  14.340  -0.461  0.00  0.00    +0.212 C 
ATOM      4  O   UNL     1      30.380  15.751  -0.487  0.00  0.00    -0.218 OA
BRANCH   3   5
ATOM      5  C   UNL     1      31.034  13.670   0.626  0.00  0.00    +0.171 C 
ATOM      6  O   UNL     1      30.809  14.191   1.932  0.00  0.00    -0.343 OA
ATOM      7  C   UNL     1      31.643  13.958   3.028  0.00  0.00    +0.220 C 
ATOM      8  C   UNL     1      33.116  14.254   2.696  0.00  0.00    +0.076 C 
ATOM      9  C   UNL     1      33.474  13.458   1.430  0.00  0.00    +0.177 C 
ATOM     10  O   UNL     1      34.840  13.665   1.101  0.00  0.00    -0.221 OA
ATOM     11  C   UNL     1      32.538  13.874   0.252  0.00  0.00    +0.155 C 
BRANCH  11  12
ATOM     12  N   UNL     1      32.879  13.125  -0.955  0.00  0.00    -0.202 NA
ATOM     13  C   UNL     1      33.389  13.565  -2.134  0.00  0.00    +0.242 C 
ATOM     14  C   UNL     1      33.923  12.547  -3.107  0.00  0.00    +0.096 C 
ATOM     15  O   UNL     1      33.404  14.770  -2.377  0.00  0.00    -0.273 OA
ENDBRANCH  11  12
BRANCH   7  16
ATOM     16  C   UNL     1      31.463  12.479   3.676  0.00  0.00    +0.391 C 
ATOM     17  O   UNL     1      32.528  12.322   4.486  0.00  0.00    -0.243 OA
ATOM     18  O   UNL     1      30.205  12.108   3.407  0.00  0.00    -0.243 OA
ENDBRANCH   7  16
ENDBRANCH   3   5
ENDBRANCH   1   3
BRANCH   1  19
ATOM     19  C   UNL     1      27.627  14.494  -1.348  0.00  0.00    +0.152 C 
BRANCH  19  21
ATOM     20  C   UNL     1      26.999  16.937  -2.389  0.00  0.00    +0.400 C 
ATOM     21  N   UNL     1      27.553  15.922  -1.644  0.00  0.00    -0.278 N 
ATOM     22  H   UNL     1      28.220  16.436  -0.985  0.00  0.00    +0.152 HD
ATOM     23  O   UNL     1      27.218  18.095  -2.044  0.00  0.00    -0.226 OA
BRANCH  20  24
ATOM     24  O   UNL     1      26.312  16.565  -3.418  0.00  0.00    -0.450 OA
BRANCH  24  25
ATOM     25  C   UNL     1      26.473  15.800  -4.591  0.00  0.00    +0.240 C 
BRANCH  25  26
ATOM     26  C   UNL     1      25.235  15.060  -5.133  0.00  0.00    +0.100 C 
BRANCH  26  28
ATOM     27  N   UNL     1      24.734  13.656  -3.154  0.00  0.00    -0.134 NA
ATOM     28  C   UNL     1      24.357  14.647  -4.022  0.00  0.00    +0.086 A 
ATOM     29  C   UNL     1      23.112  15.112  -3.661  0.00  0.00    +0.133 A 
ATOM     30  N   UNL     1      22.785  14.361  -2.572  0.00  0.00    -0.249 N 
ATOM     31  N   UNL     1      23.758  13.485  -2.272  0.00  0.00    -0.065 NA
BRANCH  30  32
ATOM     32  C   UNL     1      21.583  14.428  -1.773  0.00  0.00    +0.173 C 
BRANCH  32  33
ATOM     33  C   UNL     1      21.197  13.080  -1.176  0.00  0.00    +0.179 C 
BRANCH  33  34
ATOM     34  O   UNL     1      20.989  12.106  -2.198  0.00  0.00    -0.393 OA
ATOM     35  H   UNL     1      20.256  12.432  -2.755  0.00  0.00    +0.209 HD
ENDBRANCH  33  34
ENDBRANCH  32  33
ENDBRANCH  30  32
ENDBRANCH  26  28
ENDBRANCH  25  26
ENDBRANCH  24  25
ENDBRANCH  20  24
ENDBRANCH  19  21
ENDBRANCH   1  19
TORSDOF 13
