REMARK VINA RESULT:    -6.331      1.769      2.511
REMARK INTER + INTRA:         -13.849
REMARK INTER:                 -11.649
REMARK INTRA:                  -2.200
REMARK UNBOUND:                -1.966
REMARK  Name = lig_assembled_17.pdb
REMARK  17 active torsions:
REMARK  status: ('A' for Active; 'I' for Inactive)
REMARK    1  A    between atoms: _2  and  _9
REMARK    2  A    between atoms: _3  and  _10
REMARK    3  A    between atoms: _3  and  _11
REMARK    4  A    between atoms: _3  and  _13
REMARK    5  A    between atoms: _5  and  _13
REMARK    6  A    between atoms: _6  and  _7
REMARK    7  A    between atoms: _6  and  _14
REMARK    8  A    between atoms: _9  and  _10
REMARK    9  A    between atoms: _11  and  _12
REMARK   10  A    between atoms: _14  and  _16
REMARK   11  A    between atoms: _15  and  _20
REMARK   12  A    between atoms: _16  and  _19
REMARK   13  A    between atoms: _24  and  _34
REMARK   14  A    between atoms: _26  and  _27
REMARK   15  A    between atoms: _28  and  _30
REMARK   16  A    between atoms: _30  and  _32
REMARK   17  A    between atoms: _32  and  _34
REMARK                            x       y       z     vdW  Elec       q    Type
REMARK                         _______ _______ _______ _____ _____    ______ ____
ROOT
ATOM      1  C   UNL     1      28.163  16.798  -0.744  0.00  0.00    +0.400 C 
ATOM      2  N   UNL     1      28.312  15.549  -0.188  0.00  0.00    -0.278 N 
ATOM      3  H   UNL     1      28.693  15.757   0.789  0.00  0.00    +0.152 HD
ATOM      4  O   UNL     1      28.299  17.777  -0.014  0.00  0.00    -0.226 OA
ENDROOT
BRANCH   2   5
ATOM      5  C   UNL     1      28.173  14.102  -0.325  0.00  0.00    +0.152 C 
BRANCH   5   6
ATOM      6  C   UNL     1      27.938  13.315   0.980  0.00  0.00    +0.193 C 
ATOM      7  O   UNL     1      28.460  11.985   0.764  0.00  0.00    -0.219 OA
BRANCH   6   8
ATOM      8  C   UNL     1      28.659  13.810   2.253  0.00  0.00    +0.212 C 
ATOM      9  O   UNL     1      27.723  13.962   3.333  0.00  0.00    -0.218 OA
BRANCH   8  10
ATOM     10  C   UNL     1      29.821  12.854   2.724  0.00  0.00    +0.171 C 
ATOM     11  O   UNL     1      29.631  12.375   4.052  0.00  0.00    -0.343 OA
ATOM     12  C   UNL     1      30.611  11.718   4.800  0.00  0.00    +0.220 C 
ATOM     13  C   UNL     1      31.939  12.497   4.810  0.00  0.00    +0.076 C 
ATOM     14  C   UNL     1      32.321  12.778   3.348  0.00  0.00    +0.177 C 
ATOM     15  O   UNL     1      33.565  13.463   3.298  0.00  0.00    -0.221 OA
ATOM     16  C   UNL     1      31.194  13.598   2.645  0.00  0.00    +0.155 C 
BRANCH  16  17
ATOM     17  N   UNL     1      31.556  13.873   1.258  0.00  0.00    -0.202 NA
ATOM     18  C   UNL     1      31.637  15.058   0.600  0.00  0.00    +0.242 C 
ATOM     19  C   UNL     1      32.319  15.086  -0.743  0.00  0.00    +0.096 C 
ATOM     20  O   UNL     1      31.158  16.069   1.110  0.00  0.00    -0.273 OA
ENDBRANCH  16  17
BRANCH  12  21
ATOM     21  C   UNL     1      30.831  10.170   4.361  0.00  0.00    +0.391 C 
ATOM     22  O   UNL     1      29.863   9.924   3.457  0.00  0.00    -0.243 OA
ATOM     23  O   UNL     1      32.040   9.823   4.819  0.00  0.00    -0.243 OA
ENDBRANCH  12  21
ENDBRANCH   8  10
ENDBRANCH   6   8
ENDBRANCH   5   6
ENDBRANCH   2   5
BRANCH   1  24
ATOM     24  O   UNL     1      27.920  16.821  -2.013  0.00  0.00    -0.450 OA
BRANCH  24  25
ATOM     25  C   UNL     1      27.068  17.473  -2.926  0.00  0.00    +0.240 C 
BRANCH  25  26
ATOM     26  C   UNL     1      26.300  16.596  -3.933  0.00  0.00    +0.100 C 
BRANCH  26  28
ATOM     27  N   UNL     1      26.333  14.160  -3.512  0.00  0.00    -0.134 NA
ATOM     28  C   UNL     1      25.782  15.389  -3.265  0.00  0.00    +0.086 A 
ATOM     29  C   UNL     1      24.763  15.250  -2.348  0.00  0.00    +0.133 A 
ATOM     30  N   UNL     1      24.761  13.919  -2.065  0.00  0.00    -0.250 N 
ATOM     31  N   UNL     1      25.697  13.263  -2.773  0.00  0.00    -0.065 NA
BRANCH  30  32
ATOM     32  C   UNL     1      23.942  13.200  -1.110  0.00  0.00    +0.160 C 
BRANCH  32  33
ATOM     33  C   UNL     1      22.730  12.565  -1.807  0.00  0.00    +0.107 C 
BRANCH  33  34
ATOM     34  N   UNL     1      21.715  11.950  -0.917  0.00  0.00    -0.301 NA
BRANCH  34  35
ATOM     35  C   UNL     1      20.756  12.993  -0.497  0.00  0.00    +0.081 C 
ATOM     36  C   UNL     1      20.295  13.926  -1.612  0.00  0.00    +0.020 C 
ENDBRANCH  34  35
BRANCH  34  37
ATOM     37  C   UNL     1      22.303  11.208   0.213  0.00  0.00    +0.081 C 
ATOM     38  C   UNL     1      21.809  11.587   1.607  0.00  0.00    +0.020 C 
ENDBRANCH  34  37
ENDBRANCH  33  34
ENDBRANCH  32  33
ENDBRANCH  30  32
ENDBRANCH  26  28
ENDBRANCH  25  26
ENDBRANCH  24  25
ENDBRANCH   1  24
TORSDOF 15
