REMARK VINA RESULT:    -6.611      1.731      3.240
REMARK INTER + INTRA:         -13.137
REMARK INTER:                 -12.009
REMARK INTRA:                  -1.129
REMARK UNBOUND:                -1.696
REMARK  Name = lig_assembled_72.pdb
REMARK  15 active torsions:
REMARK  status: ('A' for Active; 'I' for Inactive)
REMARK    1  A    between atoms: _2  and  _8
REMARK    2  A    between atoms: _4  and  _8
REMARK    3  A    between atoms: _4  and  _11
REMARK    4  A    between atoms: _5  and  _6
REMARK    5  A    between atoms: _5  and  _12
REMARK    6  A    between atoms: _8  and  _9
REMARK    7  A    between atoms: _8  and  _10
REMARK    8  A    between atoms: _12  and  _14
REMARK    9  A    between atoms: _13  and  _18
REMARK   10  A    between atoms: _14  and  _17
REMARK   11  A    between atoms: _22  and  _32
REMARK   12  A    between atoms: _24  and  _25
REMARK   13  A    between atoms: _26  and  _28
REMARK   14  A    between atoms: _28  and  _30
REMARK   15  A    between atoms: _30  and  _32
REMARK                            x       y       z     vdW  Elec       q    Type
REMARK                         _______ _______ _______ _____ _____    ______ ____
ROOT
ATOM      1  C   UNL     1      29.056  15.141   0.128  0.00  0.00    +0.152 C 
ENDROOT
BRANCH   1   3
ATOM      2  C   UNL     1      27.864  17.412  -0.805  0.00  0.00    +0.400 C 
ATOM      3  N   UNL     1      28.534  16.497  -0.027  0.00  0.00    -0.278 N 
ATOM      4  H   UNL     1      28.752  17.043   0.865  0.00  0.00    +0.152 HD
ATOM      5  O   UNL     1      27.529  18.475  -0.289  0.00  0.00    -0.226 OA
BRANCH   2   6
ATOM      6  O   UNL     1      27.677  17.069  -2.037  0.00  0.00    -0.450 OA
BRANCH   6   7
ATOM      7  C   UNL     1      26.804  17.355  -3.105  0.00  0.00    +0.240 C 
BRANCH   7   8
ATOM      8  C   UNL     1      26.771  16.363  -4.283  0.00  0.00    +0.100 C 
BRANCH   8  10
ATOM      9  N   UNL     1      25.093  14.949  -5.422  0.00  0.00    -0.134 NA
ATOM     10  C   UNL     1      25.486  15.642  -4.311  0.00  0.00    +0.086 A 
ATOM     11  C   UNL     1      24.515  15.523  -3.340  0.00  0.00    +0.134 A 
ATOM     12  N   UNL     1      23.553  14.742  -3.920  0.00  0.00    -0.244 N 
ATOM     13  N   UNL     1      23.912  14.403  -5.175  0.00  0.00    -0.065 NA
BRANCH  12  14
ATOM     14  C   UNL     1      22.283  14.282  -3.340  0.00  0.00    +0.083 C 
ATOM     15  C   UNL     1      22.399  14.279  -1.804  0.00  0.00    +0.038 C 
ATOM     16  C   UNL     1      21.976  12.854  -3.834  0.00  0.00    +0.038 C 
BRANCH  14  17
ATOM     17  C   UNL     1      21.105  15.218  -3.724  0.00  0.00    +0.185 C 
BRANCH  17  18
ATOM     18  O   UNL     1      21.343  15.936  -4.934  0.00  0.00    -0.393 OA
ATOM     19  H   UNL     1      20.511  16.420  -5.126  0.00  0.00    +0.209 HD
ENDBRANCH  17  18
ENDBRANCH  14  17
ENDBRANCH  12  14
ENDBRANCH   8  10
ENDBRANCH   7   8
ENDBRANCH   6   7
ENDBRANCH   2   6
ENDBRANCH   1   3
BRANCH   1  20
ATOM     20  C   UNL     1      30.581  14.977  -0.034  0.00  0.00    +0.193 C 
ATOM     21  O   UNL     1      31.075  16.217  -0.588  0.00  0.00    -0.219 OA
BRANCH  20  22
ATOM     22  C   UNL     1      31.418  14.767   1.247  0.00  0.00    +0.212 C 
ATOM     23  O   UNL     1      31.221  15.859   2.160  0.00  0.00    -0.218 OA
BRANCH  22  24
ATOM     24  C   UNL     1      31.087  13.419   1.995  0.00  0.00    +0.171 C 
ATOM     25  O   UNL     1      29.699  13.277   2.279  0.00  0.00    -0.343 OA
ATOM     26  C   UNL     1      29.164  12.312   3.135  0.00  0.00    +0.220 C 
ATOM     27  C   UNL     1      29.884  12.294   4.495  0.00  0.00    +0.076 C 
ATOM     28  C   UNL     1      31.390  12.153   4.219  0.00  0.00    +0.177 C 
ATOM     29  O   UNL     1      32.101  12.091   5.448  0.00  0.00    -0.221 OA
ATOM     30  C   UNL     1      31.888  13.338   3.335  0.00  0.00    +0.155 C 
BRANCH  30  31
ATOM     31  N   UNL     1      33.320  13.211   3.077  0.00  0.00    -0.202 NA
ATOM     32  C   UNL     1      34.348  13.999   3.481  0.00  0.00    +0.242 C 
ATOM     33  C   UNL     1      35.754  13.480   3.324  0.00  0.00    +0.096 C 
ATOM     34  O   UNL     1      34.113  15.106   3.962  0.00  0.00    -0.273 OA
ENDBRANCH  30  31
BRANCH  26  35
ATOM     35  C   UNL     1      29.097  10.828   2.476  0.00  0.00    +0.391 C 
ATOM     36  O   UNL     1      28.926   9.992   3.519  0.00  0.00    -0.243 OA
ATOM     37  O   UNL     1      28.934  11.015   1.161  0.00  0.00    -0.243 OA
ENDBRANCH  26  35
ENDBRANCH  22  24
ENDBRANCH  20  22
ENDBRANCH   1  20
TORSDOF 13
