REMARK VINA RESULT:    -6.253      1.843      2.643
REMARK INTER + INTRA:         -13.236
REMARK INTER:                 -11.634
REMARK INTRA:                  -1.602
REMARK UNBOUND:                -2.596
REMARK  Name = lig_assembled_4.pdb
REMARK  14 active torsions:
REMARK  status: ('A' for Active; 'I' for Inactive)
REMARK    1  A    between atoms: _2  and  _8
REMARK    2  A    between atoms: _5  and  _6
REMARK    3  A    between atoms: _5  and  _16
REMARK    4  A    between atoms: _9  and  _10
REMARK    5  A    between atoms: _10  and  _11
REMARK    6  A    between atoms: _10  and  _12
REMARK    7  A    between atoms: _16  and  _18
REMARK    8  A    between atoms: _17  and  _22
REMARK    9  A    between atoms: _18  and  _21
REMARK   10  A    between atoms: _26  and  _36
REMARK   11  A    between atoms: _28  and  _29
REMARK   12  A    between atoms: _30  and  _32
REMARK   13  A    between atoms: _32  and  _34
REMARK   14  A    between atoms: _34  and  _36
REMARK                            x       y       z     vdW  Elec       q    Type
REMARK                         _______ _______ _______ _____ _____    ______ ____
ROOT
ATOM      1  C   UNL     1      26.641  13.506  -1.418  0.00  0.00    +0.400 C 
ATOM      2  N   UNL     1      27.529  13.607  -0.373  0.00  0.00    -0.278 N 
ATOM      3  H   UNL     1      27.493  12.637   0.076  0.00  0.00    +0.152 HD
ATOM      4  O   UNL     1      26.197  12.395  -1.697  0.00  0.00    -0.226 OA
ENDROOT
BRANCH   2   5
ATOM      5  C   UNL     1      28.487  14.419   0.372  0.00  0.00    +0.152 C 
BRANCH   5   6
ATOM      6  C   UNL     1      29.392  15.344  -0.467  0.00  0.00    +0.193 C 
ATOM      7  O   UNL     1      28.752  16.639  -0.493  0.00  0.00    -0.219 OA
BRANCH   6   8
ATOM      8  C   UNL     1      30.814  15.628   0.064  0.00  0.00    +0.212 C 
ATOM      9  O   UNL     1      30.820  16.815   0.873  0.00  0.00    -0.218 OA
BRANCH   8  10
ATOM     10  C   UNL     1      31.414  14.439   0.908  0.00  0.00    +0.171 C 
ATOM     11  O   UNL     1      31.665  14.802   2.262  0.00  0.00    -0.343 OA
ATOM     12  C   UNL     1      32.410  14.032   3.159  0.00  0.00    +0.220 C 
ATOM     13  C   UNL     1      33.769  13.621   2.566  0.00  0.00    +0.076 C 
ATOM     14  C   UNL     1      33.498  12.952   1.208  0.00  0.00    +0.177 C 
ATOM     15  O   UNL     1      34.722  12.516   0.633  0.00  0.00    -0.221 OA
ATOM     16  C   UNL     1      32.747  13.941   0.262  0.00  0.00    +0.155 C 
BRANCH  16  17
ATOM     17  N   UNL     1      32.494  13.311  -1.032  0.00  0.00    -0.202 NA
ATOM     18  C   UNL     1      32.913  13.675  -2.270  0.00  0.00    +0.242 C 
ATOM     19  C   UNL     1      32.756  12.687  -3.397  0.00  0.00    +0.096 C 
ATOM     20  O   UNL     1      33.407  14.787  -2.443  0.00  0.00    -0.273 OA
ENDBRANCH  16  17
BRANCH  12  21
ATOM     21  C   UNL     1      31.599  12.749   3.739  0.00  0.00    +0.391 C 
ATOM     22  O   UNL     1      30.298  13.072   3.609  0.00  0.00    -0.243 OA
ATOM     23  O   UNL     1      32.496  11.760   3.840  0.00  0.00    -0.243 OA
ENDBRANCH  12  21
ENDBRANCH   8  10
ENDBRANCH   6   8
ENDBRANCH   5   6
ENDBRANCH   2   5
BRANCH   1  24
ATOM     24  O   UNL     1      26.332  14.619  -1.998  0.00  0.00    -0.450 OA
BRANCH  24  25
ATOM     25  C   UNL     1      26.722  15.388  -3.112  0.00  0.00    +0.240 C 
BRANCH  25  26
ATOM     26  C   UNL     1      25.654  16.286  -3.766  0.00  0.00    +0.100 C 
BRANCH  26  28
ATOM     27  N   UNL     1      24.135  14.648  -4.814  0.00  0.00    -0.134 NA
ATOM     28  C   UNL     1      24.362  15.581  -3.850  0.00  0.00    +0.086 A 
ATOM     29  C   UNL     1      23.225  15.728  -3.088  0.00  0.00    +0.139 A 
ATOM     30  N   UNL     1      22.274  14.947  -3.715  0.00  0.00    -0.220 N 
ATOM     31  N   UNL     1      22.872  14.252  -4.706  0.00  0.00    -0.061 NA
BRANCH  30  32
ATOM     32  C   UNL     1      20.879  14.875  -3.422  0.00  0.00    +0.070 A 
ATOM     33  C   UNL     1      20.320  13.938  -2.510  0.00  0.00    -0.019 A 
ATOM     34  C   UNL     1      18.918  13.954  -2.336  0.00  0.00    +0.006 A 
ATOM     35  C   UNL     1      18.094  14.840  -3.033  0.00  0.00    +0.000 A 
ATOM     36  C   UNL     1      18.651  15.754  -3.913  0.00  0.00    +0.002 A 
ATOM     37  C   UNL     1      20.030  15.772  -4.109  0.00  0.00    +0.028 A 
BRANCH  33  38
ATOM     38  C   UNL     1      21.136  12.913  -1.720  0.00  0.00    +0.015 C 
ATOM     39  C   UNL     1      21.044  11.469  -2.237  0.00  0.00    +0.012 C 
ATOM     40  C   UNL     1      20.742  12.960  -0.241  0.00  0.00    +0.012 C 
ENDBRANCH  33  38
ENDBRANCH  30  32
ENDBRANCH  26  28
ENDBRANCH  25  26
ENDBRANCH  24  25
ENDBRANCH   1  24
TORSDOF 12
