REMARK VINA RESULT:    -6.607      2.510      4.597
REMARK INTER + INTRA:         -13.047
REMARK INTER:                 -11.104
REMARK INTRA:                  -1.942
REMARK UNBOUND:                -2.191
REMARK  Name = lig_assembled_93.pdb
REMARK  11 active torsions:
REMARK  status: ('A' for Active; 'I' for Inactive)
REMARK    1  A    between atoms: _2  and  _8
REMARK    2  A    between atoms: _5  and  _6
REMARK    3  A    between atoms: _5  and  _13
REMARK    4  A    between atoms: _13  and  _15
REMARK    5  A    between atoms: _14  and  _19
REMARK    6  A    between atoms: _15  and  _18
REMARK    7  A    between atoms: _23  and  _33
REMARK    8  A    between atoms: _25  and  _26
REMARK    9  A    between atoms: _27  and  _29
REMARK   10  A    between atoms: _29  and  _31
REMARK   11  A    between atoms: _31  and  _33
REMARK                            x       y       z     vdW  Elec       q    Type
REMARK                         _______ _______ _______ _____ _____    ______ ____
ROOT
ATOM      1  C   UNL     1      27.676  17.461  -1.257  0.00  0.00    +0.400 C 
ATOM      2  N   UNL     1      27.953  16.203  -0.775  0.00  0.00    -0.278 N 
ATOM      3  H   UNL     1      28.231  16.383   0.241  0.00  0.00    +0.152 HD
ATOM      4  O   UNL     1      27.625  18.390  -0.455  0.00  0.00    -0.226 OA
ENDROOT
BRANCH   1   5
ATOM      5  O   UNL     1      27.524  17.548  -2.538  0.00  0.00    -0.450 OA
BRANCH   5   6
ATOM      6  C   UNL     1      26.498  17.470  -3.499  0.00  0.00    +0.240 C 
BRANCH   6   7
ATOM      7  C   UNL     1      26.461  16.220  -4.399  0.00  0.00    +0.100 C 
BRANCH   7   9
ATOM      8  N   UNL     1      24.789  14.485  -4.930  0.00  0.00    -0.134 NA
ATOM      9  C   UNL     1      25.316  15.364  -4.038  0.00  0.00    +0.086 A 
ATOM     10  C   UNL     1      24.615  15.274  -2.857  0.00  0.00    +0.139 A 
ATOM     11  N   UNL     1      23.658  14.293  -3.066  0.00  0.00    -0.219 N 
ATOM     12  N   UNL     1      23.790  13.850  -4.336  0.00  0.00    -0.061 NA
BRANCH  11  13
ATOM     13  C   UNL     1      22.691  13.791  -2.140  0.00  0.00    +0.080 A 
ATOM     14  C   UNL     1      23.140  12.880  -1.154  0.00  0.00    +0.029 A 
ATOM     15  C   UNL     1      22.268  12.319  -0.217  0.00  0.00    +0.002 A 
ATOM     16  C   UNL     1      20.924  12.652  -0.238  0.00  0.00    +0.001 A 
ATOM     17  C   UNL     1      20.455  13.550  -1.193  0.00  0.00    +0.016 A 
ATOM     18  C   UNL     1      21.321  14.127  -2.146  0.00  0.00    +0.039 A 
ATOM     19  I   UNL     1      20.313  15.451  -3.453  0.00  0.00    -0.042 I 
ENDBRANCH  11  13
ENDBRANCH   7   9
ENDBRANCH   6   7
ENDBRANCH   5   6
ENDBRANCH   1   5
BRANCH   2  20
ATOM     20  C   UNL     1      28.022  14.764  -1.018  0.00  0.00    +0.152 C 
BRANCH  20  21
ATOM     21  C   UNL     1      28.635  13.913   0.112  0.00  0.00    +0.193 C 
ATOM     22  O   UNL     1      27.530  13.337   0.844  0.00  0.00    -0.219 OA
BRANCH  21  23
ATOM     23  C   UNL     1      29.501  12.700  -0.295  0.00  0.00    +0.212 C 
ATOM     24  O   UNL     1      28.991  11.496   0.301  0.00  0.00    -0.218 OA
BRANCH  23  25
ATOM     25  C   UNL     1      29.588  12.492  -1.855  0.00  0.00    +0.171 C 
ATOM     26  O   UNL     1      28.815  11.383  -2.304  0.00  0.00    -0.343 OA
ATOM     27  C   UNL     1      28.902  10.828  -3.583  0.00  0.00    +0.220 C 
ATOM     28  C   UNL     1      30.358  10.522  -3.975  0.00  0.00    +0.076 C 
ATOM     29  C   UNL     1      31.172  11.811  -3.772  0.00  0.00    +0.177 C 
ATOM     30  O   UNL     1      32.522  11.594  -4.158  0.00  0.00    -0.221 OA
ATOM     31  C   UNL     1      31.076  12.279  -2.286  0.00  0.00    +0.155 C 
BRANCH  31  32
ATOM     32  N   UNL     1      31.854  13.499  -2.088  0.00  0.00    -0.202 NA
ATOM     33  C   UNL     1      32.886  13.742  -1.241  0.00  0.00    +0.242 C 
ATOM     34  C   UNL     1      33.701  14.993  -1.446  0.00  0.00    +0.096 C 
ATOM     35  O   UNL     1      33.131  12.945  -0.337  0.00  0.00    -0.273 OA
ENDBRANCH  31  32
BRANCH  27  36
ATOM     36  C   UNL     1      28.149  11.708  -4.722  0.00  0.00    +0.391 C 
ATOM     37  O   UNL     1      27.935  10.850  -5.739  0.00  0.00    -0.243 OA
ATOM     38  O   UNL     1      27.763  12.840  -4.121  0.00  0.00    -0.243 OA
ENDBRANCH  27  36
ENDBRANCH  23  25
ENDBRANCH  21  23
ENDBRANCH  20  21
ENDBRANCH   2  20
TORSDOF 11
