REMARK VINA RESULT:    -7.470      1.753      3.073
REMARK INTER + INTRA:         -13.691
REMARK INTER:                 -11.972
REMARK INTRA:                  -1.719
REMARK UNBOUND:                -1.418
REMARK  Name = lig_assembled_20.pdb
REMARK  11 active torsions:
REMARK  status: ('A' for Active; 'I' for Inactive)
REMARK    1  A    between atoms: _2  and  _10
REMARK    2  A    between atoms: _7  and  _8
REMARK    3  A    between atoms: _7  and  _16
REMARK    4  A    between atoms: _16  and  _18
REMARK    5  A    between atoms: _17  and  _22
REMARK    6  A    between atoms: _18  and  _21
REMARK    7  A    between atoms: _26  and  _36
REMARK    8  A    between atoms: _28  and  _29
REMARK    9  A    between atoms: _30  and  _32
REMARK   10  A    between atoms: _32  and  _34
REMARK   11  A    between atoms: _34  and  _36
REMARK                            x       y       z     vdW  Elec       q    Type
REMARK                         _______ _______ _______ _____ _____    ______ ____
ROOT
ATOM      1  C   UNL     1      27.921  17.349  -0.893  0.00  0.00    +0.400 C 
ATOM      2  N   UNL     1      28.556  16.483  -0.035  0.00  0.00    -0.278 N 
ATOM      3  H   UNL     1      28.724  17.077   0.837  0.00  0.00    +0.152 HD
ATOM      4  O   UNL     1      27.552  18.434  -0.453  0.00  0.00    -0.226 OA
ENDROOT
BRANCH   1   5
ATOM      5  O   UNL     1      27.799  16.939  -2.113  0.00  0.00    -0.450 OA
BRANCH   5   6
ATOM      6  C   UNL     1      26.954  17.127  -3.224  0.00  0.00    +0.240 C 
BRANCH   6   7
ATOM      7  C   UNL     1      26.420  15.867  -3.933  0.00  0.00    +0.100 C 
BRANCH   7   9
ATOM      8  N   UNL     1      24.058  15.819  -3.179  0.00  0.00    -0.134 NA
ATOM      9  C   UNL     1      25.310  15.275  -3.167  0.00  0.00    +0.086 A 
ATOM     10  C   UNL     1      25.305  14.162  -2.358  0.00  0.00    +0.139 A 
ATOM     11  N   UNL     1      24.014  14.061  -1.893  0.00  0.00    -0.220 N 
ATOM     12  N   UNL     1      23.277  15.077  -2.405  0.00  0.00    -0.061 NA
BRANCH  11  13
ATOM     13  C   UNL     1      23.465  13.084  -1.022  0.00  0.00    +0.068 A 
ATOM     14  C   UNL     1      22.074  12.902  -0.966  0.00  0.00    +0.030 A 
ATOM     15  C   UNL     1      21.498  11.943  -0.120  0.00  0.00    +0.030 A 
ATOM     16  C   UNL     1      22.367  11.179   0.664  0.00  0.00    +0.066 A 
ATOM     17  C   UNL     1      23.747  11.336   0.633  0.00  0.00    +0.021 A 
ATOM     18  C   UNL     1      24.235  10.388   1.557  0.00  0.00    +0.142 A 
ATOM     19  N   UNL     1      23.260   9.681   2.132  0.00  0.00    -0.181 NA
ATOM     20  N   UNL     1      22.142  10.178   1.573  0.00  0.00    -0.277 N 
ATOM     21  H   UNL     1      21.249   9.792   1.856  0.00  0.00    +0.189 HD
ATOM     22  C   UNL     1      24.315  12.301  -0.219  0.00  0.00    +0.039 A 
ENDBRANCH  11  13
ENDBRANCH   7   9
ENDBRANCH   6   7
ENDBRANCH   5   6
ENDBRANCH   1   5
BRANCH   2  23
ATOM     23  C   UNL     1      29.078  15.143   0.219  0.00  0.00    +0.152 C 
BRANCH  23  24
ATOM     24  C   UNL     1      30.614  15.012   0.283  0.00  0.00    +0.193 C 
ATOM     25  O   UNL     1      31.037  15.667   1.499  0.00  0.00    -0.219 OA
BRANCH  24  26
ATOM     26  C   UNL     1      31.208  13.590   0.384  0.00  0.00    +0.212 C 
ATOM     27  O   UNL     1      32.130  13.353  -0.691  0.00  0.00    -0.218 OA
BRANCH  26  28
ATOM     28  C   UNL     1      31.946  13.318   1.750  0.00  0.00    +0.171 C 
ATOM     29  O   UNL     1      33.268  12.821   1.569  0.00  0.00    -0.343 OA
ATOM     30  C   UNL     1      34.050  12.273   2.588  0.00  0.00    +0.220 C 
ATOM     31  C   UNL     1      33.289  11.189   3.371  0.00  0.00    +0.076 C 
ATOM     32  C   UNL     1      31.958  11.803   3.836  0.00  0.00    +0.177 C 
ATOM     33  O   UNL     1      31.231  10.852   4.601  0.00  0.00    -0.221 OA
ATOM     34  C   UNL     1      31.133  12.292   2.605  0.00  0.00    +0.155 C 
BRANCH  34  35
ATOM     35  N   UNL     1      29.865  12.870   3.043  0.00  0.00    -0.202 NA
ATOM     36  C   UNL     1      28.594  12.471   2.783  0.00  0.00    +0.242 C 
ATOM     37  C   UNL     1      27.476  13.067   3.597  0.00  0.00    +0.096 C 
ATOM     38  O   UNL     1      28.386  11.641   1.900  0.00  0.00    -0.273 OA
ENDBRANCH  34  35
BRANCH  30  39
ATOM     39  C   UNL     1      34.694  13.386   3.581  0.00  0.00    +0.391 C 
ATOM     40  O   UNL     1      35.224  12.679   4.598  0.00  0.00    -0.243 OA
ATOM     41  O   UNL     1      34.723  14.529   2.885  0.00  0.00    -0.243 OA
ENDBRANCH  30  39
ENDBRANCH  26  28
ENDBRANCH  24  26
ENDBRANCH  23  24
ENDBRANCH   2  23
TORSDOF 11
