REMARK VINA RESULT:    -6.340      4.386      9.678
REMARK INTER + INTRA:         -12.608
REMARK INTER:                 -10.335
REMARK INTRA:                  -2.273
REMARK UNBOUND:                -2.191
REMARK  Name = lig_assembled_93.pdb
REMARK  11 active torsions:
REMARK  status: ('A' for Active; 'I' for Inactive)
REMARK    1  A    between atoms: _2  and  _8
REMARK    2  A    between atoms: _5  and  _6
REMARK    3  A    between atoms: _5  and  _13
REMARK    4  A    between atoms: _13  and  _15
REMARK    5  A    between atoms: _14  and  _19
REMARK    6  A    between atoms: _15  and  _18
REMARK    7  A    between atoms: _23  and  _33
REMARK    8  A    between atoms: _25  and  _26
REMARK    9  A    between atoms: _27  and  _29
REMARK   10  A    between atoms: _29  and  _31
REMARK   11  A    between atoms: _31  and  _33
REMARK                            x       y       z     vdW  Elec       q    Type
REMARK                         _______ _______ _______ _____ _____    ______ ____
ROOT
ATOM      1  C   UNL     1      26.478  15.391  -4.086  0.00  0.00    +0.400 C 
ATOM      2  N   UNL     1      26.715  14.039  -4.015  0.00  0.00    -0.278 N 
ATOM      3  H   UNL     1      26.230  13.656  -4.887  0.00  0.00    +0.152 HD
ATOM      4  O   UNL     1      25.984  15.839  -5.118  0.00  0.00    -0.226 OA
ENDROOT
BRANCH   1   5
ATOM      5  O   UNL     1      26.775  16.069  -3.026  0.00  0.00    -0.450 OA
BRANCH   5   6
ATOM      6  C   UNL     1      27.273  17.338  -2.674  0.00  0.00    +0.240 C 
BRANCH   6   7
ATOM      7  C   UNL     1      27.489  17.627  -1.176  0.00  0.00    +0.100 C 
BRANCH   7   9
ATOM      8  N   UNL     1      29.889  17.299  -0.711  0.00  0.00    -0.134 NA
ATOM      9  C   UNL     1      28.616  16.830  -0.659  0.00  0.00    +0.086 A 
ATOM     10  C   UNL     1      28.624  15.584  -0.075  0.00  0.00    +0.139 A 
ATOM     11  N   UNL     1      29.950  15.330   0.241  0.00  0.00    -0.219 N 
ATOM     12  N   UNL     1      30.684  16.387  -0.171  0.00  0.00    -0.061 NA
BRANCH  11  13
ATOM     13  C   UNL     1      30.498  14.183   0.895  0.00  0.00    +0.080 A 
ATOM     14  C   UNL     1      30.543  14.195   2.310  0.00  0.00    +0.029 A 
ATOM     15  C   UNL     1      31.078  13.129   3.039  0.00  0.00    +0.002 A 
ATOM     16  C   UNL     1      31.583  12.022   2.377  0.00  0.00    +0.001 A 
ATOM     17  C   UNL     1      31.546  11.980   0.986  0.00  0.00    +0.016 A 
ATOM     18  C   UNL     1      31.008  13.046   0.233  0.00  0.00    +0.039 A 
ATOM     19  I   UNL     1      31.090  12.682  -1.850  0.00  0.00    -0.042 I 
ENDBRANCH  11  13
ENDBRANCH   7   9
ENDBRANCH   6   7
ENDBRANCH   5   6
ENDBRANCH   1   5
BRANCH   2  20
ATOM     20  C   UNL     1      27.330  12.919  -3.307  0.00  0.00    +0.152 C 
BRANCH  20  21
ATOM     21  C   UNL     1      26.366  11.840  -2.774  0.00  0.00    +0.193 C 
ATOM     22  O   UNL     1      27.182  10.831  -2.138  0.00  0.00    -0.219 OA
BRANCH  21  23
ATOM     23  C   UNL     1      25.353  12.259  -1.686  0.00  0.00    +0.212 C 
ATOM     24  O   UNL     1      25.865  13.365  -0.924  0.00  0.00    -0.218 OA
BRANCH  23  25
ATOM     25  C   UNL     1      23.942  12.657  -2.266  0.00  0.00    +0.171 C 
ATOM     26  O   UNL     1      23.941  13.949  -2.863  0.00  0.00    -0.343 OA
ATOM     27  C   UNL     1      22.787  14.645  -3.233  0.00  0.00    +0.220 C 
ATOM     28  C   UNL     1      21.763  14.702  -2.086  0.00  0.00    +0.076 C 
ATOM     29  C   UNL     1      21.524  13.260  -1.607  0.00  0.00    +0.177 C 
ATOM     30  O   UNL     1      20.552  13.252  -0.571  0.00  0.00    -0.221 OA
ATOM     31  C   UNL     1      22.866  12.622  -1.131  0.00  0.00    +0.155 C 
BRANCH  31  32
ATOM     32  N   UNL     1      22.642  11.255  -0.669  0.00  0.00    -0.202 NA
ATOM     33  C   UNL     1      22.624  10.758   0.593  0.00  0.00    +0.242 C 
ATOM     34  C   UNL     1      22.078   9.370   0.808  0.00  0.00    +0.096 C 
ATOM     35  O   UNL     1      23.047  11.443   1.523  0.00  0.00    -0.273 OA
ENDBRANCH  31  32
BRANCH  27  36
ATOM     36  C   UNL     1      22.114  14.099  -4.607  0.00  0.00    +0.391 C 
ATOM     37  O   UNL     1      20.840  14.535  -4.568  0.00  0.00    -0.243 OA
ATOM     38  O   UNL     1      23.130  13.696  -5.381  0.00  0.00    -0.243 OA
ENDBRANCH  27  36
ENDBRANCH  23  25
ENDBRANCH  21  23
ENDBRANCH  20  21
ENDBRANCH   2  20
TORSDOF 11
