REMARK VINA RESULT:    -6.835      2.225      3.222
REMARK INTER + INTRA:         -13.080
REMARK INTER:                 -11.373
REMARK INTRA:                  -1.707
REMARK UNBOUND:                -1.850
REMARK  Name = lig_assembled_2.pdb
REMARK  11 active torsions:
REMARK  status: ('A' for Active; 'I' for Inactive)
REMARK    1  A    between atoms: _2  and  _8
REMARK    2  A    between atoms: _5  and  _6
REMARK    3  A    between atoms: _5  and  _13
REMARK    4  A    between atoms: _13  and  _15
REMARK    5  A    between atoms: _14  and  _19
REMARK    6  A    between atoms: _15  and  _18
REMARK    7  A    between atoms: _23  and  _33
REMARK    8  A    between atoms: _25  and  _26
REMARK    9  A    between atoms: _27  and  _29
REMARK   10  A    between atoms: _29  and  _31
REMARK   11  A    between atoms: _31  and  _33
REMARK                            x       y       z     vdW  Elec       q    Type
REMARK                         _______ _______ _______ _____ _____    ______ ____
ROOT
ATOM      1  C   UNL     1      27.703  17.525  -1.463  0.00  0.00    +0.400 C 
ATOM      2  N   UNL     1      28.391  16.778  -0.536  0.00  0.00    -0.278 N 
ATOM      3  H   UNL     1      28.683  17.500   0.196  0.00  0.00    +0.152 HD
ATOM      4  O   UNL     1      27.435  18.691  -1.184  0.00  0.00    -0.226 OA
ENDROOT
BRANCH   1   5
ATOM      5  O   UNL     1      27.427  16.924  -2.573  0.00  0.00    -0.450 OA
BRANCH   5   6
ATOM      6  C   UNL     1      26.473  16.977  -3.608  0.00  0.00    +0.240 C 
BRANCH   6   7
ATOM      7  C   UNL     1      25.934  15.638  -4.147  0.00  0.00    +0.100 C 
BRANCH   7   9
ATOM      8  N   UNL     1      23.740  15.591  -3.002  0.00  0.00    -0.134 NA
ATOM      9  C   UNL     1      24.979  15.048  -3.190  0.00  0.00    +0.086 A 
ATOM     10  C   UNL     1      25.113  13.944  -2.380  0.00  0.00    +0.139 A 
ATOM     11  N   UNL     1      23.906  13.831  -1.729  0.00  0.00    -0.220 N 
ATOM     12  N   UNL     1      23.098  14.851  -2.109  0.00  0.00    -0.061 NA
BRANCH  11  13
ATOM     13  C   UNL     1      23.477  12.830  -0.819  0.00  0.00    +0.067 A 
ATOM     14  C   UNL     1      24.407  12.074  -0.089  0.00  0.00    +0.029 A 
ATOM     15  C   UNL     1      23.964  11.066   0.775  0.00  0.00    +0.022 A 
ATOM     16  C   UNL     1      22.601  10.813   0.914  0.00  0.00    +0.041 A 
ATOM     17 CL   UNL     1      22.068   9.558   1.961  0.00  0.00    -0.084 Cl
ATOM     18  C   UNL     1      21.670  11.569   0.205  0.00  0.00    +0.022 A 
ATOM     19  C   UNL     1      22.104  12.578  -0.660  0.00  0.00    +0.029 A 
ENDBRANCH  11  13
ENDBRANCH   7   9
ENDBRANCH   6   7
ENDBRANCH   5   6
ENDBRANCH   1   5
BRANCH   2  20
ATOM     20  C   UNL     1      28.878  15.470  -0.106  0.00  0.00    +0.152 C 
BRANCH  20  21
ATOM     21  C   UNL     1      30.406  15.333   0.054  0.00  0.00    +0.193 C 
ATOM     22  O   UNL     1      30.892  16.612   0.517  0.00  0.00    -0.219 OA
BRANCH  21  23
ATOM     23  C   UNL     1      30.928  14.322   1.100  0.00  0.00    +0.212 C 
ATOM     24  O   UNL     1      31.384  15.008   2.277  0.00  0.00    -0.218 OA
BRANCH  23  25
ATOM     25  C   UNL     1      29.850  13.253   1.526  0.00  0.00    +0.171 C 
ATOM     26  O   UNL     1      29.727  13.134   2.940  0.00  0.00    -0.343 OA
ATOM     27  C   UNL     1      29.035  12.107   3.586  0.00  0.00    +0.220 C 
ATOM     28  C   UNL     1      29.464  10.720   3.075  0.00  0.00    +0.076 C 
ATOM     29  C   UNL     1      29.326  10.729   1.543  0.00  0.00    +0.177 C 
ATOM     30  O   UNL     1      29.673   9.455   1.021  0.00  0.00    -0.221 OA
ATOM     31  C   UNL     1      30.217  11.855   0.930  0.00  0.00    +0.155 C 
BRANCH  31  32
ATOM     32  N   UNL     1      30.094  11.862  -0.525  0.00  0.00    -0.202 NA
ATOM     33  C   UNL     1      29.007  12.099  -1.303  0.00  0.00    +0.242 C 
ATOM     34  C   UNL     1      29.220  12.336  -2.776  0.00  0.00    +0.096 C 
ATOM     35  O   UNL     1      27.888  12.118  -0.795  0.00  0.00    -0.273 OA
ENDBRANCH  31  32
BRANCH  27  36
ATOM     36  C   UNL     1      27.421  12.286   3.543  0.00  0.00    +0.391 C 
ATOM     37  O   UNL     1      26.930  11.034   3.628  0.00  0.00    -0.243 OA
ATOM     38  O   UNL     1      27.188  13.589   3.743  0.00  0.00    -0.243 OA
ENDBRANCH  27  36
ENDBRANCH  23  25
ENDBRANCH  21  23
ENDBRANCH  20  21
ENDBRANCH   2  20
TORSDOF 11
