REMARK VINA RESULT:    -6.384      1.903      3.409
REMARK INTER + INTRA:         -14.488
REMARK INTER:                 -12.557
REMARK INTRA:                  -1.931
REMARK UNBOUND:                -2.880
REMARK  Name = lig_assembled_21.pdb
REMARK  15 active torsions:
REMARK  status: ('A' for Active; 'I' for Inactive)
REMARK    1  A    between atoms: _2  and  _8
REMARK    2  A    between atoms: _5  and  _6
REMARK    3  A    between atoms: _5  and  _18
REMARK    4  A    between atoms: _8  and  _9
REMARK    5  A    between atoms: _10  and  _17
REMARK    6  A    between atoms: _11  and  _12
REMARK    7  A    between atoms: _11  and  _17
REMARK    8  A    between atoms: _18  and  _20
REMARK    9  A    between atoms: _19  and  _24
REMARK   10  A    between atoms: _20  and  _23
REMARK   11  A    between atoms: _28  and  _38
REMARK   12  A    between atoms: _30  and  _31
REMARK   13  A    between atoms: _32  and  _34
REMARK   14  A    between atoms: _34  and  _36
REMARK   15  A    between atoms: _36  and  _38
REMARK                            x       y       z     vdW  Elec       q    Type
REMARK                         _______ _______ _______ _____ _____    ______ ____
ROOT
ATOM      1  C   UNL     1      28.484  17.074  -0.767  0.00  0.00    +0.400 C 
ATOM      2  N   UNL     1      29.284  16.073  -0.269  0.00  0.00    -0.278 N 
ATOM      3  H   UNL     1      29.741  16.524   0.586  0.00  0.00    +0.152 HD
ATOM      4  O   UNL     1      28.334  18.087  -0.089  0.00  0.00    -0.226 OA
ENDROOT
BRANCH   2   5
ATOM      5  C   UNL     1      29.768  14.699  -0.373  0.00  0.00    +0.152 C 
BRANCH   5   6
ATOM      6  C   UNL     1      31.283  14.494  -0.165  0.00  0.00    +0.193 C 
ATOM      7  O   UNL     1      31.945  15.598  -0.821  0.00  0.00    -0.219 OA
BRANCH   6   8
ATOM      8  C   UNL     1      31.818  14.530   1.283  0.00  0.00    +0.212 C 
ATOM      9  O   UNL     1      31.271  15.654   1.992  0.00  0.00    -0.218 OA
BRANCH   8  10
ATOM     10  C   UNL     1      31.502  13.218   2.098  0.00  0.00    +0.171 C 
ATOM     11  O   UNL     1      30.136  13.132   2.490  0.00  0.00    -0.343 OA
ATOM     12  C   UNL     1      29.639  12.212   3.416  0.00  0.00    +0.220 C 
ATOM     13  C   UNL     1      30.459  12.211   4.718  0.00  0.00    +0.076 C 
ATOM     14  C   UNL     1      31.935  12.010   4.334  0.00  0.00    +0.177 C 
ATOM     15  O   UNL     1      32.735  11.962   5.507  0.00  0.00    -0.221 OA
ATOM     16  C   UNL     1      32.401  13.150   3.376  0.00  0.00    +0.155 C 
BRANCH  16  17
ATOM     17  N   UNL     1      33.805  12.967   3.015  0.00  0.00    -0.202 NA
ATOM     18  C   UNL     1      34.891  13.708   3.351  0.00  0.00    +0.242 C 
ATOM     19  C   UNL     1      36.258  13.132   3.089  0.00  0.00    +0.096 C 
ATOM     20  O   UNL     1      34.737  14.818   3.856  0.00  0.00    -0.273 OA
ENDBRANCH  16  17
BRANCH  12  21
ATOM     21  C   UNL     1      29.474  10.712   2.814  0.00  0.00    +0.391 C 
ATOM     22  O   UNL     1      29.322   9.919   3.892  0.00  0.00    -0.243 OA
ATOM     23  O   UNL     1      29.252  10.863   1.502  0.00  0.00    -0.243 OA
ENDBRANCH  12  21
ENDBRANCH   8  10
ENDBRANCH   6   8
ENDBRANCH   5   6
ENDBRANCH   2   5
BRANCH   1  24
ATOM     24  O   UNL     1      27.981  16.858  -1.938  0.00  0.00    -0.450 OA
BRANCH  24  25
ATOM     25  C   UNL     1      27.020  17.411  -2.806  0.00  0.00    +0.240 C 
BRANCH  25  26
ATOM     26  C   UNL     1      26.371  16.471  -3.840  0.00  0.00    +0.100 C 
BRANCH  26  28
ATOM     27  N   UNL     1      26.085  14.258  -2.778  0.00  0.00    -0.134 NA
ATOM     28  C   UNL     1      25.546  15.456  -3.159  0.00  0.00    +0.086 A 
ATOM     29  C   UNL     1      24.226  15.499  -2.771  0.00  0.00    +0.134 A 
ATOM     30  N   UNL     1      24.046  14.332  -2.078  0.00  0.00    -0.247 N 
ATOM     31  N   UNL     1      25.159  13.578  -2.120  0.00  0.00    -0.065 NA
BRANCH  30  32
ATOM     32  C   UNL     1      22.861  13.967  -1.309  0.00  0.00    +0.184 C 
BRANCH  32  33
ATOM     33  C   UNL     1      22.274  12.610  -1.613  0.00  0.00    +0.016 A 
ATOM     34  C   UNL     1      22.425  11.521  -0.735  0.00  0.00    +0.137 A 
ATOM     35  C   UNL     1      21.872  10.275  -1.033  0.00  0.00    +0.047 A 
ATOM     36  C   UNL     1      21.144  10.106  -2.211  0.00  0.00    +0.004 A 
ATOM     37  C   UNL     1      20.995  11.168  -3.100  0.00  0.00    +0.001 A 
ATOM     38  C   UNL     1      21.554  12.412  -2.803  0.00  0.00    +0.009 A 
BRANCH  34  39
ATOM     39  O   UNL     1      23.230  11.731   0.410  0.00  0.00    -0.426 OA
BRANCH  39  40
ATOM     40  C   UNL     1      22.857  11.290   1.682  0.00  0.00    +0.309 C 
ATOM     41  O   UNL     1      23.514  10.596   2.447  0.00  0.00    -0.251 OA
ATOM     42  C   UNL     1      21.517  11.871   2.025  0.00  0.00    +0.136 C 
ENDBRANCH  39  40
ENDBRANCH  34  39
ENDBRANCH  32  33
ENDBRANCH  30  32
ENDBRANCH  26  28
ENDBRANCH  25  26
ENDBRANCH  24  25
ENDBRANCH   1  24
TORSDOF 14
