REMARK VINA RESULT:    -6.993      1.826      2.751
REMARK INTER + INTRA:         -15.154
REMARK INTER:                 -13.087
REMARK INTRA:                  -2.067
REMARK UNBOUND:                -2.234
REMARK  Name = lig_assembled_83.pdb
REMARK  15 active torsions:
REMARK  status: ('A' for Active; 'I' for Inactive)
REMARK    1  A    between atoms: _2  and  _11
REMARK    2  A    between atoms: _3  and  _13
REMARK    3  A    between atoms: _8  and  _9
REMARK    4  A    between atoms: _8  and  _19
REMARK    5  A    between atoms: _11  and  _12
REMARK    6  A    between atoms: _12  and  _13
REMARK    7  A    between atoms: _12  and  _17
REMARK    8  A    between atoms: _19  and  _21
REMARK    9  A    between atoms: _20  and  _25
REMARK   10  A    between atoms: _21  and  _24
REMARK   11  A    between atoms: _29  and  _39
REMARK   12  A    between atoms: _31  and  _32
REMARK   13  A    between atoms: _33  and  _35
REMARK   14  A    between atoms: _35  and  _37
REMARK   15  A    between atoms: _37  and  _39
REMARK                            x       y       z     vdW  Elec       q    Type
REMARK                         _______ _______ _______ _____ _____    ______ ____
ROOT
ATOM      1  C   UNL     1      28.199  17.693  -0.502  0.00  0.00    +0.400 C 
ATOM      2  N   UNL     1      29.420  17.327   0.016  0.00  0.00    -0.278 N 
ATOM      3  H   UNL     1      29.428  17.790   0.979  0.00  0.00    +0.152 HD
ATOM      4  O   UNL     1      27.396  18.246   0.245  0.00  0.00    -0.226 OA
ENDROOT
BRANCH   2   5
ATOM      5  C   UNL     1      30.673  16.595  -0.150  0.00  0.00    +0.152 C 
BRANCH   5   6
ATOM      6  C   UNL     1      30.665  15.122   0.307  0.00  0.00    +0.193 C 
ATOM      7  O   UNL     1      31.147  14.338  -0.807  0.00  0.00    -0.219 OA
BRANCH   6   8
ATOM      8  C   UNL     1      31.590  14.733   1.481  0.00  0.00    +0.212 C 
ATOM      9  O   UNL     1      31.584  15.759   2.487  0.00  0.00    -0.218 OA
BRANCH   8  10
ATOM     10  C   UNL     1      31.199  13.363   2.157  0.00  0.00    +0.171 C 
ATOM     11  O   UNL     1      29.814  13.286   2.476  0.00  0.00    -0.343 OA
ATOM     12  C   UNL     1      29.246  12.302   3.290  0.00  0.00    +0.220 C 
ATOM     13  C   UNL     1      30.001  12.158   4.622  0.00  0.00    +0.076 C 
ATOM     14  C   UNL     1      31.488  11.946   4.291  0.00  0.00    +0.177 C 
ATOM     15  O   UNL     1      32.228  11.767   5.490  0.00  0.00    -0.221 OA
ATOM     16  C   UNL     1      32.032  13.152   3.464  0.00  0.00    +0.155 C 
BRANCH  16  17
ATOM     17  N   UNL     1      33.446  12.957   3.153  0.00  0.00    -0.202 NA
ATOM     18  C   UNL     1      34.528  13.672   3.552  0.00  0.00    +0.242 C 
ATOM     19  C   UNL     1      35.897  13.083   3.328  0.00  0.00    +0.096 C 
ATOM     20  O   UNL     1      34.370  14.770   4.081  0.00  0.00    -0.273 OA
ENDBRANCH  16  17
BRANCH  12  21
ATOM     21  C   UNL     1      29.070  10.869   2.545  0.00  0.00    +0.391 C 
ATOM     22  O   UNL     1      28.505  10.065   3.467  0.00  0.00    -0.243 OA
ATOM     23  O   UNL     1      29.265  11.103   1.242  0.00  0.00    -0.243 OA
ENDBRANCH  12  21
ENDBRANCH   8  10
ENDBRANCH   6   8
ENDBRANCH   5   6
ENDBRANCH   2   5
BRANCH   1  24
ATOM     24  O   UNL     1      28.026  17.441  -1.758  0.00  0.00    -0.450 OA
BRANCH  24  25
ATOM     25  C   UNL     1      27.046  17.608  -2.755  0.00  0.00    +0.240 C 
BRANCH  25  26
ATOM     26  C   UNL     1      27.104  16.668  -3.974  0.00  0.00    +0.100 C 
BRANCH  26  28
ATOM     27  N   UNL     1      25.540  15.242  -5.273  0.00  0.00    -0.134 NA
ATOM     28  C   UNL     1      25.828  15.947  -4.131  0.00  0.00    +0.086 A 
ATOM     29  C   UNL     1      24.768  15.839  -3.260  0.00  0.00    +0.133 A 
ATOM     30  N   UNL     1      23.880  15.048  -3.921  0.00  0.00    -0.249 N 
ATOM     31  N   UNL     1      24.337  14.698  -5.134  0.00  0.00    -0.065 NA
BRANCH  30  32
ATOM     32  C   UNL     1      22.571  14.621  -3.474  0.00  0.00    +0.178 C 
BRANCH  32  33
ATOM     33  C   UNL     1      22.583  14.178  -2.009  0.00  0.00    +0.156 C 
BRANCH  33  34
ATOM     34  O   UNL     1      21.401  14.646  -1.349  0.00  0.00    -0.388 OA
ATOM     35  H   UNL     1      20.820  13.888  -1.136  0.00  0.00    +0.210 HD
ENDBRANCH  33  34
BRANCH  33  36
ATOM     36  C   UNL     1      22.679  12.648  -1.908  0.00  0.00    +0.162 C 
BRANCH  36  37
ATOM     37  N   UNL     1      23.455  12.211  -0.759  0.00  0.00    -0.269 N 
ATOM     38  C   UNL     1      24.827  12.095  -0.769  0.00  0.00    +0.113 A 
ATOM     39  C   UNL     1      25.173  11.691   0.499  0.00  0.00    +0.137 A 
ATOM     40  N   UNL     1      24.060  11.526   1.277  0.00  0.00    -0.172 NA
ATOM     41  C   UNL     1      23.042  11.850   0.501  0.00  0.00    +0.450 A 
ATOM     42  N   UNL     1      21.673  11.818   0.965  0.00  0.00    +0.120 N 
ATOM     43  O   UNL     1      20.784  12.142   0.160  0.00  0.00    +0.045 OA
ATOM     44  O   UNL     1      21.473  11.459   2.131  0.00  0.00    -0.573 OA
ENDBRANCH  36  37
ENDBRANCH  33  36
ENDBRANCH  32  33
ENDBRANCH  30  32
ENDBRANCH  26  28
ENDBRANCH  25  26
ENDBRANCH  24  25
ENDBRANCH   1  24
TORSDOF 15
