REMARK VINA RESULT:    -6.945      2.890      4.864
REMARK INTER + INTRA:         -16.223
REMARK INTER:                 -13.141
REMARK INTRA:                  -3.082
REMARK UNBOUND:                -2.580
REMARK  Name = lig_assembled_90.pdb
REMARK  17 active torsions:
REMARK  status: ('A' for Active; 'I' for Inactive)
REMARK    1  A    between atoms: _2  and  _12
REMARK    2  A    between atoms: _3  and  _14
REMARK    3  A    between atoms: _4  and  _16
REMARK    4  A    between atoms: _9  and  _10
REMARK    5  A    between atoms: _9  and  _23
REMARK    6  A    between atoms: _12  and  _13
REMARK    7  A    between atoms: _14  and  _15
REMARK    8  A    between atoms: _15  and  _16
REMARK    9  A    between atoms: _15  and  _21
REMARK   10  A    between atoms: _23  and  _25
REMARK   11  A    between atoms: _24  and  _29
REMARK   12  A    between atoms: _25  and  _28
REMARK   13  A    between atoms: _33  and  _43
REMARK   14  A    between atoms: _35  and  _36
REMARK   15  A    between atoms: _37  and  _39
REMARK   16  A    between atoms: _39  and  _41
REMARK   17  A    between atoms: _41  and  _43
REMARK                            x       y       z     vdW  Elec       q    Type
REMARK                         _______ _______ _______ _____ _____    ______ ____
ROOT
ATOM      1  C   UNL     1      30.122  16.841  -0.100  0.00  0.00    +0.240 C 
ENDROOT
BRANCH   1   2
ATOM      2  O   UNL     1      29.091  17.196  -0.992  0.00  0.00    -0.450 OA
BRANCH   2   3
ATOM      3  C   UNL     1      27.944  17.791  -0.976  0.00  0.00    +0.400 C 
ATOM      4  N   UNL     1      27.176  17.633  -2.106  0.00  0.00    -0.278 N 
ATOM      5  H   UNL     1      26.224  18.020  -1.814  0.00  0.00    +0.152 HD
ATOM      6  O   UNL     1      27.478  18.445  -0.046  0.00  0.00    -0.226 OA
BRANCH   4   7
ATOM      7  C   UNL     1      27.085  17.198  -3.498  0.00  0.00    +0.152 C 
BRANCH   7   8
ATOM      8  C   UNL     1      26.036  16.109  -3.802  0.00  0.00    +0.193 C 
ATOM      9  O   UNL     1      26.020  15.937  -5.236  0.00  0.00    -0.219 OA
BRANCH   8  10
ATOM     10  C   UNL     1      26.296  14.691  -3.247  0.00  0.00    +0.212 C 
ATOM     11  O   UNL     1      27.057  14.760  -2.030  0.00  0.00    -0.218 OA
BRANCH  10  12
ATOM     12  C   UNL     1      24.975  13.877  -2.970  0.00  0.00    +0.171 C 
ATOM     13  O   UNL     1      24.024  14.617  -2.211  0.00  0.00    -0.343 OA
ATOM     14  C   UNL     1      22.885  14.065  -1.621  0.00  0.00    +0.220 C 
ATOM     15  C   UNL     1      23.222  12.817  -0.787  0.00  0.00    +0.076 C 
ATOM     16  C   UNL     1      24.013  11.856  -1.690  0.00  0.00    +0.177 C 
ATOM     17  O   UNL     1      24.316  10.665  -0.977  0.00  0.00    -0.221 OA
ATOM     18  C   UNL     1      25.310  12.552  -2.209  0.00  0.00    +0.155 C 
BRANCH  18  19
ATOM     19  N   UNL     1      26.068  11.641  -3.061  0.00  0.00    -0.202 NA
ATOM     20  C   UNL     1      27.290  11.082  -2.864  0.00  0.00    +0.242 C 
ATOM     21  C   UNL     1      27.711   9.948  -3.762  0.00  0.00    +0.096 C 
ATOM     22  O   UNL     1      28.015  11.509  -1.968  0.00  0.00    -0.273 OA
ENDBRANCH  18  19
BRANCH  14  23
ATOM     23  C   UNL     1      21.687  13.770  -2.679  0.00  0.00    +0.391 C 
ATOM     24  O   UNL     1      20.824  12.977  -2.015  0.00  0.00    -0.243 OA
ATOM     25  O   UNL     1      21.851  14.648  -3.677  0.00  0.00    -0.243 OA
ENDBRANCH  14  23
ENDBRANCH  10  12
ENDBRANCH   8  10
ENDBRANCH   7   8
ENDBRANCH   4   7
ENDBRANCH   2   3
ENDBRANCH   1   2
BRANCH   1  26
ATOM     26  C   UNL     1      30.606  15.378  -0.120  0.00  0.00    +0.100 C 
BRANCH  26  28
ATOM     27  N   UNL     1      30.676  14.152   2.034  0.00  0.00    -0.134 NA
ATOM     28  C   UNL     1      29.959  14.607   0.958  0.00  0.00    +0.086 A 
ATOM     29  C   UNL     1      28.645  14.220   1.098  0.00  0.00    +0.134 A 
ATOM     30  N   UNL     1      28.623  13.554   2.287  0.00  0.00    -0.243 N 
ATOM     31  N   UNL     1      29.848  13.498   2.839  0.00  0.00    -0.065 NA
BRANCH  30  32
ATOM     32  C   UNL     1      27.517  12.861   2.903  0.00  0.00    +0.240 C 
BRANCH  32  33
ATOM     33  C   UNL     1      27.990  11.664   3.698  0.00  0.00    +0.235 C 
ATOM     34  O   UNL     1      28.062  10.535   3.216  0.00  0.00    -0.274 OA
ATOM     35  N   UNL     1      28.392  11.939   4.992  0.00  0.00    -0.311 N 
ATOM     36  H   UNL     1      28.067  12.797   5.431  0.00  0.00    +0.149 HD
BRANCH  35  37
ATOM     37  C   UNL     1      28.789  10.860   5.885  0.00  0.00    +0.137 C 
BRANCH  37  38
ATOM     38  C   UNL     1      30.318  10.770   6.000  0.00  0.00    +0.151 C 
BRANCH  38  39
ATOM     39  O   UNL     1      30.848  10.339   4.740  0.00  0.00    -0.388 OA
ATOM     40  H   UNL     1      30.851   9.362   4.714  0.00  0.00    +0.210 HD
ENDBRANCH  38  39
BRANCH  38  41
ATOM     41  C   UNL     1      30.935  12.106   6.434  0.00  0.00    +0.162 C 
BRANCH  41  42
ATOM     42  N   UNL     1      31.437  12.070   7.800  0.00  0.00    -0.269 N 
ATOM     43  C   UNL     1      30.693  12.482   8.885  0.00  0.00    +0.113 A 
ATOM     44  C   UNL     1      31.514  12.339   9.977  0.00  0.00    +0.137 A 
ATOM     45  N   UNL     1      32.740  11.856   9.600  0.00  0.00    -0.172 NA
ATOM     46  C   UNL     1      32.663  11.691   8.289  0.00  0.00    +0.450 A 
ATOM     47  N   UNL     1      33.765  11.182   7.509  0.00  0.00    +0.120 N 
ATOM     48  O   UNL     1      33.566  10.960   6.307  0.00  0.00    +0.045 OA
ATOM     49  O   UNL     1      34.843  11.011   8.093  0.00  0.00    -0.573 OA
ENDBRANCH  41  42
ENDBRANCH  38  41
ENDBRANCH  37  38
ENDBRANCH  35  37
ENDBRANCH  32  33
ENDBRANCH  30  32
ENDBRANCH  26  28
ENDBRANCH   1  26
TORSDOF 17
