REMARK VINA RESULT:    -6.250      4.502     10.851
REMARK INTER + INTRA:         -12.460
REMARK INTER:                 -10.691
REMARK INTRA:                  -1.769
REMARK UNBOUND:                -2.191
REMARK  Name = lig_assembled_93.pdb
REMARK  11 active torsions:
REMARK  status: ('A' for Active; 'I' for Inactive)
REMARK    1  A    between atoms: _2  and  _8
REMARK    2  A    between atoms: _5  and  _6
REMARK    3  A    between atoms: _5  and  _13
REMARK    4  A    between atoms: _13  and  _15
REMARK    5  A    between atoms: _14  and  _19
REMARK    6  A    between atoms: _15  and  _18
REMARK    7  A    between atoms: _23  and  _33
REMARK    8  A    between atoms: _25  and  _26
REMARK    9  A    between atoms: _27  and  _29
REMARK   10  A    between atoms: _29  and  _31
REMARK   11  A    between atoms: _31  and  _33
REMARK                            x       y       z     vdW  Elec       q    Type
REMARK                         _______ _______ _______ _____ _____    ______ ____
ROOT
ATOM      1  C   UNL     1      26.802  16.582  -2.771  0.00  0.00    +0.400 C 
ATOM      2  N   UNL     1      26.196  16.406  -3.992  0.00  0.00    -0.278 N 
ATOM      3  H   UNL     1      26.077  17.404  -4.355  0.00  0.00    +0.152 HD
ATOM      4  O   UNL     1      27.206  17.706  -2.481  0.00  0.00    -0.226 OA
ENDROOT
BRANCH   1   5
ATOM      5  O   UNL     1      26.862  15.532  -2.019  0.00  0.00    -0.450 OA
BRANCH   5   6
ATOM      6  C   UNL     1      27.639  14.367  -1.870  0.00  0.00    +0.240 C 
BRANCH   6   7
ATOM      7  C   UNL     1      28.215  14.070  -0.472  0.00  0.00    +0.100 C 
BRANCH   7   9
ATOM      8  N   UNL     1      30.108  15.652  -0.467  0.00  0.00    -0.134 NA
ATOM      9  C   UNL     1      29.657  14.370  -0.440  0.00  0.00    +0.086 A 
ATOM     10  C   UNL     1      30.738  13.521  -0.375  0.00  0.00    +0.139 A 
ATOM     11  N   UNL     1      31.855  14.341  -0.346  0.00  0.00    -0.219 N 
ATOM     12  N   UNL     1      31.431  15.622  -0.415  0.00  0.00    -0.061 NA
BRANCH  11  13
ATOM     13  C   UNL     1      33.229  13.958  -0.247  0.00  0.00    +0.080 A 
ATOM     14  C   UNL     1      33.981  13.902  -1.445  0.00  0.00    +0.029 A 
ATOM     15  C   UNL     1      35.326  13.520  -1.454  0.00  0.00    +0.002 A 
ATOM     16  C   UNL     1      35.957  13.183  -0.268  0.00  0.00    +0.001 A 
ATOM     17  C   UNL     1      35.243  13.235   0.927  0.00  0.00    +0.016 A 
ATOM     18  C   UNL     1      33.886  13.619   0.955  0.00  0.00    +0.039 A 
ATOM     19  I   UNL     1      33.085  13.604   2.914  0.00  0.00    -0.042 I 
ENDBRANCH  11  13
ENDBRANCH   7   9
ENDBRANCH   6   7
ENDBRANCH   5   6
ENDBRANCH   1   5
BRANCH   2  20
ATOM     20  C   UNL     1      25.668  15.488  -4.998  0.00  0.00    +0.152 C 
BRANCH  20  21
ATOM     21  C   UNL     1      24.608  14.480  -4.509  0.00  0.00    +0.193 C 
ATOM     22  O   UNL     1      25.316  13.269  -4.161  0.00  0.00    -0.219 OA
BRANCH  21  23
ATOM     23  C   UNL     1      23.813  14.840  -3.234  0.00  0.00    +0.212 C 
ATOM     24  O   UNL     1      23.512  16.245  -3.211  0.00  0.00    -0.218 OA
BRANCH  23  25
ATOM     25  C   UNL     1      22.467  14.034  -3.089  0.00  0.00    +0.171 C 
ATOM     26  O   UNL     1      21.318  14.875  -3.116  0.00  0.00    -0.343 OA
ATOM     27  C   UNL     1      20.030  14.462  -2.769  0.00  0.00    +0.220 C 
ATOM     28  C   UNL     1      20.008  13.750  -1.405  0.00  0.00    +0.076 C 
ATOM     29  C   UNL     1      21.057  12.627  -1.453  0.00  0.00    +0.177 C 
ATOM     30  O   UNL     1      21.049  11.909  -0.227  0.00  0.00    -0.221 OA
ATOM     31  C   UNL     1      22.468  13.222  -1.753  0.00  0.00    +0.155 C 
BRANCH  31  32
ATOM     32  N   UNL     1      23.469  12.159  -1.792  0.00  0.00    -0.202 NA
ATOM     33  C   UNL     1      24.537  11.943  -0.984  0.00  0.00    +0.242 C 
ATOM     34  C   UNL     1      25.236  10.610  -1.062  0.00  0.00    +0.096 C 
ATOM     35  O   UNL     1      24.906  12.828  -0.214  0.00  0.00    -0.273 OA
ENDBRANCH  31  32
BRANCH  27  36
ATOM     36  C   UNL     1      19.303  13.574  -3.919  0.00  0.00    +0.391 C 
ATOM     37  O   UNL     1      18.199  13.077  -3.328  0.00  0.00    -0.243 OA
ATOM     38  O   UNL     1      19.894  13.908  -5.073  0.00  0.00    -0.243 OA
ENDBRANCH  27  36
ENDBRANCH  23  25
ENDBRANCH  21  23
ENDBRANCH  20  21
ENDBRANCH   2  20
TORSDOF 11
