REMARK VINA RESULT:    -6.629      1.836      3.035
REMARK INTER + INTRA:         -13.793
REMARK INTER:                 -12.911
REMARK INTRA:                  -0.882
REMARK UNBOUND:                -2.513
REMARK  Name = lig_assembled_28.pdb
REMARK  12 active torsions:
REMARK  status: ('A' for Active; 'I' for Inactive)
REMARK    1  A    between atoms: _2  and  _8
REMARK    2  A    between atoms: _5  and  _6
REMARK    3  A    between atoms: _5  and  _17
REMARK    4  A    between atoms: _8  and  _9
REMARK    5  A    between atoms: _17  and  _19
REMARK    6  A    between atoms: _18  and  _23
REMARK    7  A    between atoms: _19  and  _22
REMARK    8  A    between atoms: _27  and  _37
REMARK    9  A    between atoms: _29  and  _30
REMARK   10  A    between atoms: _31  and  _33
REMARK   11  A    between atoms: _33  and  _35
REMARK   12  A    between atoms: _35  and  _37
REMARK                            x       y       z     vdW  Elec       q    Type
REMARK                         _______ _______ _______ _____ _____    ______ ____
ROOT
ATOM      1  C   UNL     1      27.931  17.245  -0.799  0.00  0.00    +0.400 C 
ATOM      2  N   UNL     1      28.682  16.410  -0.005  0.00  0.00    -0.278 N 
ATOM      3  H   UNL     1      28.989  17.044   0.799  0.00  0.00    +0.152 HD
ATOM      4  O   UNL     1      27.647  18.358  -0.364  0.00  0.00    -0.226 OA
ENDROOT
BRANCH   2   5
ATOM      5  C   UNL     1      29.223  15.075   0.234  0.00  0.00    +0.152 C 
BRANCH   5   6
ATOM      6  C   UNL     1      30.749  14.921   0.073  0.00  0.00    +0.193 C 
ATOM      7  O   UNL     1      31.236  16.163  -0.482  0.00  0.00    -0.219 OA
BRANCH   6   8
ATOM      8  C   UNL     1      31.587  14.717   1.354  0.00  0.00    +0.212 C 
ATOM      9  O   UNL     1      31.366  15.797   2.275  0.00  0.00    -0.218 OA
BRANCH   8  10
ATOM     10  C   UNL     1      31.282  13.357   2.090  0.00  0.00    +0.171 C 
ATOM     11  O   UNL     1      29.918  13.239   2.479  0.00  0.00    -0.343 OA
ATOM     12  C   UNL     1      29.428  12.261   3.349  0.00  0.00    +0.220 C 
ATOM     13  C   UNL     1      30.252  12.189   4.646  0.00  0.00    +0.076 C 
ATOM     14  C   UNL     1      31.728  12.021   4.249  0.00  0.00    +0.177 C 
ATOM     15  O   UNL     1      32.531  11.908   5.415  0.00  0.00    -0.221 OA
ATOM     16  C   UNL     1      32.185  13.219   3.359  0.00  0.00    +0.155 C 
BRANCH  16  17
ATOM     17  N   UNL     1      33.588  13.066   2.985  0.00  0.00    -0.202 NA
ATOM     18  C   UNL     1      34.675  13.775   3.385  0.00  0.00    +0.242 C 
ATOM     19  C   UNL     1      36.042  13.223   3.076  0.00  0.00    +0.096 C 
ATOM     20  O   UNL     1      34.521  14.837   3.984  0.00  0.00    -0.273 OA
ENDBRANCH  16  17
BRANCH  12  21
ATOM     21  C   UNL     1      29.272  10.799   2.658  0.00  0.00    +0.391 C 
ATOM     22  O   UNL     1      28.769  11.046   1.433  0.00  0.00    -0.243 OA
ATOM     23  O   UNL     1      29.967   9.951   3.426  0.00  0.00    -0.243 OA
ENDBRANCH  12  21
ENDBRANCH   8  10
ENDBRANCH   6   8
ENDBRANCH   5   6
ENDBRANCH   2   5
BRANCH   1  24
ATOM     24  O   UNL     1      27.618  16.778  -1.963  0.00  0.00    -0.450 OA
BRANCH  24  25
ATOM     25  C   UNL     1      26.766  15.812  -2.533  0.00  0.00    +0.240 C 
BRANCH  25  26
ATOM     26  C   UNL     1      25.711  16.301  -3.543  0.00  0.00    +0.100 C 
BRANCH  26  28
ATOM     27  N   UNL     1      24.296  14.466  -4.421  0.00  0.00    -0.134 NA
ATOM     28  C   UNL     1      24.513  15.443  -3.488  0.00  0.00    +0.086 A 
ATOM     29  C   UNL     1      23.489  15.423  -2.569  0.00  0.00    +0.134 A 
ATOM     30  N   UNL     1      22.731  14.348  -2.937  0.00  0.00    -0.247 N 
ATOM     31  N   UNL     1      23.194  13.807  -4.082  0.00  0.00    -0.065 NA
BRANCH  30  32
ATOM     32  C   UNL     1      21.624  13.694  -2.253  0.00  0.00    +0.180 C 
BRANCH  32  33
ATOM     33  C   UNL     1      22.052  12.851  -1.074  0.00  0.00    -0.022 A 
ATOM     34  C   UNL     1      23.397  12.469  -0.930  0.00  0.00    +0.055 A 
ATOM     35  C   UNL     1      23.761  11.800   0.219  0.00  0.00    +0.167 A 
ATOM     36  O   UNL     1      25.023  11.409   0.542  0.00  0.00    -0.453 OA
ATOM     37  C   UNL     1      24.811  10.895   1.874  0.00  0.00    +0.466 C 
ATOM     38  O   UNL     1      23.420  10.851   2.256  0.00  0.00    -0.453 OA
ATOM     39  C   UNL     1      22.849  11.481   1.194  0.00  0.00    +0.166 A 
ATOM     40  C   UNL     1      21.515  11.807   1.072  0.00  0.00    +0.050 A 
ATOM     41  C   UNL     1      21.116  12.506  -0.071  0.00  0.00    +0.009 A 
ENDBRANCH  32  33
ENDBRANCH  30  32
ENDBRANCH  26  28
ENDBRANCH  25  26
ENDBRANCH  24  25
ENDBRANCH   1  24
TORSDOF 12
