REMARK VINA RESULT:    -6.330      3.161      9.606
REMARK INTER + INTRA:         -13.867
REMARK INTER:                 -11.406
REMARK INTRA:                  -2.460
REMARK UNBOUND:                -2.911
REMARK  Name = lig_assembled_23.pdb
REMARK  13 active torsions:
REMARK  status: ('A' for Active; 'I' for Inactive)
REMARK    1  A    between atoms: _2  and  _9
REMARK    2  A    between atoms: _3  and  _44
REMARK    3  A    between atoms: _6  and  _7
REMARK    4  A    between atoms: _6  and  _16
REMARK    5  A    between atoms: _11  and  _44
REMARK    6  A    between atoms: _16  and  _18
REMARK    7  A    between atoms: _17  and  _22
REMARK    8  A    between atoms: _18  and  _21
REMARK    9  A    between atoms: _26  and  _36
REMARK   10  A    between atoms: _28  and  _29
REMARK   11  A    between atoms: _30  and  _32
REMARK   12  A    between atoms: _32  and  _34
REMARK   13  A    between atoms: _34  and  _36
REMARK                            x       y       z     vdW  Elec       q    Type
REMARK                         _______ _______ _______ _____ _____    ______ ____
ROOT
ATOM      1  C   UNL     1      25.180  14.958  -4.069  0.00  0.00    +0.400 C 
ATOM      2  N   UNL     1      25.587  13.777  -3.494  0.00  0.00    -0.278 N 
ATOM      3  H   UNL     1      24.679  13.361  -3.114  0.00  0.00    +0.152 HD
ATOM      4  O   UNL     1      23.974  15.162  -4.180  0.00  0.00    -0.226 OA
ENDROOT
BRANCH   2   5
ATOM      5  C   UNL     1      26.676  12.852  -3.189  0.00  0.00    +0.152 C 
BRANCH   5   6
ATOM      6  C   UNL     1      26.295  11.600  -2.373  0.00  0.00    +0.193 C 
ATOM      7  O   UNL     1      27.532  10.953  -2.002  0.00  0.00    -0.219 OA
BRANCH   6   8
ATOM      8  C   UNL     1      25.558  11.817  -1.033  0.00  0.00    +0.212 C 
ATOM      9  O   UNL     1      25.835  13.128  -0.514  0.00  0.00    -0.218 OA
BRANCH   8  10
ATOM     10  C   UNL     1      23.995  11.640  -1.144  0.00  0.00    +0.171 C 
ATOM     11  O   UNL     1      23.394  12.604  -2.001  0.00  0.00    -0.343 OA
ATOM     12  C   UNL     1      22.018  12.831  -2.089  0.00  0.00    +0.220 C 
ATOM     13  C   UNL     1      21.383  13.035  -0.703  0.00  0.00    +0.076 C 
ATOM     14  C   UNL     1      21.787  11.836   0.171  0.00  0.00    +0.177 C 
ATOM     15  O   UNL     1      21.192  11.954   1.456  0.00  0.00    -0.221 OA
ATOM     16  C   UNL     1      23.341  11.743   0.273  0.00  0.00    +0.155 C 
BRANCH  16  17
ATOM     17  N   UNL     1      23.728  10.610   1.108  0.00  0.00    -0.202 NA
ATOM     18  C   UNL     1      24.376  10.592   2.301  0.00  0.00    +0.242 C 
ATOM     19  C   UNL     1      24.389   9.308   3.089  0.00  0.00    +0.096 C 
ATOM     20  O   UNL     1      24.931  11.611   2.707  0.00  0.00    -0.273 OA
ENDBRANCH  16  17
BRANCH  12  21
ATOM     21  C   UNL     1      21.230  11.699  -2.947  0.00  0.00    +0.391 C 
ATOM     22  O   UNL     1      19.928  12.035  -2.853  0.00  0.00    -0.243 OA
ATOM     23  O   UNL     1      22.164  11.054  -3.656  0.00  0.00    -0.243 OA
ENDBRANCH  12  21
ENDBRANCH   8  10
ENDBRANCH   6   8
ENDBRANCH   5   6
ENDBRANCH   2   5
BRANCH   1  24
ATOM     24  O   UNL     1      26.127  15.768  -4.414  0.00  0.00    -0.450 OA
BRANCH  24  25
ATOM     25  C   UNL     1      26.995  16.709  -3.827  0.00  0.00    +0.240 C 
BRANCH  25  26
ATOM     26  C   UNL     1      26.733  17.099  -2.360  0.00  0.00    +0.100 C 
BRANCH  26  28
ATOM     27  N   UNL     1      28.840  17.738  -1.235  0.00  0.00    -0.134 NA
ATOM     28  C   UNL     1      27.911  16.784  -1.530  0.00  0.00    +0.086 A 
ATOM     29  C   UNL     1      28.283  15.597  -0.942  0.00  0.00    +0.139 A 
ATOM     30  N   UNL     1      29.457  15.881  -0.280  0.00  0.00    -0.220 N 
ATOM     31  N   UNL     1      29.777  17.182  -0.480  0.00  0.00    -0.061 NA
BRANCH  30  32
ATOM     32  C   UNL     1      30.274  15.019   0.495  0.00  0.00    +0.069 A 
ATOM     33  C   UNL     1      31.616  14.833   0.134  0.00  0.00    +0.056 A 
ATOM     34  C   UNL     1      32.415  13.956   0.877  0.00  0.00    +0.107 A 
ATOM     35  C   UNL     1      31.903  13.283   1.988  0.00  0.00    +0.028 A 
ATOM     36  C   UNL     1      30.572  13.481   2.354  0.00  0.00    +0.004 A 
ATOM     37  C   UNL     1      29.757  14.341   1.610  0.00  0.00    +0.028 A 
BRANCH  34  38
ATOM     38  S   UNL     1      34.088  13.688   0.373  0.00  0.00    +0.056 S 
ATOM     39  O   UNL     1      34.344  12.268   0.345  0.00  0.00    -0.153 OA
ATOM     40  O   UNL     1      34.397  14.559  -0.737  0.00  0.00    -0.153 OA
BRANCH  38  41
ATOM     41  N   UNL     1      34.948  14.306   1.675  0.00  0.00    -0.204 NA
ATOM     42  H   UNL     1      34.759  13.754   2.512  0.00  0.00    +0.144 HD
ATOM     43  H   UNL     1      34.755  15.302   1.781  0.00  0.00    +0.144 HD
ENDBRANCH  38  41
ENDBRANCH  34  38
ENDBRANCH  30  32
ENDBRANCH  26  28
ENDBRANCH  25  26
ENDBRANCH  24  25
ENDBRANCH   1  24
TORSDOF 13
