REMARK VINA RESULT:    -6.479      2.068      3.607
REMARK INTER + INTRA:         -16.981
REMARK INTER:                 -12.968
REMARK INTRA:                  -4.013
REMARK UNBOUND:                -2.358
REMARK  Name = lig_assembled_30.pdb
REMARK  22 active torsions:
REMARK  status: ('A' for Active; 'I' for Inactive)
REMARK    1  A    between atoms: _2  and  _8
REMARK    2  A    between atoms: _4  and  _17
REMARK    3  A    between atoms: _4  and  _18
REMARK    4  A    between atoms: _5  and  _6
REMARK    5  A    between atoms: _5  and  _20
REMARK    6  A    between atoms: _8  and  _9
REMARK    7  A    between atoms: _9  and  _10
REMARK    8  A    between atoms: _10  and  _11
REMARK    9  A    between atoms: _11  and  _12
REMARK   10  A    between atoms: _12  and  _13
REMARK   11  A    between atoms: _13  and  _14
REMARK   12  A    between atoms: _14  and  _15
REMARK   13  A    between atoms: _15  and  _16
REMARK   14  A    between atoms: _16  and  _17
REMARK   15  A    between atoms: _20  and  _22
REMARK   16  A    between atoms: _21  and  _26
REMARK   17  A    between atoms: _22  and  _25
REMARK   18  A    between atoms: _30  and  _40
REMARK   19  A    between atoms: _32  and  _33
REMARK   20  A    between atoms: _34  and  _36
REMARK   21  A    between atoms: _36  and  _38
REMARK   22  A    between atoms: _38  and  _40
REMARK                            x       y       z     vdW  Elec       q    Type
REMARK                         _______ _______ _______ _____ _____    ______ ____
ROOT
ATOM      1  C   UNL     1      27.798  16.941  -1.538  0.00  0.00    +0.400 C 
ATOM      2  N   UNL     1      27.917  15.620  -1.176  0.00  0.00    -0.278 N 
ATOM      3  H   UNL     1      28.204  15.670  -0.148  0.00  0.00    +0.152 HD
ATOM      4  O   UNL     1      27.851  17.791  -0.653  0.00  0.00    -0.226 OA
ENDROOT
BRANCH   1   5
ATOM      5  O   UNL     1      27.670  17.165  -2.804  0.00  0.00    -0.450 OA
BRANCH   5   6
ATOM      6  C   UNL     1      26.656  17.233  -3.780  0.00  0.00    +0.240 C 
BRANCH   6   7
ATOM      7  C   UNL     1      26.204  15.911  -4.429  0.00  0.00    +0.100 C 
BRANCH   7   9
ATOM      8  N   UNL     1      24.683  15.635  -2.495  0.00  0.00    -0.134 NA
ATOM      9  C   UNL     1      24.937  15.454  -3.830  0.00  0.00    +0.086 A 
ATOM     10  C   UNL     1      23.862  14.818  -4.411  0.00  0.00    +0.133 A 
ATOM     11  N   UNL     1      22.992  14.642  -3.379  0.00  0.00    -0.251 N 
ATOM     12  N   UNL     1      23.487  15.129  -2.229  0.00  0.00    -0.065 NA
BRANCH  11  13
ATOM     13  C   UNL     1      21.704  13.983  -3.405  0.00  0.00    +0.145 C 
BRANCH  13  14
ATOM     14  C   UNL     1      20.739  14.620  -2.411  0.00  0.00    +0.023 C 
BRANCH  14  15
ATOM     15  C   UNL     1      20.484  13.718  -1.205  0.00  0.00    +0.002 C 
BRANCH  15  16
ATOM     16  C   UNL     1      20.982  12.301  -1.492  0.00  0.00    +0.000 C 
BRANCH  16  17
ATOM     17  C   UNL     1      21.539  11.632  -0.239  0.00  0.00    +0.000 C 
BRANCH  17  18
ATOM     18  C   UNL     1      20.923  12.243   1.021  0.00  0.00    +0.000 C 
BRANCH  18  19
ATOM     19  C   UNL     1      21.690  11.812   2.267  0.00  0.00    +0.000 C 
BRANCH  19  20
ATOM     20  C   UNL     1      22.125  10.348   2.183  0.00  0.00    +0.001 C 
BRANCH  20  21
ATOM     21  C   UNL     1      23.618  10.217   2.481  0.00  0.00    +0.011 C 
BRANCH  21  22
ATOM     22  C   UNL     1      24.386   9.633   1.298  0.00  0.00    +0.120 C 
BRANCH  22  23
ATOM     23  C   UNL     1      25.119  10.710   0.530  0.00  0.00    +0.305 C 
ATOM     24  O   UNL     1      24.920  11.910   0.628  0.00  0.00    -0.251 OA
BRANCH  23  25
ATOM     25  O   UNL     1      26.050  10.200  -0.308  0.00  0.00    -0.481 OA
ATOM     26  H   UNL     1      25.865  10.371  -1.251  0.00  0.00    +0.295 HD
ENDBRANCH  23  25
ENDBRANCH  22  23
ENDBRANCH  21  22
ENDBRANCH  20  21
ENDBRANCH  19  20
ENDBRANCH  18  19
ENDBRANCH  17  18
ENDBRANCH  16  17
ENDBRANCH  15  16
ENDBRANCH  14  15
ENDBRANCH  13  14
ENDBRANCH  11  13
ENDBRANCH   7   9
ENDBRANCH   6   7
ENDBRANCH   5   6
ENDBRANCH   1   5
BRANCH   2  27
ATOM     27  C   UNL     1      27.815  14.212  -1.553  0.00  0.00    +0.152 C 
BRANCH  27  28
ATOM     28  C   UNL     1      27.943  13.190  -0.405  0.00  0.00    +0.193 C 
ATOM     29  O   UNL     1      28.350  11.941  -1.005  0.00  0.00    -0.219 OA
BRANCH  28  30
ATOM     30  C   UNL     1      29.009  13.462   0.679  0.00  0.00    +0.212 C 
ATOM     31  O   UNL     1      28.744  14.709   1.342  0.00  0.00    -0.218 OA
BRANCH  30  32
ATOM     32  C   UNL     1      29.100  12.324   1.765  0.00  0.00    +0.171 C 
ATOM     33  O   UNL     1      27.825  11.956   2.281  0.00  0.00    -0.343 OA
ATOM     34  C   UNL     1      27.633  11.159   3.412  0.00  0.00    +0.220 C 
ATOM     35  C   UNL     1      28.451  11.666   4.613  0.00  0.00    +0.076 C 
ATOM     36  C   UNL     1      29.913  11.796   4.154  0.00  0.00    +0.177 C 
ATOM     37  O   UNL     1      30.722  12.224   5.241  0.00  0.00    -0.221 OA
ATOM     38  C   UNL     1      30.012  12.783   2.950  0.00  0.00    +0.155 C 
BRANCH  38  39
ATOM     39  N   UNL     1      31.401  12.915   2.516  0.00  0.00    -0.202 NA
ATOM     40  C   UNL     1      32.192  14.017   2.462  0.00  0.00    +0.242 C 
ATOM     41  C   UNL     1      33.672  13.825   2.256  0.00  0.00    +0.096 C 
ATOM     42  O   UNL     1      31.690  15.132   2.583  0.00  0.00    -0.273 OA
ENDBRANCH  38  39
BRANCH  34  43
ATOM     43  C   UNL     1      27.887   9.578   3.141  0.00  0.00    +0.391 C 
ATOM     44  O   UNL     1      27.627   8.977   4.318  0.00  0.00    -0.243 OA
ATOM     45  O   UNL     1      27.959   9.438   1.811  0.00  0.00    -0.243 OA
ENDBRANCH  34  43
ENDBRANCH  30  32
ENDBRANCH  28  30
ENDBRANCH  27  28
ENDBRANCH   2  27
TORSDOF 22
