REMARK VINA RESULT:    -6.977      1.636      2.920
REMARK INTER + INTRA:         -13.074
REMARK INTER:                 -11.872
REMARK INTRA:                  -1.202
REMARK UNBOUND:                -1.202
REMARK  Name = lig_assembled_38.pdb
REMARK  12 active torsions:
REMARK  status: ('A' for Active; 'I' for Inactive)
REMARK    1  A    between atoms: _2  and  _8
REMARK    2  A    between atoms: _5  and  _6
REMARK    3  A    between atoms: _5  and  _14
REMARK    4  A    between atoms: _8  and  _9
REMARK    5  A    between atoms: _14  and  _16
REMARK    6  A    between atoms: _15  and  _20
REMARK    7  A    between atoms: _16  and  _19
REMARK    8  A    between atoms: _24  and  _34
REMARK    9  A    between atoms: _26  and  _27
REMARK   10  A    between atoms: _28  and  _30
REMARK   11  A    between atoms: _30  and  _32
REMARK   12  A    between atoms: _32  and  _34
REMARK                            x       y       z     vdW  Elec       q    Type
REMARK                         _______ _______ _______ _____ _____    ______ ____
ROOT
ATOM      1  C   UNL     1      27.909  17.525  -0.786  0.00  0.00    +0.400 C 
ATOM      2  N   UNL     1      28.795  16.755  -0.070  0.00  0.00    -0.278 N 
ATOM      3  H   UNL     1      28.946  17.319   0.825  0.00  0.00    +0.152 HD
ATOM      4  O   UNL     1      27.393  18.488  -0.224  0.00  0.00    -0.226 OA
ENDROOT
BRANCH   2   5
ATOM      5  C   UNL     1      29.591  15.533   0.021  0.00  0.00    +0.152 C 
BRANCH   5   6
ATOM      6  C   UNL     1      31.114  15.725   0.167  0.00  0.00    +0.193 C 
ATOM      7  O   UNL     1      31.381  15.868   1.579  0.00  0.00    -0.219 OA
BRANCH   6   8
ATOM      8  C   UNL     1      32.027  14.563  -0.282  0.00  0.00    +0.212 C 
ATOM      9  O   UNL     1      32.967  15.015  -1.271  0.00  0.00    -0.218 OA
BRANCH   8  10
ATOM     10  C   UNL     1      32.826  13.901   0.906  0.00  0.00    +0.171 C 
ATOM     11  O   UNL     1      34.229  13.863   0.668  0.00  0.00    -0.343 OA
ATOM     12  C   UNL     1      35.137  13.125   1.431  0.00  0.00    +0.220 C 
ATOM     13  C   UNL     1      34.690  11.662   1.593  0.00  0.00    +0.076 C 
ATOM     14  C   UNL     1      33.251  11.675   2.135  0.00  0.00    +0.177 C 
ATOM     15  O   UNL     1      32.801  10.344   2.341  0.00  0.00    -0.221 OA
ATOM     16  C   UNL     1      32.314  12.444   1.152  0.00  0.00    +0.155 C 
BRANCH  16  17
ATOM     17  N   UNL     1      30.944  12.454   1.660  0.00  0.00    -0.202 NA
ATOM     18  C   UNL     1      30.462  12.902   2.847  0.00  0.00    +0.242 C 
ATOM     19  C   UNL     1      28.972  13.064   2.998  0.00  0.00    +0.096 C 
ATOM     20  O   UNL     1      31.242  13.163   3.760  0.00  0.00    -0.273 OA
ENDBRANCH  16  17
BRANCH  12  21
ATOM     21  C   UNL     1      35.483  13.806   2.865  0.00  0.00    +0.391 C 
ATOM     22  O   UNL     1      34.394  14.537   3.173  0.00  0.00    -0.243 OA
ATOM     23  O   UNL     1      36.559  13.161   3.331  0.00  0.00    -0.243 OA
ENDBRANCH  12  21
ENDBRANCH   8  10
ENDBRANCH   6   8
ENDBRANCH   5   6
ENDBRANCH   2   5
BRANCH   1  24
ATOM     24  O   UNL     1      27.726  17.171  -2.016  0.00  0.00    -0.450 OA
BRANCH  24  25
ATOM     25  C   UNL     1      26.979  17.568  -3.142  0.00  0.00    +0.240 C 
BRANCH  25  26
ATOM     26  C   UNL     1      26.477  16.461  -4.088  0.00  0.00    +0.100 C 
BRANCH  26  28
ATOM     27  N   UNL     1      24.620  15.540  -2.732  0.00  0.00    -0.134 NA
ATOM     28  C   UNL     1      25.847  15.371  -3.316  0.00  0.00    +0.086 A 
ATOM     29  C   UNL     1      26.288  14.089  -3.077  0.00  0.00    +0.134 A 
ATOM     30  N   UNL     1      25.260  13.509  -2.391  0.00  0.00    -0.247 N 
ATOM     31  N   UNL     1      24.265  14.390  -2.175  0.00  0.00    -0.065 NA
BRANCH  30  32
ATOM     32  C   UNL     1      25.058  12.096  -2.126  0.00  0.00    +0.180 C 
BRANCH  32  33
ATOM     33  C   UNL     1      24.990  11.764  -0.656  0.00  0.00    -0.025 A 
ATOM     34  C   UNL     1      26.145  11.776   0.140  0.00  0.00    +0.005 A 
ATOM     35  C   UNL     1      26.063  11.556   1.518  0.00  0.00    +0.001 A 
ATOM     36  C   UNL     1      24.826  11.320   2.117  0.00  0.00    +0.015 A 
ATOM     37  C   UNL     1      23.676  11.295   1.333  0.00  0.00    +0.018 A 
ATOM     38 BR   UNL     1      21.995  10.985   2.141  0.00  0.00    -0.050 Br
ATOM     39  C   UNL     1      23.750  11.515  -0.044  0.00  0.00    +0.020 A 
ENDBRANCH  32  33
ENDBRANCH  30  32
ENDBRANCH  26  28
ENDBRANCH  25  26
ENDBRANCH  24  25
ENDBRANCH   1  24
TORSDOF 12
