REMARK VINA RESULT:    -6.039      3.059      4.331
REMARK INTER + INTRA:         -12.912
REMARK INTER:                 -10.981
REMARK INTRA:                  -1.931
REMARK UNBOUND:                -1.931
REMARK  Name = lig_assembled_55.pdb
REMARK  15 active torsions:
REMARK  status: ('A' for Active; 'I' for Inactive)
REMARK    1  A    between atoms: _2  and  _9
REMARK    2  A    between atoms: _3  and  _10
REMARK    3  A    between atoms: _3  and  _41
REMARK    4  A    between atoms: _5  and  _41
REMARK    5  A    between atoms: _6  and  _7
REMARK    6  A    between atoms: _6  and  _13
REMARK    7  A    between atoms: _9  and  _10
REMARK    8  A    between atoms: _13  and  _15
REMARK    9  A    between atoms: _14  and  _19
REMARK   10  A    between atoms: _15  and  _18
REMARK   11  A    between atoms: _23  and  _33
REMARK   12  A    between atoms: _25  and  _26
REMARK   13  A    between atoms: _27  and  _29
REMARK   14  A    between atoms: _29  and  _31
REMARK   15  A    between atoms: _31  and  _33
REMARK                            x       y       z     vdW  Elec       q    Type
REMARK                         _______ _______ _______ _____ _____    ______ ____
ROOT
ATOM      1  C   UNL     1      30.904  16.051   0.470  0.00  0.00    +0.400 C 
ATOM      2  N   UNL     1      31.495  14.859   0.124  0.00  0.00    -0.278 N 
ATOM      3  H   UNL     1      32.211  14.703   0.903  0.00  0.00    +0.152 HD
ATOM      4  O   UNL     1      31.159  16.526   1.574  0.00  0.00    -0.226 OA
ENDROOT
BRANCH   2   5
ATOM      5  C   UNL     1      31.573  13.730  -0.800  0.00  0.00    +0.152 C 
BRANCH   5   6
ATOM      6  C   UNL     1      32.826  13.672  -1.697  0.00  0.00    +0.193 C 
ATOM      7  O   UNL     1      33.330  15.022  -1.796  0.00  0.00    -0.219 OA
BRANCH   6   8
ATOM      8  C   UNL     1      34.030  12.847  -1.192  0.00  0.00    +0.212 C 
ATOM      9  O   UNL     1      35.263  13.436  -1.635  0.00  0.00    -0.218 OA
BRANCH   8  10
ATOM     10  C   UNL     1      34.074  12.705   0.378  0.00  0.00    +0.171 C 
ATOM     11  O   UNL     1      34.452  13.915   1.027  0.00  0.00    -0.343 OA
ATOM     12  C   UNL     1      34.804  14.010   2.375  0.00  0.00    +0.220 C 
ATOM     13  C   UNL     1      35.867  12.966   2.762  0.00  0.00    +0.076 C 
ATOM     14  C   UNL     1      35.342  11.588   2.325  0.00  0.00    +0.177 C 
ATOM     15  O   UNL     1      36.271  10.580   2.696  0.00  0.00    -0.221 OA
ATOM     16  C   UNL     1      35.077  11.577   0.787  0.00  0.00    +0.155 C 
BRANCH  16  17
ATOM     17  N   UNL     1      34.585  10.268   0.367  0.00  0.00    -0.202 NA
ATOM     18  C   UNL     1      35.091   9.404  -0.550  0.00  0.00    +0.242 C 
ATOM     19  C   UNL     1      34.556   7.996  -0.578  0.00  0.00    +0.096 C 
ATOM     20  O   UNL     1      35.965   9.785  -1.326  0.00  0.00    -0.273 OA
ENDBRANCH  16  17
BRANCH  12  21
ATOM     21  C   UNL     1      33.529  13.965   3.381  0.00  0.00    +0.391 C 
ATOM     22  O   UNL     1      32.479  13.653   2.598  0.00  0.00    -0.243 OA
ATOM     23  O   UNL     1      34.036  13.953   4.620  0.00  0.00    -0.243 OA
ENDBRANCH  12  21
ENDBRANCH   8  10
ENDBRANCH   6   8
ENDBRANCH   5   6
ENDBRANCH   2   5
BRANCH   1  24
ATOM     24  O   UNL     1      30.145  16.582  -0.432  0.00  0.00    -0.450 OA
BRANCH  24  25
ATOM     25  C   UNL     1      29.367  17.740  -0.627  0.00  0.00    +0.240 C 
BRANCH  25  26
ATOM     26  C   UNL     1      27.835  17.582  -0.594  0.00  0.00    +0.100 C 
BRANCH  26  28
ATOM     27  N   UNL     1      27.022  17.759  -2.923  0.00  0.00    -0.134 NA
ATOM     28  C   UNL     1      27.353  16.976  -1.849  0.00  0.00    +0.086 A 
ATOM     29  C   UNL     1      27.153  15.653  -2.178  0.00  0.00    +0.133 A 
ATOM     30  N   UNL     1      26.681  15.700  -3.456  0.00  0.00    -0.250 N 
ATOM     31  N   UNL     1      26.606  16.967  -3.900  0.00  0.00    -0.065 NA
BRANCH  30  32
ATOM     32  C   UNL     1      26.313  14.595  -4.314  0.00  0.00    +0.162 C 
BRANCH  32  33
ATOM     33  C   UNL     1      24.961  14.779  -5.013  0.00  0.00    +0.129 C 
BRANCH  33  34
ATOM     34  N   UNL     1      23.987  15.594  -4.230  0.00  0.00    -0.193 NA
ATOM     35  H   UNL     1      23.463  16.222  -4.850  0.00  0.00    +0.148 HD
BRANCH  34  36
ATOM     36  S   UNL     1      22.994  14.744  -3.165  0.00  0.00    +0.027 S 
ATOM     37  O   UNL     1      22.844  13.412  -3.709  0.00  0.00    -0.158 OA
ATOM     38  O   UNL     1      23.501  14.958  -1.828  0.00  0.00    -0.158 OA
ATOM     39  C   UNL     1      21.449  15.603  -3.357  0.00  0.00    +0.214 C 
ENDBRANCH  34  36
ENDBRANCH  33  34
ENDBRANCH  32  33
ENDBRANCH  30  32
ENDBRANCH  26  28
ENDBRANCH  25  26
ENDBRANCH  24  25
ENDBRANCH   1  24
TORSDOF 14
