REMARK VINA RESULT:    -6.068      1.731      3.119
REMARK INTER + INTRA:         -13.196
REMARK INTER:                 -11.859
REMARK INTRA:                  -1.337
REMARK UNBOUND:                -1.808
REMARK  Name = lig_assembled_43.pdb
REMARK  15 active torsions:
REMARK  status: ('A' for Active; 'I' for Inactive)
REMARK    1  A    between atoms: _2  and  _8
REMARK    2  A    between atoms: _5  and  _6
REMARK    3  A    between atoms: _5  and  _13
REMARK    4  A    between atoms: _8  and  _9
REMARK    5  A    between atoms: _9  and  _10
REMARK    6  A    between atoms: _10  and  _11
REMARK    7  A    between atoms: _11  and  _12
REMARK    8  A    between atoms: _13  and  _15
REMARK    9  A    between atoms: _14  and  _19
REMARK   10  A    between atoms: _15  and  _18
REMARK   11  A    between atoms: _23  and  _33
REMARK   12  A    between atoms: _25  and  _26
REMARK   13  A    between atoms: _27  and  _29
REMARK   14  A    between atoms: _29  and  _31
REMARK   15  A    between atoms: _31  and  _33
REMARK                            x       y       z     vdW  Elec       q    Type
REMARK                         _______ _______ _______ _____ _____    ______ ____
ROOT
ATOM      1  C   UNL     1      28.921  15.518  -0.219  0.00  0.00    +0.152 C 
ENDROOT
BRANCH   1   3
ATOM      2  C   UNL     1      27.587  17.580  -1.408  0.00  0.00    +0.400 C 
ATOM      3  N   UNL     1      28.439  16.835  -0.627  0.00  0.00    -0.278 N 
ATOM      4  H   UNL     1      28.973  17.574  -0.069  0.00  0.00    +0.152 HD
ATOM      5  O   UNL     1      27.496  18.783  -1.180  0.00  0.00    -0.226 OA
BRANCH   2   6
ATOM      6  O   UNL     1      26.975  16.932  -2.344  0.00  0.00    -0.450 OA
BRANCH   6   7
ATOM      7  C   UNL     1      26.801  16.984  -3.741  0.00  0.00    +0.240 C 
BRANCH   7   8
ATOM      8  C   UNL     1      26.110  15.784  -4.416  0.00  0.00    +0.100 C 
BRANCH   8  10
ATOM      9  N   UNL     1      23.865  15.981  -3.392  0.00  0.00    -0.134 NA
ATOM     10  C   UNL     1      25.024  15.270  -3.562  0.00  0.00    +0.086 A 
ATOM     11  C   UNL     1      24.950  14.107  -2.829  0.00  0.00    +0.133 A 
ATOM     12  N   UNL     1      23.726  14.173  -2.235  0.00  0.00    -0.251 N 
ATOM     13  N   UNL     1      23.075  15.297  -2.574  0.00  0.00    -0.065 NA
BRANCH  12  14
ATOM     14  C   UNL     1      23.129  13.228  -1.316  0.00  0.00    +0.145 C 
BRANCH  14  15
ATOM     15  C   UNL     1      21.605  13.286  -1.367  0.00  0.00    +0.024 C 
BRANCH  15  16
ATOM     16  C   UNL     1      20.960  12.453  -0.258  0.00  0.00    +0.006 C 
BRANCH  16  17
ATOM     17  C   UNL     1      21.696  11.121  -0.091  0.00  0.00    +0.026 C 
BRANCH  17  18
ATOM     18  C   UNL     1      21.877  10.756   1.353  0.00  0.00    -0.034 C 
ATOM     19  C   UNL     1      21.731  11.622   2.365  0.00  0.00    +0.004 C 
ENDBRANCH  17  18
ENDBRANCH  16  17
ENDBRANCH  15  16
ENDBRANCH  14  15
ENDBRANCH  12  14
ENDBRANCH   8  10
ENDBRANCH   7   8
ENDBRANCH   6   7
ENDBRANCH   2   6
ENDBRANCH   1   3
BRANCH   1  20
ATOM     20  C   UNL     1      30.451  15.361  -0.101  0.00  0.00    +0.193 C 
ATOM     21  O   UNL     1      30.869  16.184   1.010  0.00  0.00    -0.219 OA
BRANCH  20  22
ATOM     22  C   UNL     1      31.002  13.956   0.231  0.00  0.00    +0.212 C 
ATOM     23  O   UNL     1      32.024  13.583  -0.707  0.00  0.00    -0.218 OA
BRANCH  22  24
ATOM     24  C   UNL     1      31.592  13.846   1.689  0.00  0.00    +0.171 C 
ATOM     25  O   UNL     1      33.002  13.652   1.696  0.00  0.00    -0.343 OA
ATOM     26  C   UNL     1      33.741  13.282   2.823  0.00  0.00    +0.220 C 
ATOM     27  C   UNL     1      33.136  12.055   3.525  0.00  0.00    +0.076 C 
ATOM     28  C   UNL     1      31.653  12.361   3.795  0.00  0.00    +0.177 C 
ATOM     29  O   UNL     1      31.054  11.271   4.481  0.00  0.00    -0.221 OA
ATOM     30  C   UNL     1      30.914  12.663   2.455  0.00  0.00    +0.155 C 
BRANCH  30  31
ATOM     31  N   UNL     1      29.504  12.948   2.707  0.00  0.00    -0.202 NA
ATOM     32  C   UNL     1      28.397  12.276   2.300  0.00  0.00    +0.242 C 
ATOM     33  C   UNL     1      27.077  12.614   2.945  0.00  0.00    +0.096 C 
ATOM     34  O   UNL     1      28.495  11.415   1.427  0.00  0.00    -0.273 OA
ENDBRANCH  30  31
BRANCH  26  35
ATOM     35  C   UNL     1      33.988  14.505   3.864  0.00  0.00    +0.391 C 
ATOM     36  O   UNL     1      33.267  15.531   3.372  0.00  0.00    -0.243 OA
ATOM     37  O   UNL     1      34.551  13.959   4.949  0.00  0.00    -0.243 OA
ENDBRANCH  26  35
ENDBRANCH  22  24
ENDBRANCH  20  22
ENDBRANCH   1  20
TORSDOF 15
