REMARK VINA RESULT:    -6.461      1.318      2.046
REMARK INTER + INTRA:         -14.092
REMARK INTER:                 -12.479
REMARK INTRA:                  -1.614
REMARK UNBOUND:                -1.966
REMARK  Name = lig_assembled_17.pdb
REMARK  17 active torsions:
REMARK  status: ('A' for Active; 'I' for Inactive)
REMARK    1  A    between atoms: _2  and  _9
REMARK    2  A    between atoms: _3  and  _10
REMARK    3  A    between atoms: _3  and  _11
REMARK    4  A    between atoms: _3  and  _13
REMARK    5  A    between atoms: _5  and  _13
REMARK    6  A    between atoms: _6  and  _7
REMARK    7  A    between atoms: _6  and  _14
REMARK    8  A    between atoms: _9  and  _10
REMARK    9  A    between atoms: _11  and  _12
REMARK   10  A    between atoms: _14  and  _16
REMARK   11  A    between atoms: _15  and  _20
REMARK   12  A    between atoms: _16  and  _19
REMARK   13  A    between atoms: _24  and  _34
REMARK   14  A    between atoms: _26  and  _27
REMARK   15  A    between atoms: _28  and  _30
REMARK   16  A    between atoms: _30  and  _32
REMARK   17  A    between atoms: _32  and  _34
REMARK                            x       y       z     vdW  Elec       q    Type
REMARK                         _______ _______ _______ _____ _____    ______ ____
ROOT
ATOM      1  C   UNL     1      28.168  17.030  -0.523  0.00  0.00    +0.400 C 
ATOM      2  N   UNL     1      28.601  15.927   0.173  0.00  0.00    -0.278 N 
ATOM      3  H   UNL     1      29.086  16.348   1.027  0.00  0.00    +0.152 HD
ATOM      4  O   UNL     1      28.251  18.128   0.021  0.00  0.00    -0.226 OA
ENDROOT
BRANCH   2   5
ATOM      5  C   UNL     1      28.680  14.472   0.275  0.00  0.00    +0.152 C 
BRANCH   5   6
ATOM      6  C   UNL     1      29.830  13.912   1.138  0.00  0.00    +0.193 C 
ATOM      7  O   UNL     1      30.084  12.569   0.671  0.00  0.00    -0.219 OA
BRANCH   6   8
ATOM      8  C   UNL     1      31.201  14.618   1.047  0.00  0.00    +0.212 C 
ATOM      9  O   UNL     1      31.132  15.926   1.640  0.00  0.00    -0.218 OA
BRANCH   8  10
ATOM     10  C   UNL     1      32.365  13.812   1.740  0.00  0.00    +0.171 C 
ATOM     11  O   UNL     1      32.757  14.378   2.986  0.00  0.00    -0.343 OA
ATOM     12  C   UNL     1      33.911  14.017   3.687  0.00  0.00    +0.220 C 
ATOM     13  C   UNL     1      35.159  14.053   2.788  0.00  0.00    +0.076 C 
ATOM     14  C   UNL     1      34.861  13.195   1.547  0.00  0.00    +0.177 C 
ATOM     15  O   UNL     1      36.000  13.162   0.699  0.00  0.00    -0.221 OA
ATOM     16  C   UNL     1      33.611  13.752   0.797  0.00  0.00    +0.155 C 
BRANCH  16  17
ATOM     17  N   UNL     1      33.328  12.943  -0.387  0.00  0.00    -0.202 NA
ATOM     18  C   UNL     1      33.195  13.320  -1.684  0.00  0.00    +0.242 C 
ATOM     19  C   UNL     1      33.198  12.250  -2.744  0.00  0.00    +0.096 C 
ATOM     20  O   UNL     1      33.078  14.512  -1.961  0.00  0.00    -0.273 OA
ENDBRANCH  16  17
BRANCH  12  21
ATOM     21  C   UNL     1      33.778  12.599   4.467  0.00  0.00    +0.391 C 
ATOM     22  O   UNL     1      35.040  12.262   4.794  0.00  0.00    -0.243 OA
ATOM     23  O   UNL     1      32.477  12.454   4.751  0.00  0.00    -0.243 OA
ENDBRANCH  12  21
ENDBRANCH   8  10
ENDBRANCH   6   8
ENDBRANCH   5   6
ENDBRANCH   2   5
BRANCH   1  24
ATOM     24  O   UNL     1      27.734  16.802  -1.719  0.00  0.00    -0.450 OA
BRANCH  24  25
ATOM     25  C   UNL     1      26.810  17.334  -2.640  0.00  0.00    +0.240 C 
BRANCH  25  26
ATOM     26  C   UNL     1      26.863  16.806  -4.086  0.00  0.00    +0.100 C 
BRANCH  26  28
ATOM     27  N   UNL     1      25.600  15.260  -5.544  0.00  0.00    -0.134 NA
ATOM     28  C   UNL     1      25.750  15.871  -4.328  0.00  0.00    +0.086 A 
ATOM     29  C   UNL     1      24.746  15.448  -3.484  0.00  0.00    +0.133 A 
ATOM     30  N   UNL     1      24.034  14.569  -4.242  0.00  0.00    -0.250 N 
ATOM     31  N   UNL     1      24.541  14.465  -5.482  0.00  0.00    -0.065 NA
BRANCH  30  32
ATOM     32  C   UNL     1      22.898  13.758  -3.855  0.00  0.00    +0.160 C 
BRANCH  32  33
ATOM     33  C   UNL     1      22.426  14.128  -2.441  0.00  0.00    +0.107 C 
BRANCH  33  34
ATOM     34  N   UNL     1      21.088  14.762  -2.346  0.00  0.00    -0.301 NA
BRANCH  34  35
ATOM     35  C   UNL     1      20.160  13.817  -1.689  0.00  0.00    +0.081 C 
ATOM     36  C   UNL     1      20.689  13.190  -0.403  0.00  0.00    +0.020 C 
ENDBRANCH  34  35
BRANCH  34  37
ATOM     37  C   UNL     1      20.589  15.268  -3.638  0.00  0.00    +0.081 C 
ATOM     38  C   UNL     1      20.680  16.775  -3.859  0.00  0.00    +0.020 C 
ENDBRANCH  34  37
ENDBRANCH  33  34
ENDBRANCH  32  33
ENDBRANCH  30  32
ENDBRANCH  26  28
ENDBRANCH  25  26
ENDBRANCH  24  25
ENDBRANCH   1  24
TORSDOF 15
