REMARK VINA RESULT:    -6.452      2.006      4.146
REMARK INTER + INTRA:         -14.613
REMARK INTER:                 -12.502
REMARK INTRA:                  -2.111
REMARK UNBOUND:                -2.880
REMARK  Name = lig_assembled_21.pdb
REMARK  15 active torsions:
REMARK  status: ('A' for Active; 'I' for Inactive)
REMARK    1  A    between atoms: _2  and  _8
REMARK    2  A    between atoms: _5  and  _6
REMARK    3  A    between atoms: _5  and  _18
REMARK    4  A    between atoms: _8  and  _9
REMARK    5  A    between atoms: _10  and  _17
REMARK    6  A    between atoms: _11  and  _12
REMARK    7  A    between atoms: _11  and  _17
REMARK    8  A    between atoms: _18  and  _20
REMARK    9  A    between atoms: _19  and  _24
REMARK   10  A    between atoms: _20  and  _23
REMARK   11  A    between atoms: _28  and  _38
REMARK   12  A    between atoms: _30  and  _31
REMARK   13  A    between atoms: _32  and  _34
REMARK   14  A    between atoms: _34  and  _36
REMARK   15  A    between atoms: _36  and  _38
REMARK                            x       y       z     vdW  Elec       q    Type
REMARK                         _______ _______ _______ _____ _____    ______ ____
ROOT
ATOM      1  C   UNL     1      27.530  14.103  -1.627  0.00  0.00    +0.400 C 
ATOM      2  N   UNL     1      28.263  14.946  -0.824  0.00  0.00    -0.278 N 
ATOM      3  H   UNL     1      28.823  14.275  -0.209  0.00  0.00    +0.152 HD
ATOM      4  O   UNL     1      27.792  12.904  -1.600  0.00  0.00    -0.226 OA
ENDROOT
BRANCH   2   5
ATOM      5  C   UNL     1      28.621  16.312  -0.455  0.00  0.00    +0.152 C 
BRANCH   5   6
ATOM      6  C   UNL     1      30.113  16.567  -0.157  0.00  0.00    +0.193 C 
ATOM      7  O   UNL     1      30.189  17.836   0.529  0.00  0.00    -0.219 OA
BRANCH   6   8
ATOM      8  C   UNL     1      30.834  15.576   0.783  0.00  0.00    +0.212 C 
ATOM      9  O   UNL     1      29.878  14.780   1.502  0.00  0.00    -0.218 OA
BRANCH   8  10
ATOM     10  C   UNL     1      31.828  14.611   0.030  0.00  0.00    +0.171 C 
ATOM     11  O   UNL     1      31.255  14.041  -1.142  0.00  0.00    -0.343 OA
ATOM     12  C   UNL     1      31.815  12.979  -1.856  0.00  0.00    +0.220 C 
ATOM     13  C   UNL     1      32.174  11.799  -0.936  0.00  0.00    +0.076 C 
ATOM     14  C   UNL     1      33.051  12.349   0.200  0.00  0.00    +0.177 C 
ATOM     15  O   UNL     1      33.445  11.289   1.060  0.00  0.00    -0.221 OA
ATOM     16  C   UNL     1      32.283  13.459   0.983  0.00  0.00    +0.155 C 
BRANCH  16  17
ATOM     17  N   UNL     1      33.111  13.979   2.069  0.00  0.00    -0.202 NA
ATOM     18  C   UNL     1      33.013  13.778   3.407  0.00  0.00    +0.242 C 
ATOM     19  C   UNL     1      34.170  14.191   4.279  0.00  0.00    +0.096 C 
ATOM     20  O   UNL     1      31.996  13.269   3.873  0.00  0.00    -0.273 OA
ENDBRANCH  16  17
BRANCH  12  21
ATOM     21  C   UNL     1      33.074  13.416  -2.785  0.00  0.00    +0.391 C 
ATOM     22  O   UNL     1      33.245  14.731  -2.543  0.00  0.00    -0.243 OA
ATOM     23  O   UNL     1      33.645  12.277  -3.195  0.00  0.00    -0.243 OA
ENDBRANCH  12  21
ENDBRANCH   8  10
ENDBRANCH   6   8
ENDBRANCH   5   6
ENDBRANCH   2   5
BRANCH   1  24
ATOM     24  O   UNL     1      26.596  14.665  -2.322  0.00  0.00    -0.450 OA
BRANCH  24  25
ATOM     25  C   UNL     1      25.367  14.333  -2.925  0.00  0.00    +0.240 C 
BRANCH  25  26
ATOM     26  C   UNL     1      24.409  15.490  -3.270  0.00  0.00    +0.100 C 
BRANCH  26  28
ATOM     27  N   UNL     1      21.950  15.691  -3.412  0.00  0.00    -0.134 NA
ATOM     28  C   UNL     1      23.052  15.193  -2.774  0.00  0.00    +0.086 A 
ATOM     29  C   UNL     1      22.645  14.414  -1.714  0.00  0.00    +0.134 A 
ATOM     30  N   UNL     1      21.280  14.405  -1.815  0.00  0.00    -0.247 N 
ATOM     31  N   UNL     1      20.872  15.206  -2.815  0.00  0.00    -0.065 NA
BRANCH  30  32
ATOM     32  C   UNL     1      20.368  13.582  -1.027  0.00  0.00    +0.184 C 
BRANCH  32  33
ATOM     33  C   UNL     1      20.989  12.392  -0.337  0.00  0.00    +0.016 A 
ATOM     34  C   UNL     1      21.383  11.243  -1.047  0.00  0.00    +0.137 A 
ATOM     35  C   UNL     1      21.959  10.154  -0.392  0.00  0.00    +0.047 A 
ATOM     36  C   UNL     1      22.165  10.208   0.987  0.00  0.00    +0.004 A 
ATOM     37  C   UNL     1      21.770  11.331   1.710  0.00  0.00    +0.001 A 
ATOM     38  C   UNL     1      21.189  12.417   1.053  0.00  0.00    +0.009 A 
BRANCH  34  39
ATOM     39  O   UNL     1      21.087  11.215  -2.431  0.00  0.00    -0.426 OA
BRANCH  39  40
ATOM     40  C   UNL     1      22.080  11.256  -3.412  0.00  0.00    +0.309 C 
ATOM     41  O   UNL     1      23.147  10.656  -3.411  0.00  0.00    -0.251 OA
ATOM     42  C   UNL     1      21.606  12.111  -4.550  0.00  0.00    +0.136 C 
ENDBRANCH  39  40
ENDBRANCH  34  39
ENDBRANCH  32  33
ENDBRANCH  30  32
ENDBRANCH  26  28
ENDBRANCH  25  26
ENDBRANCH  24  25
ENDBRANCH   1  24
TORSDOF 14
