REMARK VINA RESULT:    -6.536     23.278     25.781
REMARK INTER + INTRA:         -15.965
REMARK INTER:                 -12.559
REMARK INTRA:                  -3.406
REMARK UNBOUND:                -3.125
REMARK  Name = lig_assembled_47.pdb
REMARK  17 active torsions:
REMARK  status: ('A' for Active; 'I' for Inactive)
REMARK    1  A    between atoms: _2  and  _8
REMARK    2  A    between atoms: _5  and  _6
REMARK    3  A    between atoms: _5  and  _25
REMARK    4  A    between atoms: _8  and  _9
REMARK    5  A    between atoms: _9  and  _10
REMARK    6  A    between atoms: _9  and  _11
REMARK    7  A    between atoms: _10  and  _23
REMARK    8  A    between atoms: _11  and  _12
REMARK    9  A    between atoms: _11  and  _18
REMARK   10  A    between atoms: _25  and  _27
REMARK   11  A    between atoms: _26  and  _31
REMARK   12  A    between atoms: _27  and  _30
REMARK   13  A    between atoms: _35  and  _45
REMARK   14  A    between atoms: _37  and  _38
REMARK   15  A    between atoms: _39  and  _41
REMARK   16  A    between atoms: _41  and  _43
REMARK   17  A    between atoms: _43  and  _45
REMARK                            x       y       z     vdW  Elec       q    Type
REMARK                         _______ _______ _______ _____ _____    ______ ____
ROOT
ATOM      1  C   UNL     1      23.356  39.128   9.681  0.00  0.00    +0.100 C 
ENDROOT
BRANCH   1   3
ATOM      2  N   UNL     1      24.113  39.728   7.393  0.00  0.00    -0.134 NA
ATOM      3  C   UNL     1      24.416  39.378   8.684  0.00  0.00    +0.086 A 
ATOM      4  C   UNL     1      25.785  39.292   8.812  0.00  0.00    +0.133 A 
ATOM      5  N   UNL     1      26.253  39.553   7.557  0.00  0.00    -0.251 N 
ATOM      6  N   UNL     1      25.247  39.834   6.712  0.00  0.00    -0.065 NA
BRANCH   5   7
ATOM      7  C   UNL     1      27.611  39.404   7.058  0.00  0.00    +0.160 C 
BRANCH   7   8
ATOM      8  C   UNL     1      27.956  37.978   6.614  0.00  0.00    +0.131 C 
BRANCH   8   9
ATOM      9  C   UNL     1      28.433  38.051   5.171  0.00  0.00    +0.311 C 
ATOM     10  O   UNL     1      29.526  37.643   4.811  0.00  0.00    -0.251 OA
BRANCH   9  11
ATOM     11  O   UNL     1      27.544  38.495   4.258  0.00  0.00    -0.480 OA
ATOM     12  H   UNL     1      27.839  39.137   3.591  0.00  0.00    +0.295 HD
ENDBRANCH   9  11
ENDBRANCH   8   9
BRANCH   8  13
ATOM     13  C   UNL     1      28.982  37.241   7.532  0.00  0.00    +0.064 C 
BRANCH  13  14
ATOM     14  C   UNL     1      29.683  38.109   8.577  0.00  0.00    -0.039 A 
ATOM     15  C   UNL     1      30.971  38.616   8.314  0.00  0.00    +0.004 A 
ATOM     16  C   UNL     1      31.640  39.413   9.249  0.00  0.00    +0.000 A 
ATOM     17  C   UNL     1      31.044  39.706  10.471  0.00  0.00    +0.000 A 
ATOM     18  C   UNL     1      29.780  39.199  10.758  0.00  0.00    +0.000 A 
ATOM     19  C   UNL     1      29.102  38.416   9.817  0.00  0.00    +0.004 A 
ENDBRANCH  13  14
BRANCH  13  20
ATOM     20  C   UNL     1      28.345  35.980   8.131  0.00  0.00    -0.039 A 
ATOM     21  C   UNL     1      26.956  35.912   8.332  0.00  0.00    +0.004 A 
ATOM     22  C   UNL     1      26.391  34.842   9.031  0.00  0.00    +0.000 A 
ATOM     23  C   UNL     1      27.198  33.814   9.515  0.00  0.00    +0.000 A 
ATOM     24  C   UNL     1      28.568  33.846   9.290  0.00  0.00    +0.000 A 
ATOM     25  C   UNL     1      29.136  34.919   8.604  0.00  0.00    +0.004 A 
ENDBRANCH  13  20
ENDBRANCH   8  13
ENDBRANCH   7   8
ENDBRANCH   5   7
ENDBRANCH   1   3
BRANCH   1  26
ATOM     26  C   UNL     1      22.676  37.768   9.435  0.00  0.00    +0.240 C 
BRANCH  26  27
ATOM     27  O   UNL     1      23.310  36.620   9.949  0.00  0.00    -0.450 OA
BRANCH  27  28
ATOM     28  C   UNL     1      23.007  35.527  10.568  0.00  0.00    +0.400 C 
ATOM     29  N   UNL     1      23.691  35.296  11.739  0.00  0.00    -0.278 N 
ATOM     30  H   UNL     1      23.164  34.475  12.175  0.00  0.00    +0.152 HD
ATOM     31  O   UNL     1      22.158  34.709  10.223  0.00  0.00    -0.226 OA
BRANCH  29  32
ATOM     32  C   UNL     1      24.796  35.652  12.625  0.00  0.00    +0.152 C 
BRANCH  32  33
ATOM     33  C   UNL     1      24.795  34.984  14.015  0.00  0.00    +0.193 C 
ATOM     34  O   UNL     1      23.412  34.847  14.408  0.00  0.00    -0.219 OA
BRANCH  33  35
ATOM     35  C   UNL     1      25.369  33.554  14.121  0.00  0.00    +0.212 C 
ATOM     36  O   UNL     1      25.681  33.040  12.816  0.00  0.00    -0.218 OA
BRANCH  35  37
ATOM     37  C   UNL     1      26.662  33.465  15.019  0.00  0.00    +0.171 C 
ATOM     38  O   UNL     1      27.843  33.836  14.317  0.00  0.00    -0.343 OA
ATOM     39  C   UNL     1      29.141  33.620  14.788  0.00  0.00    +0.220 C 
ATOM     40  C   UNL     1      29.349  32.163  15.237  0.00  0.00    +0.076 C 
ATOM     41  C   UNL     1      28.232  31.824  16.238  0.00  0.00    +0.177 C 
ATOM     42  O   UNL     1      28.402  30.497  16.717  0.00  0.00    -0.221 OA
ATOM     43  C   UNL     1      26.835  32.011  15.569  0.00  0.00    +0.155 C 
BRANCH  43  44
ATOM     44  N   UNL     1      25.772  31.683  16.515  0.00  0.00    -0.202 NA
ATOM     45  C   UNL     1      24.896  30.646  16.510  0.00  0.00    +0.242 C 
ATOM     46  C   UNL     1      24.096  30.380  17.759  0.00  0.00    +0.096 C 
ATOM     47  O   UNL     1      24.777  29.956  15.500  0.00  0.00    -0.273 OA
ENDBRANCH  43  44
BRANCH  39  48
ATOM     48  C   UNL     1      29.595  34.671  15.940  0.00  0.00    +0.391 C 
ATOM     49  O   UNL     1      30.679  34.113  16.513  0.00  0.00    -0.243 OA
ATOM     50  O   UNL     1      28.927  35.805  15.691  0.00  0.00    -0.243 OA
ENDBRANCH  39  48
ENDBRANCH  35  37
ENDBRANCH  33  35
ENDBRANCH  32  33
ENDBRANCH  29  32
ENDBRANCH  27  28
ENDBRANCH  26  27
ENDBRANCH   1  26
TORSDOF 17
