REMARK VINA RESULT:    -5.664      1.987      2.381
REMARK INTER + INTRA:         -12.225
REMARK INTER:                 -10.464
REMARK INTRA:                  -1.760
REMARK UNBOUND:                -2.422
REMARK  Name = lig_assembled_53.pdb
REMARK  13 active torsions:
REMARK  status: ('A' for Active; 'I' for Inactive)
REMARK    1  A    between atoms: _2  and  _8
REMARK    2  A    between atoms: _4  and  _8
REMARK    3  A    between atoms: _4  and  _9
REMARK    4  A    between atoms: _5  and  _6
REMARK    5  A    between atoms: _5  and  _11
REMARK    6  A    between atoms: _11  and  _13
REMARK    7  A    between atoms: _12  and  _17
REMARK    8  A    between atoms: _13  and  _16
REMARK    9  A    between atoms: _21  and  _31
REMARK   10  A    between atoms: _23  and  _24
REMARK   11  A    between atoms: _25  and  _27
REMARK   12  A    between atoms: _27  and  _29
REMARK   13  A    between atoms: _29  and  _31
REMARK                            x       y       z     vdW  Elec       q    Type
REMARK                         _______ _______ _______ _____ _____    ______ ____
ROOT
ATOM      1  C   UNL     1      28.836  14.539  -0.335  0.00  0.00    +0.152 C 
ENDROOT
BRANCH   1   3
ATOM      2  C   UNL     1      28.206  17.163  -0.738  0.00  0.00    +0.400 C 
ATOM      3  N   UNL     1      28.633  15.977  -0.187  0.00  0.00    -0.278 N 
ATOM      4  H   UNL     1      28.941  16.259   0.796  0.00  0.00    +0.152 HD
ATOM      5  O   UNL     1      28.101  18.139  -0.000  0.00  0.00    -0.226 OA
BRANCH   2   6
ATOM      6  O   UNL     1      27.982  17.140  -2.011  0.00  0.00    -0.450 OA
BRANCH   6   7
ATOM      7  C   UNL     1      26.917  16.909  -2.904  0.00  0.00    +0.240 C 
BRANCH   7   8
ATOM      8  C   UNL     1      26.633  15.450  -3.309  0.00  0.00    +0.100 C 
BRANCH   8  10
ATOM      9  N   UNL     1      25.338  14.007  -1.767  0.00  0.00    -0.134 NA
ATOM     10  C   UNL     1      25.362  14.990  -2.719  0.00  0.00    +0.086 A 
ATOM     11  C   UNL     1      24.073  15.402  -2.972  0.00  0.00    +0.134 A 
ATOM     12  N   UNL     1      23.304  14.590  -2.195  0.00  0.00    -0.241 N 
ATOM     13  N   UNL     1      24.073  13.784  -1.436  0.00  0.00    -0.065 NA
BRANCH  12  14
ATOM     14  C   UNL     1      21.874  14.590  -1.967  0.00  0.00    +0.265 C 
BRANCH  14  15
ATOM     15  C   UNL     1      21.157  13.333  -2.380  0.00  0.00    +0.326 C 
ATOM     16  O   UNL     1      19.994  13.043  -2.141  0.00  0.00    -0.249 OA
BRANCH  15  17
ATOM     17  O   UNL     1      21.959  12.480  -3.072  0.00  0.00    -0.479 OA
ATOM     18  H   UNL     1      21.510  11.731  -3.508  0.00  0.00    +0.295 HD
ENDBRANCH  15  17
ENDBRANCH  14  15
ENDBRANCH  12  14
ENDBRANCH   8  10
ENDBRANCH   7   8
ENDBRANCH   6   7
ENDBRANCH   2   6
ENDBRANCH   1   3
BRANCH   1  19
ATOM     19  C   UNL     1      30.247  14.013  -0.001  0.00  0.00    +0.193 C 
ATOM     20  O   UNL     1      30.186  12.573  -0.089  0.00  0.00    -0.219 OA
BRANCH  19  21
ATOM     21  C   UNL     1      31.401  14.409  -0.948  0.00  0.00    +0.212 C 
ATOM     22  O   UNL     1      31.749  15.791  -0.765  0.00  0.00    -0.218 OA
BRANCH  21  23
ATOM     23  C   UNL     1      32.697  13.533  -0.755  0.00  0.00    +0.171 C 
ATOM     24  O   UNL     1      33.545  14.029   0.276  0.00  0.00    -0.343 OA
ATOM     25  C   UNL     1      34.855  13.598   0.494  0.00  0.00    +0.220 C 
ATOM     26  C   UNL     1      35.689  13.629  -0.799  0.00  0.00    +0.076 C 
ATOM     27  C   UNL     1      34.916  12.837  -1.867  0.00  0.00    +0.177 C 
ATOM     28  O   UNL     1      35.663  12.801  -3.074  0.00  0.00    -0.221 OA
ATOM     29  C   UNL     1      33.507  13.470  -2.090  0.00  0.00    +0.155 C 
BRANCH  29  30
ATOM     30  N   UNL     1      32.772  12.724  -3.109  0.00  0.00    -0.202 NA
ATOM     31  C   UNL     1      32.633  12.974  -4.436  0.00  0.00    +0.242 C 
ATOM     32  C   UNL     1      32.068  11.888  -5.313  0.00  0.00    +0.096 C 
ATOM     33  O   UNL     1      32.968  14.068  -4.887  0.00  0.00    -0.273 OA
ENDBRANCH  29  30
BRANCH  25  34
ATOM     34  C   UNL     1      34.947  12.152   1.229  0.00  0.00    +0.391 C 
ATOM     35  O   UNL     1      36.215  11.741   1.031  0.00  0.00    -0.243 OA
ATOM     36  O   UNL     1      33.852  12.055   1.992  0.00  0.00    -0.243 OA
ENDBRANCH  25  34
ENDBRANCH  21  23
ENDBRANCH  19  21
ENDBRANCH   1  19
TORSDOF 13
