REMARK VINA RESULT:    -6.193      1.922      4.159
REMARK INTER + INTRA:         -13.823
REMARK INTER:                 -11.383
REMARK INTRA:                  -2.440
REMARK UNBOUND:                -1.837
REMARK  Name = lig_assembled_45.pdb
REMARK  19 active torsions:
REMARK  status: ('A' for Active; 'I' for Inactive)
REMARK    1  A    between atoms: _2  and  _9
REMARK    2  A    between atoms: _3  and  _11
REMARK    3  A    between atoms: _3  and  _12
REMARK    4  A    between atoms: _3  and  _13
REMARK    5  A    between atoms: _3  and  _15
REMARK    6  A    between atoms: _5  and  _15
REMARK    7  A    between atoms: _6  and  _7
REMARK    8  A    between atoms: _6  and  _16
REMARK    9  A    between atoms: _9  and  _10
REMARK   10  A    between atoms: _10  and  _11
REMARK   11  A    between atoms: _13  and  _14
REMARK   12  A    between atoms: _16  and  _18
REMARK   13  A    between atoms: _17  and  _22
REMARK   14  A    between atoms: _18  and  _21
REMARK   15  A    between atoms: _26  and  _36
REMARK   16  A    between atoms: _28  and  _29
REMARK   17  A    between atoms: _30  and  _32
REMARK   18  A    between atoms: _32  and  _34
REMARK   19  A    between atoms: _34  and  _36
REMARK                            x       y       z     vdW  Elec       q    Type
REMARK                         _______ _______ _______ _____ _____    ______ ____
ROOT
ATOM      1  C   UNL     1      30.576  15.137   0.274  0.00  0.00    +0.400 C 
ATOM      2  N   UNL     1      29.642  14.226   0.709  0.00  0.00    -0.278 N 
ATOM      3  H   UNL     1      30.058  13.287   0.415  0.00  0.00    +0.152 HD
ATOM      4  O   UNL     1      31.653  14.712  -0.138  0.00  0.00    -0.226 OA
ENDROOT
BRANCH   2   5
ATOM      5  C   UNL     1      28.376  13.972   1.390  0.00  0.00    +0.152 C 
BRANCH   5   6
ATOM      6  C   UNL     1      28.470  13.595   2.883  0.00  0.00    +0.193 C 
ATOM      7  O   UNL     1      27.139  13.222   3.302  0.00  0.00    -0.219 OA
BRANCH   6   8
ATOM      8  C   UNL     1      29.347  12.381   3.260  0.00  0.00    +0.212 C 
ATOM      9  O   UNL     1      29.486  11.495   2.137  0.00  0.00    -0.218 OA
BRANCH   8  10
ATOM     10  C   UNL     1      30.785  12.782   3.766  0.00  0.00    +0.171 C 
ATOM     11  O   UNL     1      31.722  12.916   2.702  0.00  0.00    -0.343 OA
ATOM     12  C   UNL     1      33.104  13.022   2.878  0.00  0.00    +0.220 C 
ATOM     13  C   UNL     1      33.649  11.912   3.793  0.00  0.00    +0.076 C 
ATOM     14  C   UNL     1      32.828  11.938   5.093  0.00  0.00    +0.177 C 
ATOM     15  O   UNL     1      33.318  10.955   5.993  0.00  0.00    -0.221 OA
ATOM     16  C   UNL     1      31.316  11.714   4.777  0.00  0.00    +0.155 C 
BRANCH  16  17
ATOM     17  N   UNL     1      30.532  11.731   6.010  0.00  0.00    -0.202 NA
ATOM     18  C   UNL     1      29.731  10.773   6.542  0.00  0.00    +0.242 C 
ATOM     19  C   UNL     1      29.275  10.935   7.969  0.00  0.00    +0.096 C 
ATOM     20  O   UNL     1      29.402   9.807   5.857  0.00  0.00    -0.273 OA
ENDBRANCH  16  17
BRANCH  12  21
ATOM     21  C   UNL     1      33.582  14.494   3.374  0.00  0.00    +0.391 C 
ATOM     22  O   UNL     1      34.905  14.372   3.597  0.00  0.00    -0.243 OA
ATOM     23  O   UNL     1      32.572  15.326   3.090  0.00  0.00    -0.243 OA
ENDBRANCH  12  21
ENDBRANCH   8  10
ENDBRANCH   6   8
ENDBRANCH   5   6
ENDBRANCH   2   5
BRANCH   1  24
ATOM     24  O   UNL     1      30.209  16.376   0.312  0.00  0.00    -0.450 OA
BRANCH  24  25
ATOM     25  C   UNL     1      29.720  17.373  -0.555  0.00  0.00    +0.240 C 
BRANCH  25  26
ATOM     26  C   UNL     1      28.210  17.677  -0.507  0.00  0.00    +0.100 C 
BRANCH  26  28
ATOM     27  N   UNL     1      27.101  17.778  -2.723  0.00  0.00    -0.134 NA
ATOM     28  C   UNL     1      27.524  17.044  -1.648  0.00  0.00    +0.086 A 
ATOM     29  C   UNL     1      27.198  15.721  -1.850  0.00  0.00    +0.133 A 
ATOM     30  N   UNL     1      26.583  15.730  -3.064  0.00  0.00    -0.251 N 
ATOM     31  N   UNL     1      26.517  16.957  -3.586  0.00  0.00    -0.065 NA
BRANCH  30  32
ATOM     32  C   UNL     1      26.013  14.599  -3.766  0.00  0.00    +0.150 C 
BRANCH  32  33
ATOM     33  C   UNL     1      24.635  14.895  -4.347  0.00  0.00    +0.074 C 
BRANCH  33  34
ATOM     34  C   UNL     1      23.504  15.165  -3.346  0.00  0.00    +0.134 C 
BRANCH  34  35
ATOM     35  N   UNL     1      22.989  13.968  -2.480  0.00  0.00    +0.241 N 
ATOM     36  C   UNL     1      22.832  12.735  -3.386  0.00  0.00    +0.192 C 
BRANCH  35  37
ATOM     37  C   UNL     1      21.573  14.387  -1.962  0.00  0.00    +0.129 C 
ATOM     38  C   UNL     1      20.508  13.308  -2.128  0.00  0.00    +0.060 C 
ENDBRANCH  35  37
BRANCH  35  39
ATOM     39  C   UNL     1      23.890  13.599  -1.287  0.00  0.00    +0.129 C 
ATOM     40  C   UNL     1      23.960  12.108  -0.995  0.00  0.00    +0.060 C 
ENDBRANCH  35  39
ENDBRANCH  34  35
ENDBRANCH  33  34
ENDBRANCH  32  33
ENDBRANCH  30  32
ENDBRANCH  26  28
ENDBRANCH  25  26
ENDBRANCH  24  25
ENDBRANCH   1  24
TORSDOF 16
