REMARK VINA RESULT:    -5.872      1.863      2.828
REMARK INTER + INTRA:         -12.631
REMARK INTER:                 -10.888
REMARK INTRA:                  -1.743
REMARK UNBOUND:                -1.953
REMARK  Name = lig_assembled_13.pdb
REMARK  15 active torsions:
REMARK  status: ('A' for Active; 'I' for Inactive)
REMARK    1  A    between atoms: _2  and  _8
REMARK    2  A    between atoms: _4  and  _10
REMARK    3  A    between atoms: _5  and  _6
REMARK    4  A    between atoms: _5  and  _13
REMARK    5  A    between atoms: _8  and  _9
REMARK    6  A    between atoms: _9  and  _11
REMARK    7  A    between atoms: _10  and  _11
REMARK    8  A    between atoms: _13  and  _15
REMARK    9  A    between atoms: _14  and  _19
REMARK   10  A    between atoms: _15  and  _18
REMARK   11  A    between atoms: _23  and  _33
REMARK   12  A    between atoms: _25  and  _26
REMARK   13  A    between atoms: _27  and  _29
REMARK   14  A    between atoms: _29  and  _31
REMARK   15  A    between atoms: _31  and  _33
REMARK                            x       y       z     vdW  Elec       q    Type
REMARK                         _______ _______ _______ _____ _____    ______ ____
ROOT
ATOM      1  C   UNL     1      28.627  13.755   2.185  0.00  0.00    +0.152 C 
ENDROOT
BRANCH   1   3
ATOM      2  C   UNL     1      28.669  14.571  -0.418  0.00  0.00    +0.400 C 
ATOM      3  N   UNL     1      28.605  13.811   0.726  0.00  0.00    -0.278 N 
ATOM      4  H   UNL     1      28.504  12.814   0.355  0.00  0.00    +0.152 HD
ATOM      5  O   UNL     1      28.780  13.990  -1.494  0.00  0.00    -0.226 OA
BRANCH   2   6
ATOM      6  O   UNL     1      28.574  15.849  -0.247  0.00  0.00    -0.450 OA
BRANCH   6   7
ATOM      7  C   UNL     1      28.768  17.041  -0.972  0.00  0.00    +0.240 C 
BRANCH   7   8
ATOM      8  C   UNL     1      27.513  17.772  -1.487  0.00  0.00    +0.100 C 
BRANCH   8  10
ATOM      9  N   UNL     1      27.060  17.153  -3.840  0.00  0.00    -0.134 NA
ATOM     10  C   UNL     1      26.827  16.958  -2.506  0.00  0.00    +0.086 A 
ATOM     11  C   UNL     1      25.903  15.952  -2.353  0.00  0.00    +0.134 A 
ATOM     12  N   UNL     1      25.563  15.621  -3.631  0.00  0.00    -0.241 N 
ATOM     13  N   UNL     1      26.294  16.311  -4.522  0.00  0.00    -0.065 NA
BRANCH  12  14
ATOM     14  C   UNL     1      24.640  14.602  -4.079  0.00  0.00    +0.265 C 
BRANCH  14  15
ATOM     15  C   UNL     1      23.267  14.793  -3.500  0.00  0.00    +0.329 C 
ATOM     16  O   UNL     1      22.653  15.846  -3.417  0.00  0.00    -0.249 OA
BRANCH  15  17
ATOM     17  O   UNL     1      22.839  13.606  -2.974  0.00  0.00    -0.464 OA
BRANCH  17  18
ATOM     18  C   UNL     1      22.742  13.580  -1.541  0.00  0.00    +0.229 C 
ATOM     19  C   UNL     1      21.268  13.596  -1.176  0.00  0.00    +0.048 C 
ENDBRANCH  17  18
ENDBRANCH  15  17
ENDBRANCH  14  15
ENDBRANCH  12  14
ENDBRANCH   8  10
ENDBRANCH   7   8
ENDBRANCH   6   7
ENDBRANCH   2   6
ENDBRANCH   1   3
BRANCH   1  20
ATOM     20  C   UNL     1      30.019  13.640   2.840  0.00  0.00    +0.193 C 
ATOM     21  O   UNL     1      30.329  12.230   2.912  0.00  0.00    -0.219 OA
BRANCH  20  22
ATOM     22  C   UNL     1      31.217  14.259   2.087  0.00  0.00    +0.212 C 
ATOM     23  O   UNL     1      31.390  15.635   2.464  0.00  0.00    -0.218 OA
BRANCH  22  24
ATOM     24  C   UNL     1      32.573  13.495   2.334  0.00  0.00    +0.171 C 
ATOM     25  O   UNL     1      33.298  14.012   3.445  0.00  0.00    -0.343 OA
ATOM     26  C   UNL     1      34.626  13.691   3.739  0.00  0.00    +0.220 C 
ATOM     27  C   UNL     1      35.539  13.864   2.513  0.00  0.00    +0.076 C 
ATOM     28  C   UNL     1      34.919  13.062   1.357  0.00  0.00    +0.177 C 
ATOM     29  O   UNL     1      35.747  13.156   0.206  0.00  0.00    -0.221 OA
ATOM     30  C   UNL     1      33.476  13.575   1.060  0.00  0.00    +0.155 C 
BRANCH  30  31
ATOM     31  N   UNL     1      32.886  12.820  -0.043  0.00  0.00    -0.202 NA
ATOM     32  C   UNL     1      32.463  13.248  -1.260  0.00  0.00    +0.242 C 
ATOM     33  C   UNL     1      32.169  12.216  -2.318  0.00  0.00    +0.096 C 
ATOM     34  O   UNL     1      32.334  14.452  -1.469  0.00  0.00    -0.273 OA
ENDBRANCH  30  31
BRANCH  26  35
ATOM     35  C   UNL     1      34.803  12.223   4.412  0.00  0.00    +0.391 C 
ATOM     36  O   UNL     1      36.095  11.901   4.210  0.00  0.00    -0.243 OA
ATOM     37  O   UNL     1      33.710  12.024   5.159  0.00  0.00    -0.243 OA
ENDBRANCH  26  35
ENDBRANCH  22  24
ENDBRANCH  20  22
ENDBRANCH   1  20
TORSDOF 14
