REMARK VINA RESULT:    -7.046      2.297      4.048
REMARK INTER + INTRA:         -14.193
REMARK INTER:                 -12.607
REMARK INTRA:                  -1.586
REMARK UNBOUND:                -1.585
REMARK  Name = lig_assembled_16.pdb
REMARK  14 active torsions:
REMARK  status: ('A' for Active; 'I' for Inactive)
REMARK    1  A    between atoms: _2  and  _8
REMARK    2  A    between atoms: _5  and  _6
REMARK    3  A    between atoms: _5  and  _17
REMARK    4  A    between atoms: _8  and  _9
REMARK    5  A    between atoms: _12  and  _13
REMARK    6  A    between atoms: _13  and  _15
REMARK    7  A    between atoms: _17  and  _19
REMARK    8  A    between atoms: _18  and  _23
REMARK    9  A    between atoms: _19  and  _22
REMARK   10  A    between atoms: _27  and  _37
REMARK   11  A    between atoms: _29  and  _30
REMARK   12  A    between atoms: _31  and  _33
REMARK   13  A    between atoms: _33  and  _35
REMARK   14  A    between atoms: _35  and  _37
REMARK                            x       y       z     vdW  Elec       q    Type
REMARK                         _______ _______ _______ _____ _____    ______ ____
ROOT
ATOM      1  C   UNL     1      27.015  13.633  -3.139  0.00  0.00    +0.400 C 
ATOM      2  N   UNL     1      27.462  14.249  -1.994  0.00  0.00    -0.278 N 
ATOM      3  H   UNL     1      27.616  13.435  -1.319  0.00  0.00    +0.152 HD
ATOM      4  O   UNL     1      27.069  12.407  -3.196  0.00  0.00    -0.226 OA
ENDROOT
BRANCH   2   5
ATOM      5  C   UNL     1      27.826  15.486  -1.307  0.00  0.00    +0.152 C 
BRANCH   5   6
ATOM      6  C   UNL     1      28.748  15.336  -0.080  0.00  0.00    +0.193 C 
ATOM      7  O   UNL     1      28.411  14.076   0.541  0.00  0.00    -0.219 OA
BRANCH   6   8
ATOM      8  C   UNL     1      30.269  15.244  -0.335  0.00  0.00    +0.212 C 
ATOM      9  O   UNL     1      30.878  16.540  -0.207  0.00  0.00    -0.218 OA
BRANCH   8  10
ATOM     10  C   UNL     1      31.006  14.243   0.635  0.00  0.00    +0.171 C 
ATOM     11  O   UNL     1      31.229  14.797   1.927  0.00  0.00    -0.343 OA
ATOM     12  C   UNL     1      32.064  14.231   2.894  0.00  0.00    +0.220 C 
ATOM     13  C   UNL     1      33.454  13.901   2.323  0.00  0.00    +0.076 C 
ATOM     14  C   UNL     1      33.246  13.042   1.065  0.00  0.00    +0.177 C 
ATOM     15  O   UNL     1      34.505  12.674   0.519  0.00  0.00    -0.221 OA
ATOM     16  C   UNL     1      32.380  13.817   0.023  0.00  0.00    +0.155 C 
BRANCH  16  17
ATOM     17  N   UNL     1      32.186  13.007  -1.177  0.00  0.00    -0.202 NA
ATOM     18  C   UNL     1      32.647  13.201  -2.439  0.00  0.00    +0.242 C 
ATOM     19  C   UNL     1      32.547  12.062  -3.420  0.00  0.00    +0.096 C 
ATOM     20  O   UNL     1      33.130  14.288  -2.749  0.00  0.00    -0.273 OA
ENDBRANCH  16  17
BRANCH  12  21
ATOM     21  C   UNL     1      31.407  12.950   3.646  0.00  0.00    +0.391 C 
ATOM     22  O   UNL     1      32.378  12.490   4.460  0.00  0.00    -0.243 OA
ATOM     23  O   UNL     1      30.091  13.016   3.410  0.00  0.00    -0.243 OA
ENDBRANCH  12  21
ENDBRANCH   8  10
ENDBRANCH   6   8
ENDBRANCH   5   6
ENDBRANCH   2   5
BRANCH   1  24
ATOM     24  O   UNL     1      26.544  14.420  -4.050  0.00  0.00    -0.450 OA
BRANCH  24  25
ATOM     25  C   UNL     1      25.312  14.975  -4.449  0.00  0.00    +0.240 C 
BRANCH  25  26
ATOM     26  C   UNL     1      24.568  15.859  -3.431  0.00  0.00    +0.100 C 
BRANCH  26  28
ATOM     27  N   UNL     1      22.100  15.979  -3.251  0.00  0.00    -0.134 NA
ATOM     28  C   UNL     1      23.260  15.266  -3.100  0.00  0.00    +0.086 A 
ATOM     29  C   UNL     1      22.955  14.002  -2.646  0.00  0.00    +0.134 A 
ATOM     30  N   UNL     1      21.593  13.981  -2.635  0.00  0.00    -0.247 N 
ATOM     31  N   UNL     1      21.081  15.186  -2.947  0.00  0.00    -0.065 NA
BRANCH  30  32
ATOM     32  C   UNL     1      20.720  12.856  -2.364  0.00  0.00    +0.180 C 
BRANCH  32  33
ATOM     33  C   UNL     1      21.170  12.094  -1.139  0.00  0.00    -0.026 A 
ATOM     34  C   UNL     1      21.033  12.650   0.141  0.00  0.00    +0.006 A 
ATOM     35  C   UNL     1      21.416  11.925   1.272  0.00  0.00    +0.015 A 
ATOM     36  C   UNL     1      21.952  10.642   1.142  0.00  0.00    +0.059 A 
ATOM     37  C   UNL     1      22.114  10.083  -0.135  0.00  0.00    +0.015 A 
ATOM     38  C   UNL     1      21.735  10.814  -1.266  0.00  0.00    +0.006 A 
BRANCH  36  39
ATOM     39  C   UNL     1      22.273   9.887   2.382  0.00  0.00    +0.337 C 
ATOM     40  O   UNL     1      21.837   8.769   2.600  0.00  0.00    -0.245 OA
BRANCH  39  41
ATOM     41  O   UNL     1      23.053  10.558   3.251  0.00  0.00    -0.477 OA
ATOM     42  H   UNL     1      23.817  11.016   2.854  0.00  0.00    +0.295 HD
ENDBRANCH  39  41
ENDBRANCH  36  39
ENDBRANCH  32  33
ENDBRANCH  30  32
ENDBRANCH  26  28
ENDBRANCH  25  26
ENDBRANCH  24  25
ENDBRANCH   1  24
TORSDOF 14
