REMARK VINA RESULT:    -6.765      4.963      9.823
REMARK INTER + INTRA:         -13.055
REMARK INTER:                 -11.073
REMARK INTRA:                  -1.982
REMARK UNBOUND:                -1.544
REMARK  Name = lig_assembled_69.pdb
REMARK  13 active torsions:
REMARK  status: ('A' for Active; 'I' for Inactive)
REMARK    1  A    between atoms: _2  and  _8
REMARK    2  A    between atoms: _5  and  _6
REMARK    3  A    between atoms: _5  and  _16
REMARK    4  A    between atoms: _10  and  _15
REMARK    5  A    between atoms: _13  and  _14
REMARK    6  A    between atoms: _16  and  _18
REMARK    7  A    between atoms: _17  and  _22
REMARK    8  A    between atoms: _18  and  _21
REMARK    9  A    between atoms: _26  and  _36
REMARK   10  A    between atoms: _28  and  _29
REMARK   11  A    between atoms: _30  and  _32
REMARK   12  A    between atoms: _32  and  _34
REMARK   13  A    between atoms: _34  and  _36
REMARK                            x       y       z     vdW  Elec       q    Type
REMARK                         _______ _______ _______ _____ _____    ______ ____
ROOT
ATOM      1  C   UNL     1      27.635  11.718   1.756  0.00  0.00    +0.400 C 
ATOM      2  N   UNL     1      28.004  12.878   1.116  0.00  0.00    -0.278 N 
ATOM      3  H   UNL     1      27.491  12.818   0.180  0.00  0.00    +0.152 HD
ATOM      4  O   UNL     1      26.746  11.037   1.253  0.00  0.00    -0.226 OA
ENDROOT
BRANCH   1   5
ATOM      5  O   UNL     1      28.296  11.438   2.831  0.00  0.00    -0.450 OA
BRANCH   5   6
ATOM      6  C   UNL     1      28.199  11.622   4.224  0.00  0.00    +0.240 C 
BRANCH   6   7
ATOM      7  C   UNL     1      28.474  10.403   5.124  0.00  0.00    +0.100 C 
BRANCH   7   9
ATOM      8  N   UNL     1      28.616  10.517   7.588  0.00  0.00    -0.134 NA
ATOM      9  C   UNL     1      29.149  10.823   6.365  0.00  0.00    +0.086 A 
ATOM     10  C   UNL     1      30.314  11.535   6.546  0.00  0.00    +0.134 A 
ATOM     11  N   UNL     1      30.427  11.641   7.901  0.00  0.00    -0.248 N 
ATOM     12  N   UNL     1      29.403  11.029   8.522  0.00  0.00    -0.065 NA
BRANCH  11  13
ATOM     13  C   UNL     1      31.449  12.353   8.666  0.00  0.00    +0.114 C 
ATOM     14  C   UNL     1      32.793  12.370   7.929  0.00  0.00    +0.062 C 
ATOM     15  C   UNL     1      33.686  11.141   8.121  0.00  0.00    +0.139 C 
ATOM     16  C   UNL     1      34.310  10.972   9.477  0.00  0.00    +0.002 C 
ATOM     17  C   UNL     1      33.920  11.495  10.651  0.00  0.00    +0.002 C 
ATOM     18  C   UNL     1      32.670  12.269  10.942  0.00  0.00    +0.139 C 
ATOM     19  C   UNL     1      31.460  11.849  10.116  0.00  0.00    +0.062 C 
BRANCH  18  20
ATOM     20  O   UNL     1      32.927  13.654  10.777  0.00  0.00    -0.388 OA
ATOM     21  H   UNL     1      33.113  14.022  11.659  0.00  0.00    +0.210 HD
ENDBRANCH  18  20
BRANCH  15  22
ATOM     22  O   UNL     1      34.784  11.275   7.210  0.00  0.00    -0.388 OA
ATOM     23  H   UNL     1      35.237  12.108   7.423  0.00  0.00    +0.210 HD
ENDBRANCH  15  22
ENDBRANCH  11  13
ENDBRANCH   7   9
ENDBRANCH   6   7
ENDBRANCH   5   6
ENDBRANCH   1   5
BRANCH   2  24
ATOM     24  C   UNL     1      28.752  14.132   1.146  0.00  0.00    +0.152 C 
BRANCH  24  25
ATOM     25  C   UNL     1      29.645  14.420  -0.079  0.00  0.00    +0.193 C 
ATOM     26  O   UNL     1      28.950  15.402  -0.878  0.00  0.00    -0.219 OA
BRANCH  25  27
ATOM     27  C   UNL     1      31.033  15.046   0.180  0.00  0.00    +0.212 C 
ATOM     28  O   UNL     1      30.896  16.308   0.854  0.00  0.00    -0.218 OA
BRANCH  27  29
ATOM     29  C   UNL     1      31.987  14.123   1.030  0.00  0.00    +0.171 C 
ATOM     30  O   UNL     1      32.298  14.680   2.303  0.00  0.00    -0.343 OA
ATOM     31  C   UNL     1      33.299  14.200   3.150  0.00  0.00    +0.220 C 
ATOM     32  C   UNL     1      34.641  14.038   2.413  0.00  0.00    +0.076 C 
ATOM     33  C   UNL     1      34.382  13.179   1.164  0.00  0.00    +0.177 C 
ATOM     34  O   UNL     1      35.601  12.965   0.466  0.00  0.00    -0.221 OA
ATOM     35  C   UNL     1      33.318  13.865   0.251  0.00  0.00    +0.155 C 
BRANCH  35  36
ATOM     36  N   UNL     1      33.075  13.055  -0.940  0.00  0.00    -0.202 NA
ATOM     37  C   UNL     1      33.214  13.377  -2.251  0.00  0.00    +0.242 C 
ATOM     38  C   UNL     1      33.180  12.265  -3.268  0.00  0.00    +0.096 C 
ATOM     39  O   UNL     1      33.364  14.553  -2.575  0.00  0.00    -0.273 OA
ENDBRANCH  35  36
BRANCH  31  40
ATOM     40  C   UNL     1      32.884  12.841   3.938  0.00  0.00    +0.391 C 
ATOM     41  O   UNL     1      33.984  12.493   4.634  0.00  0.00    -0.243 OA
ATOM     42  O   UNL     1      31.552  12.751   3.843  0.00  0.00    -0.243 OA
ENDBRANCH  31  40
ENDBRANCH  27  29
ENDBRANCH  25  27
ENDBRANCH  24  25
ENDBRANCH   2  24
TORSDOF 13
