REMARK VINA RESULT:    -6.715      2.099      3.272
REMARK INTER + INTRA:         -13.201
REMARK INTER:                 -11.048
REMARK INTRA:                  -2.153
REMARK UNBOUND:                -2.168
REMARK  Name = lig_assembled_86.pdb
REMARK  12 active torsions:
REMARK  status: ('A' for Active; 'I' for Inactive)
REMARK    1  A    between atoms: _2  and  _9
REMARK    2  A    between atoms: _3  and  _12
REMARK    3  A    between atoms: _6  and  _7
REMARK    4  A    between atoms: _6  and  _16
REMARK    5  A    between atoms: _16  and  _18
REMARK    6  A    between atoms: _17  and  _22
REMARK    7  A    between atoms: _18  and  _21
REMARK    8  A    between atoms: _26  and  _36
REMARK    9  A    between atoms: _28  and  _29
REMARK   10  A    between atoms: _30  and  _32
REMARK   11  A    between atoms: _32  and  _34
REMARK   12  A    between atoms: _34  and  _36
REMARK                            x       y       z     vdW  Elec       q    Type
REMARK                         _______ _______ _______ _____ _____    ______ ____
ROOT
ATOM      1  C   UNL     1      28.762  17.062  -0.517  0.00  0.00    +0.400 C 
ATOM      2  N   UNL     1      28.778  15.940   0.278  0.00  0.00    -0.278 N 
ATOM      3  H   UNL     1      29.452  16.204   1.064  0.00  0.00    +0.152 HD
ATOM      4  O   UNL     1      29.311  18.077  -0.097  0.00  0.00    -0.226 OA
ENDROOT
BRANCH   1   5
ATOM      5  O   UNL     1      28.186  16.925  -1.666  0.00  0.00    -0.450 OA
BRANCH   5   6
ATOM      6  C   UNL     1      27.100  17.460  -2.386  0.00  0.00    +0.240 C 
BRANCH   6   7
ATOM      7  C   UNL     1      26.874  16.942  -3.820  0.00  0.00    +0.100 C 
BRANCH   7   9
ATOM      8  N   UNL     1      25.285  15.425  -4.971  0.00  0.00    -0.134 NA
ATOM      9  C   UNL     1      25.895  15.839  -3.815  0.00  0.00    +0.086 A 
ATOM     10  C   UNL     1      25.445  15.066  -2.771  0.00  0.00    +0.134 A 
ATOM     11  N   UNL     1      24.595  14.180  -3.359  0.00  0.00    -0.248 N 
ATOM     12  N   UNL     1      24.476  14.416  -4.676  0.00  0.00    -0.065 NA
BRANCH  11  13
ATOM     13  C   UNL     1      23.879  13.086  -2.718  0.00  0.00    +0.112 C 
ATOM     14  C   UNL     1      23.439  13.448  -1.285  0.00  0.00    +0.045 C 
ATOM     15  C   UNL     1      21.991  13.084  -0.949  0.00  0.00    +0.059 C 
ATOM     16  C   UNL     1      21.011  14.079  -1.580  0.00  0.00    +0.020 C 
ATOM     17  C   UNL     1      20.618  13.441  -2.910  0.00  0.00    +0.020 C 
ATOM     18  C   UNL     1      21.461  12.166  -2.988  0.00  0.00    +0.059 C 
ATOM     19  N   UNL     1      21.564  11.829  -1.568  0.00  0.00    -0.299 NA
ATOM     20  C   UNL     1      22.334  10.644  -1.240  0.00  0.00    +0.105 C 
ATOM     21  C   UNL     1      22.822  12.437  -3.642  0.00  0.00    +0.045 C 
ENDBRANCH  11  13
ENDBRANCH   7   9
ENDBRANCH   6   7
ENDBRANCH   5   6
ENDBRANCH   1   5
BRANCH   2  22
ATOM     22  C   UNL     1      28.287  14.588   0.533  0.00  0.00    +0.152 C 
BRANCH  22  23
ATOM     23  C   UNL     1      29.339  13.461   0.476  0.00  0.00    +0.193 C 
ATOM     24  O   UNL     1      28.743  12.306   1.106  0.00  0.00    -0.219 OA
BRANCH  23  25
ATOM     25  C   UNL     1      29.774  12.959  -0.918  0.00  0.00    +0.212 C 
ATOM     26  O   UNL     1      29.178  13.762  -1.950  0.00  0.00    -0.218 OA
BRANCH  25  27
ATOM     27  C   UNL     1      31.337  12.956  -1.121  0.00  0.00    +0.171 C 
ATOM     28  O   UNL     1      31.943  14.180  -0.721  0.00  0.00    -0.343 OA
ATOM     29  C   UNL     1      33.261  14.540  -1.013  0.00  0.00    +0.220 C 
ATOM     30  C   UNL     1      33.580  14.373  -2.509  0.00  0.00    +0.076 C 
ATOM     31  C   UNL     1      33.197  12.938  -2.906  0.00  0.00    +0.177 C 
ATOM     32  O   UNL     1      33.509  12.717  -4.274  0.00  0.00    -0.221 OA
ATOM     33  C   UNL     1      31.683  12.687  -2.622  0.00  0.00    +0.155 C 
BRANCH  33  34
ATOM     34  N   UNL     1      31.314  11.327  -3.005  0.00  0.00    -0.202 NA
ATOM     35  C   UNL     1      30.511  10.896  -4.011  0.00  0.00    +0.242 C 
ATOM     36  C   UNL     1      30.534   9.433  -4.368  0.00  0.00    +0.096 C 
ATOM     37  O   UNL     1      29.792  11.700  -4.602  0.00  0.00    -0.273 OA
ENDBRANCH  33  34
BRANCH  29  38
ATOM     38  C   UNL     1      34.359  13.787  -0.081  0.00  0.00    +0.391 C 
ATOM     39  O   UNL     1      35.529  13.939  -0.731  0.00  0.00    -0.243 OA
ATOM     40  O   UNL     1      33.759  13.571   1.096  0.00  0.00    -0.243 OA
ENDBRANCH  29  38
ENDBRANCH  25  27
ENDBRANCH  23  25
ENDBRANCH  22  23
ENDBRANCH   2  22
TORSDOF 11
