REMARK VINA RESULT:    -7.052      2.339      2.820
REMARK INTER + INTRA:         -13.086
REMARK INTER:                 -11.556
REMARK INTRA:                  -1.530
REMARK UNBOUND:                -1.499
REMARK  Name = lig_assembled_15.pdb
REMARK  11 active torsions:
REMARK  status: ('A' for Active; 'I' for Inactive)
REMARK    1  A    between atoms: _2  and  _8
REMARK    2  A    between atoms: _5  and  _6
REMARK    3  A    between atoms: _5  and  _13
REMARK    4  A    between atoms: _13  and  _15
REMARK    5  A    between atoms: _14  and  _19
REMARK    6  A    between atoms: _15  and  _18
REMARK    7  A    between atoms: _23  and  _33
REMARK    8  A    between atoms: _25  and  _26
REMARK    9  A    between atoms: _27  and  _29
REMARK   10  A    between atoms: _29  and  _31
REMARK   11  A    between atoms: _31  and  _33
REMARK                            x       y       z     vdW  Elec       q    Type
REMARK                         _______ _______ _______ _____ _____    ______ ____
ROOT
ATOM      1  C   UNL     1      29.146  17.133  -0.388  0.00  0.00    +0.400 C 
ATOM      2  N   UNL     1      29.242  15.899   0.211  0.00  0.00    -0.278 N 
ATOM      3  H   UNL     1      29.944  16.062   1.001  0.00  0.00    +0.152 HD
ATOM      4  O   UNL     1      29.677  18.091   0.170  0.00  0.00    -0.226 OA
ENDROOT
BRANCH   1   5
ATOM      5  O   UNL     1      28.520  17.160  -1.518  0.00  0.00    -0.450 OA
BRANCH   5   6
ATOM      6  C   UNL     1      27.201  17.107  -2.010  0.00  0.00    +0.240 C 
BRANCH   6   7
ATOM      7  C   UNL     1      26.890  16.063  -3.100  0.00  0.00    +0.100 C 
BRANCH   7   9
ATOM      8  N   UNL     1      25.549  14.264  -2.057  0.00  0.00    -0.134 NA
ATOM      9  C   UNL     1      25.605  15.396  -2.817  0.00  0.00    +0.086 A 
ATOM     10  C   UNL     1      24.330  15.740  -3.205  0.00  0.00    +0.139 A 
ATOM     11  N   UNL     1      23.514  14.794  -2.628  0.00  0.00    -0.220 N 
ATOM     12  N   UNL     1      24.278  13.900  -1.951  0.00  0.00    -0.061 NA
BRANCH  11  13
ATOM     13  C   UNL     1      22.098  14.707  -2.654  0.00  0.00    +0.067 A 
ATOM     14  C   UNL     1      21.401  14.013  -1.655  0.00  0.00    +0.029 A 
ATOM     15  C   UNL     1      20.008  13.904  -1.720  0.00  0.00    +0.017 A 
ATOM     16  C   UNL     1      19.312  14.488  -2.776  0.00  0.00    +0.018 A 
ATOM     17 BR   UNL     1      17.433  14.312  -2.872  0.00  0.00    -0.050 Br
ATOM     18  C   UNL     1      19.993  15.192  -3.767  0.00  0.00    +0.017 A 
ATOM     19  C   UNL     1      21.385  15.305  -3.706  0.00  0.00    +0.029 A 
ENDBRANCH  11  13
ENDBRANCH   7   9
ENDBRANCH   6   7
ENDBRANCH   5   6
ENDBRANCH   1   5
BRANCH   2  20
ATOM     20  C   UNL     1      28.815  14.504   0.260  0.00  0.00    +0.152 C 
BRANCH  20  21
ATOM     21  C   UNL     1      29.591  13.523  -0.643  0.00  0.00    +0.193 C 
ATOM     22  O   UNL     1      29.230  13.838  -2.005  0.00  0.00    -0.219 OA
BRANCH  21  23
ATOM     23  C   UNL     1      31.134  13.603  -0.625  0.00  0.00    +0.212 C 
ATOM     24  O   UNL     1      31.571  14.934  -0.945  0.00  0.00    -0.218 OA
BRANCH  23  25
ATOM     25  C   UNL     1      31.765  13.184   0.757  0.00  0.00    +0.171 C 
ATOM     26  O   UNL     1      31.276  13.966   1.842  0.00  0.00    -0.343 OA
ATOM     27  C   UNL     1      31.835  13.975   3.122  0.00  0.00    +0.220 C 
ATOM     28  C   UNL     1      33.356  14.206   3.078  0.00  0.00    +0.076 C 
ATOM     29  C   UNL     1      33.954  13.165   2.118  0.00  0.00    +0.177 C 
ATOM     30  O   UNL     1      35.367  13.309   2.071  0.00  0.00    -0.221 OA
ATOM     31  C   UNL     1      33.322  13.316   0.699  0.00  0.00    +0.155 C 
BRANCH  31  32
ATOM     32  N   UNL     1      33.893  12.334  -0.218  0.00  0.00    -0.202 NA
ATOM     33  C   UNL     1      34.804  12.500  -1.210  0.00  0.00    +0.242 C 
ATOM     34  C   UNL     1      35.441  11.273  -1.809  0.00  0.00    +0.096 C 
ATOM     35  O   UNL     1      35.087  13.633  -1.592  0.00  0.00    -0.273 OA
ENDBRANCH  31  32
BRANCH  27  36
ATOM     36  C   UNL     1      31.456  12.665   4.004  0.00  0.00    +0.391 C 
ATOM     37  O   UNL     1      32.389  12.617   4.974  0.00  0.00    -0.243 OA
ATOM     38  O   UNL     1      30.219  12.313   3.630  0.00  0.00    -0.243 OA
ENDBRANCH  27  36
ENDBRANCH  23  25
ENDBRANCH  21  23
ENDBRANCH  20  21
ENDBRANCH   2  20
TORSDOF 11
