REMARK VINA RESULT:    -6.180     22.064     25.543
REMARK INTER + INTRA:         -11.843
REMARK INTER:                  -9.788
REMARK INTRA:                  -2.054
REMARK UNBOUND:                -1.689
REMARK  Name = lig_assembled_49.pdb
REMARK  11 active torsions:
REMARK  status: ('A' for Active; 'I' for Inactive)
REMARK    1  A    between atoms: _2  and  _8
REMARK    2  A    between atoms: _5  and  _6
REMARK    3  A    between atoms: _5  and  _12
REMARK    4  A    between atoms: _12  and  _14
REMARK    5  A    between atoms: _13  and  _18
REMARK    6  A    between atoms: _14  and  _17
REMARK    7  A    between atoms: _22  and  _32
REMARK    8  A    between atoms: _24  and  _25
REMARK    9  A    between atoms: _26  and  _28
REMARK   10  A    between atoms: _28  and  _30
REMARK   11  A    between atoms: _30  and  _32
REMARK                            x       y       z     vdW  Elec       q    Type
REMARK                         _______ _______ _______ _____ _____    ______ ____
ROOT
ATOM      1  C   UNL     1      45.494  26.631  11.991  0.00  0.00    +0.152 C 
ENDROOT
BRANCH   1   3
ATOM      2  C   UNL     1      46.416  29.176  11.647  0.00  0.00    +0.400 C 
ATOM      3  N   UNL     1      45.959  27.897  11.431  0.00  0.00    -0.278 N 
ATOM      4  H   UNL     1      45.966  27.808  10.366  0.00  0.00    +0.152 HD
ATOM      5  O   UNL     1      46.865  29.800  10.689  0.00  0.00    -0.226 OA
BRANCH   2   6
ATOM      6  O   UNL     1      46.296  29.616  12.857  0.00  0.00    -0.450 OA
BRANCH   6   7
ATOM      7  C   UNL     1      47.023  29.635  14.063  0.00  0.00    +0.240 C 
BRANCH   7   8
ATOM      8  C   UNL     1      47.585  28.295  14.576  0.00  0.00    +0.100 C 
BRANCH   8  10
ATOM      9  N   UNL     1      45.338  27.854  15.511  0.00  0.00    -0.134 NA
ATOM     10  C   UNL     1      46.698  27.728  15.608  0.00  0.00    +0.086 A 
ATOM     11  C   UNL     1      47.005  27.037  16.759  0.00  0.00    +0.134 A 
ATOM     12  N   UNL     1      45.789  26.777  17.321  0.00  0.00    -0.248 N 
ATOM     13  N   UNL     1      44.791  27.269  16.567  0.00  0.00    -0.065 NA
BRANCH  12  14
ATOM     14  C   UNL     1      45.519  26.099  18.566  0.00  0.00    +0.109 C 
ATOM     15  C   UNL     1      44.034  25.842  18.822  0.00  0.00    +0.027 C 
ATOM     16  C   UNL     1      44.056  24.773  19.902  0.00  0.00    +0.002 C 
ATOM     17  C   UNL     1      45.201  23.856  19.495  0.00  0.00    +0.002 C 
ATOM     18  C   UNL     1      46.178  24.718  18.691  0.00  0.00    +0.027 C 
ENDBRANCH  12  14
ENDBRANCH   8  10
ENDBRANCH   7   8
ENDBRANCH   6   7
ENDBRANCH   2   6
ENDBRANCH   1   3
BRANCH   1  19
ATOM     19  C   UNL     1      45.313  25.471  10.991  0.00  0.00    +0.193 C 
ATOM     20  O   UNL     1      44.508  25.981   9.905  0.00  0.00    -0.219 OA
BRANCH  19  21
ATOM     21  C   UNL     1      46.579  24.914  10.304  0.00  0.00    +0.212 C 
ATOM     22  O   UNL     1      47.753  25.570  10.809  0.00  0.00    -0.218 OA
BRANCH  21  23
ATOM     23  C   UNL     1      46.755  23.358  10.485  0.00  0.00    +0.171 C 
ATOM     24  O   UNL     1      45.899  22.607   9.630  0.00  0.00    -0.343 OA
ATOM     25  C   UNL     1      45.672  21.234   9.750  0.00  0.00    +0.220 C 
ATOM     26  C   UNL     1      45.291  20.843  11.189  0.00  0.00    +0.076 C 
ATOM     27  C   UNL     1      46.376  21.404  12.123  0.00  0.00    +0.177 C 
ATOM     28  O   UNL     1      46.093  21.036  13.466  0.00  0.00    -0.221 OA
ATOM     29  C   UNL     1      46.470  22.954  11.968  0.00  0.00    +0.155 C 
BRANCH  29  30
ATOM     30  N   UNL     1      47.494  23.492  12.859  0.00  0.00    -0.202 NA
ATOM     31  C   UNL     1      47.368  24.047  14.092  0.00  0.00    +0.242 C 
ATOM     32  C   UNL     1      48.614  24.249  14.916  0.00  0.00    +0.096 C 
ATOM     33  O   UNL     1      46.255  24.366  14.504  0.00  0.00    -0.273 OA
ENDBRANCH  29  30
BRANCH  25  34
ATOM     34  C   UNL     1      46.894  20.324   9.188  0.00  0.00    +0.391 C 
ATOM     35  O   UNL     1      46.636  19.080   9.635  0.00  0.00    -0.243 OA
ATOM     36  O   UNL     1      47.515  21.069   8.264  0.00  0.00    -0.243 OA
ENDBRANCH  25  34
ENDBRANCH  21  23
ENDBRANCH  19  21
ENDBRANCH   1  19
TORSDOF 11
