REMARK VINA RESULT:    -6.630      2.778      3.978
REMARK INTER + INTRA:         -12.744
REMARK INTER:                 -10.898
REMARK INTRA:                  -1.845
REMARK UNBOUND:                -1.850
REMARK  Name = lig_assembled_2.pdb
REMARK  11 active torsions:
REMARK  status: ('A' for Active; 'I' for Inactive)
REMARK    1  A    between atoms: _2  and  _8
REMARK    2  A    between atoms: _5  and  _6
REMARK    3  A    between atoms: _5  and  _13
REMARK    4  A    between atoms: _13  and  _15
REMARK    5  A    between atoms: _14  and  _19
REMARK    6  A    between atoms: _15  and  _18
REMARK    7  A    between atoms: _23  and  _33
REMARK    8  A    between atoms: _25  and  _26
REMARK    9  A    between atoms: _27  and  _29
REMARK   10  A    between atoms: _29  and  _31
REMARK   11  A    between atoms: _31  and  _33
REMARK                            x       y       z     vdW  Elec       q    Type
REMARK                         _______ _______ _______ _____ _____    ______ ____
ROOT
ATOM      1  C   UNL     1      28.058  13.421   2.642  0.00  0.00    +0.400 C 
ATOM      2  N   UNL     1      28.237  14.308   1.606  0.00  0.00    -0.278 N 
ATOM      3  H   UNL     1      27.660  15.157   1.905  0.00  0.00    +0.152 HD
ATOM      4  O   UNL     1      27.497  13.823   3.658  0.00  0.00    -0.226 OA
ENDROOT
BRANCH   1   5
ATOM      5  O   UNL     1      28.479  12.218   2.427  0.00  0.00    -0.450 OA
BRANCH   5   6
ATOM      6  C   UNL     1      28.038  11.024   1.823  0.00  0.00    +0.240 C 
BRANCH   6   7
ATOM      7  C   UNL     1      26.916  10.241   2.530  0.00  0.00    +0.100 C 
BRANCH   7   9
ATOM      8  N   UNL     1      24.536   9.711   2.110  0.00  0.00    -0.134 NA
ATOM      9  C   UNL     1      25.617  10.513   1.885  0.00  0.00    +0.086 A 
ATOM     10  C   UNL     1      25.257  11.523   1.023  0.00  0.00    +0.139 A 
ATOM     11  N   UNL     1      23.921  11.312   0.767  0.00  0.00    -0.220 N 
ATOM     12  N   UNL     1      23.512  10.199   1.422  0.00  0.00    -0.061 NA
BRANCH  11  13
ATOM     13  C   UNL     1      23.032  12.096  -0.014  0.00  0.00    +0.067 A 
ATOM     14  C   UNL     1      23.516  12.949  -1.018  0.00  0.00    +0.029 A 
ATOM     15  C   UNL     1      22.625  13.742  -1.751  0.00  0.00    +0.022 A 
ATOM     16  C   UNL     1      21.258  13.683  -1.487  0.00  0.00    +0.041 A 
ATOM     17 CL   UNL     1      20.174  14.677  -2.378  0.00  0.00    -0.084 Cl
ATOM     18  C   UNL     1      20.768  12.828  -0.503  0.00  0.00    +0.022 A 
ATOM     19  C   UNL     1      21.651  12.033   0.234  0.00  0.00    +0.029 A 
ENDBRANCH  11  13
ENDBRANCH   7   9
ENDBRANCH   6   7
ENDBRANCH   5   6
ENDBRANCH   1   5
BRANCH   2  20
ATOM     20  C   UNL     1      28.860  14.609   0.320  0.00  0.00    +0.152 C 
BRANCH  20  21
ATOM     21  C   UNL     1      30.261  14.008   0.085  0.00  0.00    +0.193 C 
ATOM     22  O   UNL     1      30.459  13.963  -1.345  0.00  0.00    -0.219 OA
BRANCH  21  23
ATOM     23  C   UNL     1      31.476  14.798   0.618  0.00  0.00    +0.212 C 
ATOM     24  O   UNL     1      31.041  15.956   1.350  0.00  0.00    -0.218 OA
BRANCH  23  25
ATOM     25  C   UNL     1      32.420  13.941   1.545  0.00  0.00    +0.171 C 
ATOM     26  O   UNL     1      32.657  14.559   2.806  0.00  0.00    -0.343 OA
ATOM     27  C   UNL     1      33.635  14.147   3.714  0.00  0.00    +0.220 C 
ATOM     28  C   UNL     1      35.012  14.001   3.043  0.00  0.00    +0.076 C 
ATOM     29  C   UNL     1      34.836  13.084   1.821  0.00  0.00    +0.177 C 
ATOM     30  O   UNL     1      36.090  12.882   1.185  0.00  0.00    -0.221 OA
ATOM     31  C   UNL     1      33.792  13.696   0.836  0.00  0.00    +0.155 C 
BRANCH  31  32
ATOM     32  N   UNL     1      33.627  12.831  -0.330  0.00  0.00    -0.202 NA
ATOM     33  C   UNL     1      33.772  13.116  -1.649  0.00  0.00    +0.242 C 
ATOM     34  C   UNL     1      33.831  11.970  -2.626  0.00  0.00    +0.096 C 
ATOM     35  O   UNL     1      33.852  14.288  -2.013  0.00  0.00    -0.273 OA
ENDBRANCH  31  32
BRANCH  27  36
ATOM     36  C   UNL     1      33.229  12.809   4.540  0.00  0.00    +0.391 C 
ATOM     37  O   UNL     1      34.365  12.416   5.147  0.00  0.00    -0.243 OA
ATOM     38  O   UNL     1      31.890  12.775   4.553  0.00  0.00    -0.243 OA
ENDBRANCH  27  36
ENDBRANCH  23  25
ENDBRANCH  21  23
ENDBRANCH  20  21
ENDBRANCH   2  20
TORSDOF 11
