REMARK VINA RESULT:    -6.100      2.332      9.680
REMARK INTER + INTRA:         -13.578
REMARK INTER:                 -11.208
REMARK INTRA:                  -2.370
REMARK UNBOUND:                -2.486
REMARK  Name = lig_assembled_29.pdb
REMARK  16 active torsions:
REMARK  status: ('A' for Active; 'I' for Inactive)
REMARK    1  A    between atoms: _2  and  _8
REMARK    2  A    between atoms: _5  and  _6
REMARK    3  A    between atoms: _5  and  _18
REMARK    4  A    between atoms: _8  and  _9
REMARK    5  A    between atoms: _11  and  _17
REMARK    6  A    between atoms: _12  and  _17
REMARK    7  A    between atoms: _13  and  _16
REMARK    8  A    between atoms: _14  and  _16
REMARK    9  A    between atoms: _18  and  _20
REMARK   10  A    between atoms: _19  and  _24
REMARK   11  A    between atoms: _20  and  _23
REMARK   12  A    between atoms: _28  and  _38
REMARK   13  A    between atoms: _30  and  _31
REMARK   14  A    between atoms: _32  and  _34
REMARK   15  A    between atoms: _34  and  _36
REMARK   16  A    between atoms: _36  and  _38
REMARK                            x       y       z     vdW  Elec       q    Type
REMARK                         _______ _______ _______ _____ _____    ______ ____
ROOT
ATOM      1  C   UNL     1      25.364  15.401  -3.227  0.00  0.00    +0.400 C 
ATOM      2  N   UNL     1      25.665  14.094  -2.923  0.00  0.00    -0.278 N 
ATOM      3  H   UNL     1      24.817  13.769  -2.361  0.00  0.00    +0.152 HD
ATOM      4  O   UNL     1      24.230  15.805  -2.983  0.00  0.00    -0.226 OA
ENDROOT
BRANCH   2   5
ATOM      5  C   UNL     1      26.596  12.974  -3.034  0.00  0.00    +0.152 C 
BRANCH   5   6
ATOM      6  C   UNL     1      26.125  11.636  -2.426  0.00  0.00    +0.193 C 
ATOM      7  O   UNL     1      27.313  10.854  -2.174  0.00  0.00    -0.219 OA
BRANCH   6   8
ATOM      8  C   UNL     1      25.400  11.686  -1.064  0.00  0.00    +0.212 C 
ATOM      9  O   UNL     1      25.763  12.876  -0.345  0.00  0.00    -0.218 OA
BRANCH   8  10
ATOM     10  C   UNL     1      23.830  11.633  -1.190  0.00  0.00    +0.171 C 
ATOM     11  O   UNL     1      23.316  12.637  -2.059  0.00  0.00    -0.343 OA
ATOM     12  C   UNL     1      21.964  12.972  -2.164  0.00  0.00    +0.220 C 
ATOM     13  C   UNL     1      21.333  13.236  -0.785  0.00  0.00    +0.076 C 
ATOM     14  C   UNL     1      21.631  12.014   0.100  0.00  0.00    +0.177 C 
ATOM     15  O   UNL     1      21.034  12.189   1.378  0.00  0.00    -0.221 OA
ATOM     16  C   UNL     1      23.172  11.799   0.219  0.00  0.00    +0.155 C 
BRANCH  16  17
ATOM     17  N   UNL     1      23.458  10.643   1.066  0.00  0.00    -0.202 NA
ATOM     18  C   UNL     1      24.135  10.575   2.240  0.00  0.00    +0.242 C 
ATOM     19  C   UNL     1      24.032   9.310   3.053  0.00  0.00    +0.096 C 
ATOM     20  O   UNL     1      24.808  11.535   2.611  0.00  0.00    -0.273 OA
ENDBRANCH  16  17
BRANCH  12  21
ATOM     21  C   UNL     1      21.096  11.901  -3.023  0.00  0.00    +0.391 C 
ATOM     22  O   UNL     1      21.939  10.876  -3.255  0.00  0.00    -0.243 OA
ATOM     23  O   UNL     1      19.819  12.289  -2.917  0.00  0.00    -0.243 OA
ENDBRANCH  12  21
ENDBRANCH   8  10
ENDBRANCH   6   8
ENDBRANCH   5   6
ENDBRANCH   2   5
BRANCH   1  24
ATOM     24  O   UNL     1      26.333  16.098  -3.723  0.00  0.00    -0.450 OA
BRANCH  24  25
ATOM     25  C   UNL     1      27.036  17.289  -3.458  0.00  0.00    +0.240 C 
BRANCH  25  26
ATOM     26  C   UNL     1      27.121  17.753  -1.991  0.00  0.00    +0.100 C 
BRANCH  26  28
ATOM     27  N   UNL     1      29.367  17.695  -0.943  0.00  0.00    -0.134 NA
ATOM     28  C   UNL     1      28.211  17.048  -1.290  0.00  0.00    +0.086 A 
ATOM     29  C   UNL     1      28.275  15.745  -0.857  0.00  0.00    +0.134 A 
ATOM     30  N   UNL     1      29.455  15.685  -0.173  0.00  0.00    -0.247 N 
ATOM     31  N   UNL     1      30.130  16.844  -0.266  0.00  0.00    -0.065 NA
BRANCH  30  32
ATOM     32  C   UNL     1      29.974  14.589   0.625  0.00  0.00    +0.180 C 
BRANCH  32  33
ATOM     33  C   UNL     1      31.229  14.021   0.002  0.00  0.00    -0.022 A 
ATOM     34  C   UNL     1      32.479  14.231   0.611  0.00  0.00    +0.054 A 
ATOM     35  C   UNL     1      33.639  13.644   0.087  0.00  0.00    +0.162 A 
ATOM     36  C   UNL     1      33.554  12.841  -1.068  0.00  0.00    +0.162 A 
ATOM     37  C   UNL     1      32.310  12.633  -1.671  0.00  0.00    +0.050 A 
ATOM     38  C   UNL     1      31.157  13.220  -1.142  0.00  0.00    +0.009 A 
BRANCH  36  39
ATOM     39  O   UNL     1      34.734  12.306  -1.523  0.00  0.00    -0.491 OA
ATOM     40  C   UNL     1      35.251  12.797  -2.751  0.00  0.00    +0.277 C 
ENDBRANCH  36  39
BRANCH  35  41
ATOM     41  O   UNL     1      34.891  13.783   0.634  0.00  0.00    -0.491 OA
ATOM     42  C   UNL     1      35.152  13.130   1.869  0.00  0.00    +0.277 C 
ENDBRANCH  35  41
ENDBRANCH  32  33
ENDBRANCH  30  32
ENDBRANCH  26  28
ENDBRANCH  25  26
ENDBRANCH  24  25
ENDBRANCH   1  24
TORSDOF 14
