REMARK VINA RESULT:    -6.818      2.531     10.335
REMARK INTER + INTRA:         -15.161
REMARK INTER:                 -13.064
REMARK INTRA:                  -2.097
REMARK UNBOUND:                -1.965
REMARK  Name = lig_assembled_11.pdb
REMARK  17 active torsions:
REMARK  status: ('A' for Active; 'I' for Inactive)
REMARK    1  A    between atoms: _2  and  _8
REMARK    2  A    between atoms: _4  and  _8
REMARK    3  A    between atoms: _4  and  _12
REMARK    4  A    between atoms: _5  and  _6
REMARK    5  A    between atoms: _5  and  _16
REMARK    6  A    between atoms: _8  and  _9
REMARK    7  A    between atoms: _9  and  _10
REMARK    8  A    between atoms: _10  and  _11
REMARK    9  A    between atoms: _11  and  _14
REMARK   10  A    between atoms: _16  and  _18
REMARK   11  A    between atoms: _17  and  _22
REMARK   12  A    between atoms: _18  and  _21
REMARK   13  A    between atoms: _26  and  _36
REMARK   14  A    between atoms: _28  and  _29
REMARK   15  A    between atoms: _30  and  _32
REMARK   16  A    between atoms: _32  and  _34
REMARK   17  A    between atoms: _34  and  _36
REMARK                            x       y       z     vdW  Elec       q    Type
REMARK                         _______ _______ _______ _____ _____    ______ ____
ROOT
ATOM      1  C   UNL     1      27.954  17.819  -0.839  0.00  0.00    +0.400 C 
ATOM      2  N   UNL     1      27.172  17.560  -1.940  0.00  0.00    -0.278 N 
ATOM      3  H   UNL     1      26.178  17.721  -1.581  0.00  0.00    +0.152 HD
ATOM      4  O   UNL     1      27.417  18.312   0.150  0.00  0.00    -0.226 OA
ENDROOT
BRANCH   1   5
ATOM      5  O   UNL     1      29.198  17.484  -0.944  0.00  0.00    -0.450 OA
BRANCH   5   6
ATOM      6  C   UNL     1      30.183  16.794  -0.211  0.00  0.00    +0.240 C 
BRANCH   6   7
ATOM      7  C   UNL     1      29.857  15.359   0.244  0.00  0.00    +0.100 C 
BRANCH   7   9
ATOM      8  N   UNL     1      32.065  14.245   0.321  0.00  0.00    -0.134 NA
ATOM      9  C   UNL     1      30.997  14.782   0.982  0.00  0.00    +0.086 A 
ATOM     10  C   UNL     1      31.209  14.680   2.338  0.00  0.00    +0.134 A 
ATOM     11  N   UNL     1      32.405  14.031   2.443  0.00  0.00    -0.238 N 
ATOM     12  N   UNL     1      32.929  13.799   1.224  0.00  0.00    -0.065 NA
BRANCH  11  13
ATOM     13  C   UNL     1      33.206  13.709   3.621  0.00  0.00    +0.217 C 
BRANCH  13  14
ATOM     14  C   UNL     1      34.703  13.867   3.405  0.00  0.00    +0.330 C 
ATOM     15  O   UNL     1      35.565  13.074   3.753  0.00  0.00    -0.249 OA
BRANCH  14  16
ATOM     16  O   UNL     1      35.051  15.016   2.772  0.00  0.00    -0.479 OA
ATOM     17  H   UNL     1      34.443  15.346   2.082  0.00  0.00    +0.295 HD
ENDBRANCH  14  16
ENDBRANCH  13  14
BRANCH  13  18
ATOM     18  C   UNL     1      32.833  12.335   4.209  0.00  0.00    +0.049 C 
BRANCH  18  19
ATOM     19  C   UNL     1      32.048  12.389   5.525  0.00  0.00    +0.123 C 
BRANCH  19  20
ATOM     20  C   UNL     1      32.983  12.354   6.714  0.00  0.00    +0.305 C 
ATOM     21  O   UNL     1      33.120  11.401   7.464  0.00  0.00    -0.251 OA
BRANCH  20  22
ATOM     22  O   UNL     1      33.649  13.517   6.886  0.00  0.00    -0.481 OA
ATOM     23  H   UNL     1      34.228  13.540   7.671  0.00  0.00    +0.295 HD
ENDBRANCH  20  22
ENDBRANCH  19  20
ENDBRANCH  18  19
ENDBRANCH  13  18
ENDBRANCH  11  13
ENDBRANCH   7   9
ENDBRANCH   6   7
ENDBRANCH   5   6
ENDBRANCH   1   5
BRANCH   2  24
ATOM     24  C   UNL     1      27.093  17.187  -3.350  0.00  0.00    +0.152 C 
BRANCH  24  25
ATOM     25  C   UNL     1      26.058  16.101  -3.708  0.00  0.00    +0.193 C 
ATOM     26  O   UNL     1      26.092  15.952  -5.145  0.00  0.00    -0.219 OA
BRANCH  25  27
ATOM     27  C   UNL     1      26.302  14.674  -3.168  0.00  0.00    +0.212 C 
ATOM     28  O   UNL     1      27.039  14.724  -1.935  0.00  0.00    -0.218 OA
BRANCH  27  29
ATOM     29  C   UNL     1      24.972  13.862  -2.928  0.00  0.00    +0.171 C 
ATOM     30  O   UNL     1      24.017  14.588  -2.162  0.00  0.00    -0.343 OA
ATOM     31  C   UNL     1      22.867  14.029  -1.601  0.00  0.00    +0.220 C 
ATOM     32  C   UNL     1      23.186  12.758  -0.795  0.00  0.00    +0.076 C 
ATOM     33  C   UNL     1      23.983  11.815  -1.712  0.00  0.00    +0.177 C 
ATOM     34  O   UNL     1      24.270  10.605  -1.027  0.00  0.00    -0.221 OA
ATOM     35  C   UNL     1      25.290  12.516  -2.197  0.00  0.00    +0.155 C 
BRANCH  35  36
ATOM     36  N   UNL     1      26.053  11.622  -3.063  0.00  0.00    -0.202 NA
ATOM     37  C   UNL     1      27.274  11.060  -2.871  0.00  0.00    +0.242 C 
ATOM     38  C   UNL     1      27.700   9.944  -3.789  0.00  0.00    +0.096 C 
ATOM     39  O   UNL     1      27.994  11.468  -1.962  0.00  0.00    -0.273 OA
ENDBRANCH  35  36
BRANCH  31  40
ATOM     40  C   UNL     1      21.681  13.769  -2.680  0.00  0.00    +0.391 C 
ATOM     41  O   UNL     1      20.809  12.958  -2.050  0.00  0.00    -0.243 OA
ATOM     42  O   UNL     1      21.857  14.676  -3.649  0.00  0.00    -0.243 OA
ENDBRANCH  31  40
ENDBRANCH  27  29
ENDBRANCH  25  27
ENDBRANCH  24  25
ENDBRANCH   2  24
TORSDOF 17
