REMARK VINA RESULT:    -8.557      2.008      4.451
REMARK INTER + INTRA:         -15.821
REMARK INTER:                 -14.000
REMARK INTRA:                  -1.822
REMARK UNBOUND:                -1.762
REMARK  Name = lig_assembled_25.pdb
REMARK  11 active torsions:
REMARK  status: ('A' for Active; 'I' for Inactive)
REMARK    1  A    between atoms: _2  and  _8
REMARK    2  A    between atoms: _5  and  _6
REMARK    3  A    between atoms: _5  and  _20
REMARK    4  A    between atoms: _20  and  _22
REMARK    5  A    between atoms: _21  and  _26
REMARK    6  A    between atoms: _22  and  _25
REMARK    7  A    between atoms: _30  and  _40
REMARK    8  A    between atoms: _32  and  _33
REMARK    9  A    between atoms: _34  and  _36
REMARK   10  A    between atoms: _36  and  _38
REMARK   11  A    between atoms: _38  and  _40
REMARK                            x       y       z     vdW  Elec       q    Type
REMARK                         _______ _______ _______ _____ _____    ______ ____
ROOT
ATOM      1  C   UNL     1      28.322  17.728  -0.530  0.00  0.00    +0.400 C 
ATOM      2  N   UNL     1      29.500  17.497   0.140  0.00  0.00    -0.278 N 
ATOM      3  H   UNL     1      29.427  18.135   0.995  0.00  0.00    +0.152 HD
ATOM      4  O   UNL     1      27.456  18.393   0.033  0.00  0.00    -0.226 OA
ENDROOT
BRANCH   1   5
ATOM      5  O   UNL     1      28.252  17.239  -1.724  0.00  0.00    -0.450 OA
BRANCH   5   6
ATOM      6  C   UNL     1      27.444  16.360  -2.473  0.00  0.00    +0.240 C 
BRANCH   6   7
ATOM      7  C   UNL     1      26.304  16.978  -3.305  0.00  0.00    +0.100 C 
BRANCH   7   9
ATOM      8  N   UNL     1      25.427  15.310  -4.902  0.00  0.00    -0.134 NA
ATOM      9  C   UNL     1      25.328  15.942  -3.691  0.00  0.00    +0.086 A 
ATOM     10  C   UNL     1      24.229  15.457  -3.017  0.00  0.00    +0.134 A 
ATOM     11  N   UNL     1      23.686  14.543  -3.877  0.00  0.00    -0.240 N 
ATOM     12  N   UNL     1      24.422  14.454  -5.007  0.00  0.00    -0.065 NA
BRANCH  11  13
ATOM     13  C   UNL     1      22.455  13.778  -3.770  0.00  0.00    +0.170 C 
ATOM     14  C   UNL     1      21.226  14.599  -4.135  0.00  0.00    -0.011 A 
ATOM     15  C   UNL     1      20.298  14.576  -3.070  0.00  0.00    -0.012 A 
ATOM     16  C   UNL     1      20.848  13.791  -1.983  0.00  0.00    -0.012 A 
ATOM     17  C   UNL     1      20.302  13.454  -0.755  0.00  0.00    +0.009 A 
ATOM     18  C   UNL     1      21.050  12.645   0.104  0.00  0.00    +0.001 A 
ATOM     19  C   UNL     1      22.326  12.187  -0.264  0.00  0.00    +0.000 A 
ATOM     20  C   UNL     1      22.879  12.525  -1.501  0.00  0.00    +0.006 A 
ATOM     21  C   UNL     1      19.086  15.238  -3.180  0.00  0.00    +0.009 A 
ATOM     22  C   UNL     1      18.808  15.922  -4.368  0.00  0.00    +0.001 A 
ATOM     23  C   UNL     1      19.733  15.939  -5.425  0.00  0.00    +0.000 A 
ATOM     24  C   UNL     1      20.953  15.271  -5.318  0.00  0.00    +0.006 A 
ATOM     25  C   UNL     1      22.133  13.329  -2.351  0.00  0.00    -0.011 A 
ENDBRANCH  11  13
ENDBRANCH   7   9
ENDBRANCH   6   7
ENDBRANCH   5   6
ENDBRANCH   1   5
BRANCH   2  26
ATOM     26  C   UNL     1      30.769  16.777   0.214  0.00  0.00    +0.152 C 
BRANCH  26  27
ATOM     27  C   UNL     1      30.690  15.244   0.065  0.00  0.00    +0.193 C 
ATOM     28  O   UNL     1      31.636  14.878  -0.964  0.00  0.00    -0.219 OA
BRANCH  27  29
ATOM     29  C   UNL     1      31.095  14.385   1.283  0.00  0.00    +0.212 C 
ATOM     30  O   UNL     1      31.407  15.224   2.407  0.00  0.00    -0.218 OA
BRANCH  29  31
ATOM     31  C   UNL     1      29.984  13.354   1.717  0.00  0.00    +0.171 C 
ATOM     32  O   UNL     1      28.682  13.929   1.738  0.00  0.00    -0.343 OA
ATOM     33  C   UNL     1      27.562  13.322   2.310  0.00  0.00    +0.220 C 
ATOM     34  C   UNL     1      27.843  12.845   3.746  0.00  0.00    +0.076 C 
ATOM     35  C   UNL     1      29.104  11.967   3.704  0.00  0.00    +0.177 C 
ATOM     36  O   UNL     1      29.386  11.466   5.003  0.00  0.00    -0.221 OA
ATOM     37  C   UNL     1      30.308  12.782   3.136  0.00  0.00    +0.155 C 
BRANCH  37  38
ATOM     38  N   UNL     1      31.510  11.953   3.101  0.00  0.00    -0.202 NA
ATOM     39  C   UNL     1      32.650  12.046   3.831  0.00  0.00    +0.242 C 
ATOM     40  C   UNL     1      33.613  10.888   3.804  0.00  0.00    +0.096 C 
ATOM     41  O   UNL     1      32.867  13.060   4.492  0.00  0.00    -0.273 OA
ENDBRANCH  37  38
BRANCH  33  42
ATOM     42  C   UNL     1      26.933  12.133   1.399  0.00  0.00    +0.391 C 
ATOM     43  O   UNL     1      26.096  11.471   2.221  0.00  0.00    -0.243 OA
ATOM     44  O   UNL     1      27.241  12.436   0.132  0.00  0.00    -0.243 OA
ENDBRANCH  33  42
ENDBRANCH  29  31
ENDBRANCH  27  29
ENDBRANCH  26  27
ENDBRANCH   2  26
TORSDOF 11
