REMARK VINA RESULT:    -6.413      3.336      8.522
REMARK INTER + INTRA:         -14.199
REMARK INTER:                 -11.736
REMARK INTRA:                  -2.463
REMARK UNBOUND:                -2.913
REMARK  Name = lig_assembled_92.pdb
REMARK  13 active torsions:
REMARK  status: ('A' for Active; 'I' for Inactive)
REMARK    1  A    between atoms: _2  and  _10
REMARK    2  A    between atoms: _3  and  _49
REMARK    3  A    between atoms: _7  and  _8
REMARK    4  A    between atoms: _7  and  _20
REMARK    5  A    between atoms: _13  and  _49
REMARK    6  A    between atoms: _20  and  _22
REMARK    7  A    between atoms: _21  and  _26
REMARK    8  A    between atoms: _22  and  _25
REMARK    9  A    between atoms: _30  and  _40
REMARK   10  A    between atoms: _32  and  _33
REMARK   11  A    between atoms: _34  and  _36
REMARK   12  A    between atoms: _36  and  _38
REMARK   13  A    between atoms: _38  and  _40
REMARK                            x       y       z     vdW  Elec       q    Type
REMARK                         _______ _______ _______ _____ _____    ______ ____
ROOT
ATOM      1  O   UNL     1      25.226  15.439  -4.977  0.00  0.00    -0.450 OA
ENDROOT
BRANCH   1   2
ATOM      2  C   UNL     1      24.368  14.562  -4.568  0.00  0.00    +0.400 C 
ATOM      3  N   UNL     1      24.900  13.432  -3.993  0.00  0.00    -0.278 N 
ATOM      4  H   UNL     1      24.050  12.952  -3.560  0.00  0.00    +0.152 HD
ATOM      5  O   UNL     1      23.145  14.664  -4.622  0.00  0.00    -0.226 OA
BRANCH   3   6
ATOM      6  C   UNL     1      26.075  12.606  -3.728  0.00  0.00    +0.152 C 
BRANCH   6   7
ATOM      7  C   UNL     1      25.925  11.547  -2.617  0.00  0.00    +0.193 C 
ATOM      8  O   UNL     1      27.259  11.116  -2.271  0.00  0.00    -0.219 OA
BRANCH   7   9
ATOM      9  C   UNL     1      25.305  11.999  -1.277  0.00  0.00    +0.212 C 
ATOM     10  O   UNL     1      25.494  13.411  -1.088  0.00  0.00    -0.218 OA
BRANCH   9  11
ATOM     11  C   UNL     1      23.767  11.676  -1.159  0.00  0.00    +0.171 C 
ATOM     12  O   UNL     1      22.958  12.585  -1.897  0.00  0.00    -0.343 OA
ATOM     13  C   UNL     1      21.570  12.682  -1.777  0.00  0.00    +0.220 C 
ATOM     14  C   UNL     1      21.133  12.815  -0.307  0.00  0.00    +0.076 C 
ATOM     15  C   UNL     1      21.771  11.654   0.472  0.00  0.00    +0.177 C 
ATOM     16  O   UNL     1      21.366  11.707   1.833  0.00  0.00    -0.221 OA
ATOM     17  C   UNL     1      23.325  11.708   0.341  0.00  0.00    +0.155 C 
BRANCH  17  18
ATOM     18  N   UNL     1      23.935  10.610   1.086  0.00  0.00    -0.202 NA
ATOM     19  C   UNL     1      24.797  10.646   2.134  0.00  0.00    +0.242 C 
ATOM     20  C   UNL     1      25.041   9.374   2.904  0.00  0.00    +0.096 C 
ATOM     21  O   UNL     1      25.351  11.703   2.429  0.00  0.00    -0.273 OA
ENDBRANCH  17  18
BRANCH  13  22
ATOM     22  C   UNL     1      20.770  11.486  -2.531  0.00  0.00    +0.391 C 
ATOM     23  O   UNL     1      19.705  12.085  -3.099  0.00  0.00    -0.243 OA
ATOM     24  O   UNL     1      21.607  10.442  -2.561  0.00  0.00    -0.243 OA
ENDBRANCH  13  22
ENDBRANCH   9  11
ENDBRANCH   7   9
ENDBRANCH   6   7
ENDBRANCH   3   6
ENDBRANCH   1   2
BRANCH   1  25
ATOM     25  C   UNL     1      26.393  16.085  -4.523  0.00  0.00    +0.240 C 
BRANCH  25  26
ATOM     26  C   UNL     1      26.219  17.252  -3.533  0.00  0.00    +0.100 C 
BRANCH  26  28
ATOM     27  N   UNL     1      27.528  18.166  -1.636  0.00  0.00    -0.134 NA
ATOM     28  C   UNL     1      27.139  17.098  -2.391  0.00  0.00    +0.086 A 
ATOM     29  C   UNL     1      27.726  15.959  -1.892  0.00  0.00    +0.139 A 
ATOM     30  N   UNL     1      28.452  16.380  -0.802  0.00  0.00    -0.220 N 
ATOM     31  N   UNL     1      28.331  17.724  -0.677  0.00  0.00    -0.061 NA
BRANCH  30  32
ATOM     32  C   UNL     1      29.199  15.597   0.115  0.00  0.00    +0.067 A 
ATOM     33  C   UNL     1      30.529  15.929   0.411  0.00  0.00    +0.030 A 
ATOM     34  C   UNL     1      31.279  15.123   1.267  0.00  0.00    +0.031 A 
ATOM     35  C   UNL     1      30.699  13.990   1.840  0.00  0.00    +0.109 A 
ATOM     36  C   UNL     1      29.373  13.652   1.563  0.00  0.00    +0.031 A 
ATOM     37  C   UNL     1      28.618  14.462   0.707  0.00  0.00    +0.030 A 
BRANCH  35  38
ATOM     38  S   UNL     1      31.726  12.909   2.800  0.00  0.00    +0.074 S 
ATOM     39  O   UNL     1      33.105  13.275   2.543  0.00  0.00    -0.150 OA
ATOM     40  O   UNL     1      31.225  12.878   4.155  0.00  0.00    -0.150 OA
BRANCH  38  41
ATOM     41  N   UNL     1      31.525  11.408   2.054  0.00  0.00    -0.194 N 
ATOM     42  H   UNL     1      32.450  11.118   1.745  0.00  0.00    +0.176 HD
ATOM     43  C   UNL     1      30.898  10.473   2.902  0.00  0.00    +0.177 A 
ATOM     44  S   UNL     1      31.771   9.315   3.806  0.00  0.00    -0.059 S 
ATOM     45  C   UNL     1      30.284   8.640   4.335  0.00  0.00    +0.068 A 
ATOM     46  C   UNL     1      29.238   9.297   3.721  0.00  0.00    +0.120 A 
ATOM     47  N   UNL     1      29.592  10.370   2.924  0.00  0.00    -0.232 NA
ENDBRANCH  38  41
ENDBRANCH  35  38
ENDBRANCH  30  32
ENDBRANCH  26  28
ENDBRANCH  25  26
ENDBRANCH   1  25
TORSDOF 13
