REMARK VINA RESULT:    -5.891      2.220      8.233
REMARK INTER + INTRA:         -13.466
REMARK INTER:                 -11.115
REMARK INTRA:                  -2.351
REMARK UNBOUND:                -1.720
REMARK  Name = lig_assembled_54.pdb
REMARK  19 active torsions:
REMARK  status: ('A' for Active; 'I' for Inactive)
REMARK    1  A    between atoms: _2  and  _8
REMARK    2  A    between atoms: _4  and  _13
REMARK    3  A    between atoms: _5  and  _6
REMARK    4  A    between atoms: _5  and  _16
REMARK    5  A    between atoms: _8  and  _9
REMARK    6  A    between atoms: _9  and  _10
REMARK    7  A    between atoms: _10  and  _14
REMARK    8  A    between atoms: _10  and  _15
REMARK    9  A    between atoms: _11  and  _12
REMARK   10  A    between atoms: _11  and  _15
REMARK   11  A    between atoms: _13  and  _14
REMARK   12  A    between atoms: _16  and  _18
REMARK   13  A    between atoms: _17  and  _22
REMARK   14  A    between atoms: _18  and  _21
REMARK   15  A    between atoms: _26  and  _36
REMARK   16  A    between atoms: _28  and  _29
REMARK   17  A    between atoms: _30  and  _32
REMARK   18  A    between atoms: _32  and  _34
REMARK   19  A    between atoms: _34  and  _36
REMARK                            x       y       z     vdW  Elec       q    Type
REMARK                         _______ _______ _______ _____ _____    ______ ____
ROOT
ATOM      1  C   UNL     1      27.497  17.343  -1.574  0.00  0.00    +0.400 C 
ATOM      2  N   UNL     1      26.424  16.928  -2.326  0.00  0.00    -0.278 N 
ATOM      3  H   UNL     1      25.753  17.759  -2.278  0.00  0.00    +0.152 HD
ATOM      4  O   UNL     1      27.533  18.517  -1.213  0.00  0.00    -0.226 OA
ENDROOT
BRANCH   1   5
ATOM      5  O   UNL     1      28.367  16.430  -1.287  0.00  0.00    -0.450 OA
BRANCH   5   6
ATOM      6  C   UNL     1      28.464  15.248  -0.527  0.00  0.00    +0.240 C 
BRANCH   6   7
ATOM      7  C   UNL     1      29.234  14.066  -1.146  0.00  0.00    +0.100 C 
BRANCH   7   9
ATOM      8  N   UNL     1      31.707  14.068  -1.280  0.00  0.00    -0.134 NA
ATOM      9  C   UNL     1      30.569  13.954  -0.527  0.00  0.00    +0.086 A 
ATOM     10  C   UNL     1      30.918  13.757   0.792  0.00  0.00    +0.133 A 
ATOM     11  N   UNL     1      32.280  13.798   0.780  0.00  0.00    -0.251 N 
ATOM     12  N   UNL     1      32.752  13.979  -0.467  0.00  0.00    -0.065 NA
BRANCH  11  13
ATOM     13  C   UNL     1      33.192  13.735   1.904  0.00  0.00    +0.150 C 
BRANCH  13  14
ATOM     14  C   UNL     1      32.451  13.751   3.233  0.00  0.00    +0.084 C 
BRANCH  14  15
ATOM     15  C   UNL     1      32.634  12.467   4.049  0.00  0.00    +0.252 C 
BRANCH  15  16
ATOM     16  O   UNL     1      33.738  11.712   3.540  0.00  0.00    -0.352 OA
BRANCH  16  17
ATOM     17  C   UNL     1      34.791  11.513   4.481  0.00  0.00    +0.159 C 
ATOM     18  C   UNL     1      34.243  11.716   5.879  0.00  0.00    +0.034 C 
ENDBRANCH  16  17
ENDBRANCH  15  16
BRANCH  15  19
ATOM     19  O   UNL     1      31.427  11.703   3.930  0.00  0.00    -0.352 OA
BRANCH  19  20
ATOM     20  C   UNL     1      30.255  12.502   4.105  0.00  0.00    +0.159 C 
ATOM     21  C   UNL     1      29.083  11.598   4.430  0.00  0.00    +0.034 C 
ENDBRANCH  19  20
ENDBRANCH  15  19
ENDBRANCH  14  15
ENDBRANCH  13  14
ENDBRANCH  11  13
ENDBRANCH   7   9
ENDBRANCH   6   7
ENDBRANCH   5   6
ENDBRANCH   1   5
BRANCH   2  22
ATOM     22  C   UNL     1      25.810  15.892  -3.152  0.00  0.00    +0.152 C 
BRANCH  22  23
ATOM     23  C   UNL     1      24.737  15.022  -2.466  0.00  0.00    +0.193 C 
ATOM     24  O   UNL     1      23.540  15.130  -3.268  0.00  0.00    -0.219 OA
BRANCH  23  25
ATOM     25  C   UNL     1      25.001  13.504  -2.370  0.00  0.00    +0.212 C 
ATOM     26  O   UNL     1      26.302  13.187  -2.893  0.00  0.00    -0.218 OA
BRANCH  25  27
ATOM     27  C   UNL     1      24.899  12.944  -0.900  0.00  0.00    +0.171 C 
ATOM     28  O   UNL     1      25.995  12.101  -0.558  0.00  0.00    -0.343 OA
ATOM     29  C   UNL     1      26.038  11.286   0.576  0.00  0.00    +0.220 C 
ATOM     30  C   UNL     1      24.773  10.419   0.703  0.00  0.00    +0.076 C 
ATOM     31  C   UNL     1      23.558  11.358   0.627  0.00  0.00    +0.177 C 
ATOM     32  O   UNL     1      22.361  10.610   0.781  0.00  0.00    -0.221 OA
ATOM     33  C   UNL     1      23.569  12.142  -0.722  0.00  0.00    +0.155 C 
BRANCH  33  34
ATOM     34  N   UNL     1      22.412  13.030  -0.801  0.00  0.00    -0.202 NA
ATOM     35  C   UNL     1      21.328  12.974  -1.616  0.00  0.00    +0.242 C 
ATOM     36  C   UNL     1      20.142  13.843  -1.291  0.00  0.00    +0.096 C 
ATOM     37  O   UNL     1      21.339  12.222  -2.590  0.00  0.00    -0.273 OA
ENDBRANCH  33  34
BRANCH  29  38
ATOM     38  C   UNL     1      26.344  12.101   1.947  0.00  0.00    +0.391 C 
ATOM     39  O   UNL     1      25.747  11.383   2.919  0.00  0.00    -0.243 OA
ATOM     40  O   UNL     1      27.302  12.986   1.646  0.00  0.00    -0.243 OA
ENDBRANCH  29  38
ENDBRANCH  25  27
ENDBRANCH  23  25
ENDBRANCH  22  23
ENDBRANCH   2  22
TORSDOF 17
