REMARK VINA RESULT:    -6.029      2.377      3.744
REMARK INTER + INTRA:         -12.169
REMARK INTER:                 -10.514
REMARK INTRA:                  -1.655
REMARK UNBOUND:                -2.263
REMARK  Name = lig_assembled_52.pdb
REMARK  11 active torsions:
REMARK  status: ('A' for Active; 'I' for Inactive)
REMARK    1  A    between atoms: _2  and  _9
REMARK    2  A    between atoms: _6  and  _7
REMARK    3  A    between atoms: _6  and  _13
REMARK    4  A    between atoms: _13  and  _15
REMARK    5  A    between atoms: _14  and  _19
REMARK    6  A    between atoms: _15  and  _18
REMARK    7  A    between atoms: _23  and  _33
REMARK    8  A    between atoms: _25  and  _26
REMARK    9  A    between atoms: _27  and  _29
REMARK   10  A    between atoms: _29  and  _31
REMARK   11  A    between atoms: _31  and  _33
REMARK                            x       y       z     vdW  Elec       q    Type
REMARK                         _______ _______ _______ _____ _____    ______ ____
ROOT
ATOM      1  C   UNL     1      28.171  14.548  -1.259  0.00  0.00    +0.152 C 
ENDROOT
BRANCH   1   3
ATOM      2  C   UNL     1      27.864  17.244  -0.974  0.00  0.00    +0.400 C 
ATOM      3  N   UNL     1      28.275  15.940  -0.829  0.00  0.00    -0.278 N 
ATOM      4  H   UNL     1      28.980  15.991  -0.028  0.00  0.00    +0.152 HD
ATOM      5  O   UNL     1      28.211  18.059  -0.122  0.00  0.00    -0.226 OA
BRANCH   2   6
ATOM      6  O   UNL     1      27.165  17.497  -2.031  0.00  0.00    -0.450 OA
BRANCH   6   7
ATOM      7  C   UNL     1      27.067  17.079  -3.373  0.00  0.00    +0.240 C 
BRANCH   7   8
ATOM      8  C   UNL     1      25.657  16.829  -3.939  0.00  0.00    +0.100 C 
BRANCH   8  10
ATOM      9  N   UNL     1      25.649  14.418  -3.384  0.00  0.00    -0.134 NA
ATOM     10  C   UNL     1      25.053  15.644  -3.302  0.00  0.00    +0.086 A 
ATOM     11  C   UNL     1      23.894  15.531  -2.569  0.00  0.00    +0.140 A 
ATOM     12  N   UNL     1      23.834  14.206  -2.201  0.00  0.00    -0.218 N 
ATOM     13  N   UNL     1      24.901  13.550  -2.717  0.00  0.00    -0.060 NA
BRANCH  12  14
ATOM     14  C   UNL     1      22.866  13.554  -1.408  0.00  0.00    +0.085 A 
ATOM     15  C   UNL     1      21.526  13.952  -1.398  0.00  0.00    +0.031 A 
ATOM     16  C   UNL     1      20.623  13.281  -0.576  0.00  0.00    +0.022 A 
ATOM     17  C   UNL     1      21.089  12.237   0.205  0.00  0.00    +0.111 A 
ATOM     18  N   UNL     1      22.373  11.825   0.212  0.00  0.00    -0.261 NA
ATOM     19  C   UNL     1      23.238  12.490  -0.594  0.00  0.00    +0.138 A 
ENDBRANCH  12  14
ENDBRANCH   8  10
ENDBRANCH   7   8
ENDBRANCH   6   7
ENDBRANCH   2   6
ENDBRANCH   1   3
BRANCH   1  20
ATOM     20  C   UNL     1      28.151  13.490  -0.137  0.00  0.00    +0.193 C 
ATOM     21  O   UNL     1      28.148  12.198  -0.784  0.00  0.00    -0.219 OA
BRANCH  20  22
ATOM     22  C   UNL     1      29.363  13.439   0.819  0.00  0.00    +0.212 C 
ATOM     23  O   UNL     1      29.540  14.707   1.473  0.00  0.00    -0.218 OA
BRANCH  22  24
ATOM     24  C   UNL     1      29.244  12.317   1.920  0.00  0.00    +0.171 C 
ATOM     25  O   UNL     1      27.926  12.206   2.448  0.00  0.00    -0.343 OA
ATOM     26  C   UNL     1      27.594  11.474   3.590  0.00  0.00    +0.220 C 
ATOM     27  C   UNL     1      28.503  11.829   4.780  0.00  0.00    +0.076 C 
ATOM     28  C   UNL     1      29.959  11.673   4.312  0.00  0.00    +0.177 C 
ATOM     29  O   UNL     1      30.844  11.951   5.388  0.00  0.00    -0.221 OA
ATOM     30  C   UNL     1      30.236  12.608   3.094  0.00  0.00    +0.155 C 
BRANCH  30  31
ATOM     31  N   UNL     1      31.620  12.468   2.650  0.00  0.00    -0.202 NA
ATOM     32  C   UNL     1      32.644  13.358   2.705  0.00  0.00    +0.242 C 
ATOM     33  C   UNL     1      34.042  12.857   2.450  0.00  0.00    +0.096 C 
ATOM     34  O   UNL     1      32.410  14.537   2.961  0.00  0.00    -0.273 OA
ENDBRANCH  30  31
BRANCH  26  35
ATOM     35  C   UNL     1      27.539   9.870   3.338  0.00  0.00    +0.391 C 
ATOM     36  O   UNL     1      27.883   9.321   4.520  0.00  0.00    -0.243 OA
ATOM     37  O   UNL     1      26.897   9.700   2.176  0.00  0.00    -0.243 OA
ENDBRANCH  26  35
ENDBRANCH  22  24
ENDBRANCH  20  22
ENDBRANCH   1  20
TORSDOF 11
