REMARK VINA RESULT:    -6.835      2.823     10.687
REMARK INTER + INTRA:         -16.007
REMARK INTER:                 -13.715
REMARK INTRA:                  -2.292
REMARK UNBOUND:                -2.580
REMARK  Name = lig_assembled_90.pdb
REMARK  17 active torsions:
REMARK  status: ('A' for Active; 'I' for Inactive)
REMARK    1  A    between atoms: _2  and  _12
REMARK    2  A    between atoms: _3  and  _14
REMARK    3  A    between atoms: _4  and  _16
REMARK    4  A    between atoms: _9  and  _10
REMARK    5  A    between atoms: _9  and  _23
REMARK    6  A    between atoms: _12  and  _13
REMARK    7  A    between atoms: _14  and  _15
REMARK    8  A    between atoms: _15  and  _16
REMARK    9  A    between atoms: _15  and  _21
REMARK   10  A    between atoms: _23  and  _25
REMARK   11  A    between atoms: _24  and  _29
REMARK   12  A    between atoms: _25  and  _28
REMARK   13  A    between atoms: _33  and  _43
REMARK   14  A    between atoms: _35  and  _36
REMARK   15  A    between atoms: _37  and  _39
REMARK   16  A    between atoms: _39  and  _41
REMARK   17  A    between atoms: _41  and  _43
REMARK                            x       y       z     vdW  Elec       q    Type
REMARK                         _______ _______ _______ _____ _____    ______ ____
ROOT
ATOM      1  C   UNL     1      31.776  14.523   0.445  0.00  0.00    +0.240 C 
ENDROOT
BRANCH   1   2
ATOM      2  O   UNL     1      31.632  13.519   1.422  0.00  0.00    -0.450 OA
BRANCH   2   3
ATOM      3  C   UNL     1      31.336  13.405   2.675  0.00  0.00    +0.400 C 
ATOM      4  N   UNL     1      32.400  13.194   3.521  0.00  0.00    -0.278 N 
ATOM      5  H   UNL     1      31.973  13.327   4.492  0.00  0.00    +0.152 HD
ATOM      6  O   UNL     1      30.214  13.498   3.167  0.00  0.00    -0.226 OA
BRANCH   4   7
ATOM      7  C   UNL     1      33.813  12.863   3.684  0.00  0.00    +0.152 C 
BRANCH   7   8
ATOM      8  C   UNL     1      34.133  11.716   4.665  0.00  0.00    +0.193 C 
ATOM      9  O   UNL     1      35.573  11.618   4.733  0.00  0.00    -0.219 OA
BRANCH   8  10
ATOM     10  C   UNL     1      33.689  11.887   6.134  0.00  0.00    +0.212 C 
ATOM     11  O   UNL     1      33.427  13.270   6.422  0.00  0.00    -0.218 OA
BRANCH  10  12
ATOM     12  C   UNL     1      32.408  11.044   6.501  0.00  0.00    +0.171 C 
ATOM     13  O   UNL     1      31.342  11.237   5.577  0.00  0.00    -0.343 OA
ATOM     14  C   UNL     1      30.029  10.811   5.789  0.00  0.00    +0.220 C 
ATOM     15  C   UNL     1      29.496  11.266   7.159  0.00  0.00    +0.076 C 
ATOM     16  C   UNL     1      30.505  10.807   8.224  0.00  0.00    +0.177 C 
ATOM     17  O   UNL     1      30.039  11.168   9.516  0.00  0.00    -0.221 OA
ATOM     18  C   UNL     1      31.909  11.422   7.935  0.00  0.00    +0.155 C 
BRANCH  18  19
ATOM     19  N   UNL     1      32.870  10.993   8.949  0.00  0.00    -0.202 NA
ATOM     20  C   UNL     1      33.475  11.710   9.929  0.00  0.00    +0.242 C 
ATOM     21  C   UNL     1      34.195  10.963  11.021  0.00  0.00    +0.096 C 
ATOM     22  O   UNL     1      33.422  12.938   9.904  0.00  0.00    -0.273 OA
ENDBRANCH  18  19
BRANCH  14  23
ATOM     23  C   UNL     1      29.822   9.215   5.568  0.00  0.00    +0.391 C 
ATOM     24  O   UNL     1      30.952   8.799   4.964  0.00  0.00    -0.243 OA
ATOM     25  O   UNL     1      28.770   8.871   6.322  0.00  0.00    -0.243 OA
ENDBRANCH  14  23
ENDBRANCH  10  12
ENDBRANCH   8  10
ENDBRANCH   7   8
ENDBRANCH   4   7
ENDBRANCH   2   3
ENDBRANCH   1   2
BRANCH   1  26
ATOM     26  C   UNL     1      31.192  15.913   0.763  0.00  0.00    +0.100 C 
BRANCH  26  28
ATOM     27  N   UNL     1      29.268  15.134  -0.595  0.00  0.00    -0.134 NA
ATOM     28  C   UNL     1      29.993  16.168  -0.059  0.00  0.00    +0.086 A 
ATOM     29  C   UNL     1      29.412  17.361  -0.424  0.00  0.00    +0.134 A 
ATOM     30  N   UNL     1      28.328  16.987  -1.161  0.00  0.00    -0.243 N 
ATOM     31  N   UNL     1      28.254  15.650  -1.278  0.00  0.00    -0.065 NA
BRANCH  30  32
ATOM     32  C   UNL     1      27.393  17.831  -1.866  0.00  0.00    +0.240 C 
BRANCH  32  33
ATOM     33  C   UNL     1      26.588  17.040  -2.872  0.00  0.00    +0.235 C 
ATOM     34  O   UNL     1      26.826  17.065  -4.078  0.00  0.00    -0.274 OA
ATOM     35  N   UNL     1      25.597  16.239  -2.335  0.00  0.00    -0.311 N 
ATOM     36  H   UNL     1      25.256  16.448  -1.400  0.00  0.00    +0.149 HD
BRANCH  35  37
ATOM     37  C   UNL     1      24.699  15.493  -3.204  0.00  0.00    +0.137 C 
BRANCH  37  38
ATOM     38  C   UNL     1      24.466  14.072  -2.672  0.00  0.00    +0.151 C 
BRANCH  38  39
ATOM     39  O   UNL     1      24.290  14.137  -1.251  0.00  0.00    -0.388 OA
ATOM     40  H   UNL     1      25.147  13.953  -0.816  0.00  0.00    +0.210 HD
ENDBRANCH  38  39
BRANCH  38  41
ATOM     41  C   UNL     1      23.263  13.402  -3.350  0.00  0.00    +0.162 C 
BRANCH  41  42
ATOM     42  N   UNL     1      22.083  14.256  -3.362  0.00  0.00    -0.269 N 
ATOM     43  C   UNL     1      21.812  15.146  -4.378  0.00  0.00    +0.113 A 
ATOM     44  C   UNL     1      20.654  15.788  -4.012  0.00  0.00    +0.137 A 
ATOM     45  N   UNL     1      20.206  15.325  -2.803  0.00  0.00    -0.172 NA
ATOM     46  C   UNL     1      21.076  14.395  -2.440  0.00  0.00    +0.450 A 
ATOM     47  N   UNL     1      20.945  13.654  -1.209  0.00  0.00    +0.120 N 
ATOM     48  O   UNL     1      21.746  12.732  -1.004  0.00  0.00    +0.045 OA
ATOM     49  O   UNL     1      20.045  13.999  -0.432  0.00  0.00    -0.573 OA
ENDBRANCH  41  42
ENDBRANCH  38  41
ENDBRANCH  37  38
ENDBRANCH  35  37
ENDBRANCH  32  33
ENDBRANCH  30  32
ENDBRANCH  26  28
ENDBRANCH   1  26
TORSDOF 17
