REMARK VINA RESULT:    -6.994      2.178      3.905
REMARK INTER + INTRA:         -14.513
REMARK INTER:                 -12.443
REMARK INTRA:                  -2.069
REMARK UNBOUND:                -1.794
REMARK  Name = lig_assembled_18.pdb
REMARK  14 active torsions:
REMARK  status: ('A' for Active; 'I' for Inactive)
REMARK    1  A    between atoms: _2  and  _9
REMARK    2  A    between atoms: _3  and  _11
REMARK    3  A    between atoms: _6  and  _7
REMARK    4  A    between atoms: _6  and  _16
REMARK    5  A    between atoms: _9  and  _10
REMARK    6  A    between atoms: _11  and  _12
REMARK    7  A    between atoms: _16  and  _18
REMARK    8  A    between atoms: _17  and  _22
REMARK    9  A    between atoms: _18  and  _21
REMARK   10  A    between atoms: _26  and  _36
REMARK   11  A    between atoms: _28  and  _29
REMARK   12  A    between atoms: _30  and  _32
REMARK   13  A    between atoms: _32  and  _34
REMARK   14  A    between atoms: _34  and  _36
REMARK                            x       y       z     vdW  Elec       q    Type
REMARK                         _______ _______ _______ _____ _____    ______ ____
ROOT
ATOM      1  C   UNL     1      28.281  17.436  -0.995  0.00  0.00    +0.400 C 
ATOM      2  N   UNL     1      29.358  17.621  -0.161  0.00  0.00    -0.278 N 
ATOM      3  H   UNL     1      29.307  18.661   0.082  0.00  0.00    +0.152 HD
ATOM      4  O   UNL     1      27.473  18.355  -1.112  0.00  0.00    -0.226 OA
ENDROOT
BRANCH   2   5
ATOM      5  C   UNL     1      30.505  17.046   0.537  0.00  0.00    +0.152 C 
BRANCH   5   6
ATOM      6  C   UNL     1      30.861  15.590   0.172  0.00  0.00    +0.193 C 
ATOM      7  O   UNL     1      31.982  15.652  -0.737  0.00  0.00    -0.219 OA
BRANCH   6   8
ATOM      8  C   UNL     1      31.341  14.664   1.312  0.00  0.00    +0.212 C 
ATOM      9  O   UNL     1      31.637  15.431   2.491  0.00  0.00    -0.218 OA
BRANCH   8  10
ATOM     10  C   UNL     1      30.298  13.544   1.688  0.00  0.00    +0.171 C 
ATOM     11  O   UNL     1      28.957  14.022   1.687  0.00  0.00    -0.343 OA
ATOM     12  C   UNL     1      27.870  13.320   2.212  0.00  0.00    +0.220 C 
ATOM     13  C   UNL     1      28.147  12.825   3.643  0.00  0.00    +0.076 C 
ATOM     14  C   UNL     1      29.470  12.042   3.613  0.00  0.00    +0.177 C 
ATOM     15  O   UNL     1      29.755  11.527   4.906  0.00  0.00    -0.221 OA
ATOM     16  C   UNL     1      30.625  12.958   3.100  0.00  0.00    +0.155 C 
BRANCH  16  17
ATOM     17  N   UNL     1      31.885  12.219   3.077  0.00  0.00    -0.202 NA
ATOM     18  C   UNL     1      32.971  12.329   3.885  0.00  0.00    +0.242 C 
ATOM     19  C   UNL     1      34.017  11.246   3.829  0.00  0.00    +0.096 C 
ATOM     20  O   UNL     1      33.073  13.296   4.636  0.00  0.00    -0.273 OA
ENDBRANCH  16  17
BRANCH  12  21
ATOM     21  C   UNL     1      27.353  12.114   1.254  0.00  0.00    +0.391 C 
ATOM     22  O   UNL     1      28.159  12.159   0.175  0.00  0.00    -0.243 OA
ATOM     23  O   UNL     1      26.546  11.360   2.010  0.00  0.00    -0.243 OA
ENDBRANCH  12  21
ENDBRANCH   8  10
ENDBRANCH   6   8
ENDBRANCH   5   6
ENDBRANCH   2   5
BRANCH   1  24
ATOM     24  O   UNL     1      28.239  16.301  -1.612  0.00  0.00    -0.450 OA
BRANCH  24  25
ATOM     25  C   UNL     1      27.557  15.071  -1.541  0.00  0.00    +0.240 C 
BRANCH  25  26
ATOM     26  C   UNL     1      27.167  14.396  -2.869  0.00  0.00    +0.100 C 
BRANCH  26  28
ATOM     27  N   UNL     1      25.135  15.802  -2.669  0.00  0.00    -0.134 NA
ATOM     28  C   UNL     1      25.770  14.718  -3.217  0.00  0.00    +0.086 A 
ATOM     29  C   UNL     1      24.901  14.072  -4.067  0.00  0.00    +0.134 A 
ATOM     30  N   UNL     1      23.767  14.825  -4.017  0.00  0.00    -0.243 N 
ATOM     31  N   UNL     1      23.902  15.852  -3.159  0.00  0.00    -0.065 NA
BRANCH  30  32
ATOM     32  C   UNL     1      22.491  14.577  -4.648  0.00  0.00    +0.240 C 
BRANCH  32  33
ATOM     33  C   UNL     1      21.542  13.830  -3.742  0.00  0.00    +0.235 C 
ATOM     34  O   UNL     1      20.896  12.856  -4.127  0.00  0.00    -0.274 OA
ATOM     35  N   UNL     1      21.496  14.282  -2.437  0.00  0.00    -0.309 N 
ATOM     36  H   UNL     1      21.903  15.174  -2.194  0.00  0.00    +0.149 HD
BRANCH  35  37
ATOM     37  C   UNL     1      20.643  13.655  -1.449  0.00  0.00    +0.146 C 
BRANCH  37  38
ATOM     38  C   UNL     1      21.473  12.831  -0.519  0.00  0.00    +0.007 A 
ATOM     39  S   UNL     1      23.136  12.565  -0.835  0.00  0.00    -0.100 S 
ATOM     40  C   UNL     1      23.304  11.564   0.543  0.00  0.00    +0.045 A 
ATOM     41  C   UNL     1      22.123  11.443   1.242  0.00  0.00    +0.008 A 
ATOM     42  C   UNL     1      21.068  12.182   0.633  0.00  0.00    +0.013 A 
ENDBRANCH  37  38
ENDBRANCH  35  37
ENDBRANCH  32  33
ENDBRANCH  30  32
ENDBRANCH  26  28
ENDBRANCH  25  26
ENDBRANCH  24  25
ENDBRANCH   1  24
TORSDOF 14
