REMARK VINA RESULT:    -6.235      3.661      8.994
REMARK INTER + INTRA:         -13.703
REMARK INTER:                 -11.795
REMARK INTRA:                  -1.908
REMARK UNBOUND:                -2.911
REMARK  Name = lig_assembled_23.pdb
REMARK  13 active torsions:
REMARK  status: ('A' for Active; 'I' for Inactive)
REMARK    1  A    between atoms: _2  and  _9
REMARK    2  A    between atoms: _3  and  _44
REMARK    3  A    between atoms: _6  and  _7
REMARK    4  A    between atoms: _6  and  _16
REMARK    5  A    between atoms: _11  and  _44
REMARK    6  A    between atoms: _16  and  _18
REMARK    7  A    between atoms: _17  and  _22
REMARK    8  A    between atoms: _18  and  _21
REMARK    9  A    between atoms: _26  and  _36
REMARK   10  A    between atoms: _28  and  _29
REMARK   11  A    between atoms: _30  and  _32
REMARK   12  A    between atoms: _32  and  _34
REMARK   13  A    between atoms: _34  and  _36
REMARK                            x       y       z     vdW  Elec       q    Type
REMARK                         _______ _______ _______ _____ _____    ______ ____
ROOT
ATOM      1  C   UNL     1      27.944  17.813  -0.980  0.00  0.00    +0.400 C 
ATOM      2  N   UNL     1      27.180  17.672  -2.115  0.00  0.00    -0.278 N 
ATOM      3  H   UNL     1      26.228  18.061  -1.822  0.00  0.00    +0.152 HD
ATOM      4  O   UNL     1      27.479  18.460  -0.045  0.00  0.00    -0.226 OA
ENDROOT
BRANCH   2   5
ATOM      5  C   UNL     1      27.091  17.252  -3.511  0.00  0.00    +0.152 C 
BRANCH   5   6
ATOM      6  C   UNL     1      26.035  16.174  -3.830  0.00  0.00    +0.193 C 
ATOM      7  O   UNL     1      26.033  16.007  -5.265  0.00  0.00    -0.219 OA
BRANCH   6   8
ATOM      8  C   UNL     1      26.274  14.752  -3.277  0.00  0.00    +0.212 C 
ATOM      9  O   UNL     1      27.071  14.806  -2.083  0.00  0.00    -0.218 OA
BRANCH   8  10
ATOM     10  C   UNL     1      24.941  13.974  -2.958  0.00  0.00    +0.171 C 
ATOM     11  O   UNL     1      24.083  14.694  -2.080  0.00  0.00    -0.343 OA
ATOM     12  C   UNL     1      22.965  14.147  -1.446  0.00  0.00    +0.220 C 
ATOM     13  C   UNL     1      23.304  12.829  -0.728  0.00  0.00    +0.076 C 
ATOM     14  C   UNL     1      23.984  11.906  -1.752  0.00  0.00    +0.177 C 
ATOM     15  O   UNL     1      24.284  10.655  -1.149  0.00  0.00    -0.221 OA
ATOM     16  C   UNL     1      25.270  12.585  -2.318  0.00  0.00    +0.155 C 
BRANCH  16  17
ATOM     17  N   UNL     1      25.922  11.708  -3.287  0.00  0.00    -0.202 NA
ATOM     18  C   UNL     1      27.100  11.039  -3.196  0.00  0.00    +0.242 C 
ATOM     19  C   UNL     1      27.396   9.972  -4.218  0.00  0.00    +0.096 C 
ATOM     20  O   UNL     1      27.887  11.314  -2.293  0.00  0.00    -0.273 OA
ENDBRANCH  16  17
BRANCH  12  21
ATOM     21  C   UNL     1      21.682  13.978  -2.428  0.00  0.00    +0.391 C 
ATOM     22  O   UNL     1      21.034  12.890  -1.969  0.00  0.00    -0.243 OA
ATOM     23  O   UNL     1      21.586  15.125  -3.111  0.00  0.00    -0.243 OA
ENDBRANCH  12  21
ENDBRANCH   8  10
ENDBRANCH   6   8
ENDBRANCH   5   6
ENDBRANCH   2   5
BRANCH   1  24
ATOM     24  O   UNL     1      29.089  17.213  -0.998  0.00  0.00    -0.450 OA
BRANCH  24  25
ATOM     25  C   UNL     1      30.135  16.881  -0.115  0.00  0.00    +0.240 C 
BRANCH  25  26
ATOM     26  C   UNL     1      30.669  15.437  -0.158  0.00  0.00    +0.100 C 
BRANCH  26  28
ATOM     27  N   UNL     1      28.712  14.440   0.977  0.00  0.00    -0.134 NA
ATOM     28  C   UNL     1      30.061  14.635   0.920  0.00  0.00    +0.086 A 
ATOM     29  C   UNL     1      30.654  13.986   1.978  0.00  0.00    +0.139 A 
ATOM     30  N   UNL     1      29.615  13.391   2.658  0.00  0.00    -0.220 N 
ATOM     31  N   UNL     1      28.448  13.687   2.036  0.00  0.00    -0.061 NA
BRANCH  30  32
ATOM     32  C   UNL     1      29.657  12.593   3.830  0.00  0.00    +0.069 A 
ATOM     33  C   UNL     1      30.818  12.585   4.617  0.00  0.00    +0.056 A 
ATOM     34  C   UNL     1      30.874  11.771   5.754  0.00  0.00    +0.107 A 
ATOM     35  C   UNL     1      29.783  10.987   6.132  0.00  0.00    +0.028 A 
ATOM     36  C   UNL     1      28.625  11.008   5.356  0.00  0.00    +0.004 A 
ATOM     37  C   UNL     1      28.560  11.803   4.207  0.00  0.00    +0.028 A 
BRANCH  34  38
ATOM     38  S   UNL     1      32.366  11.729   6.702  0.00  0.00    +0.056 S 
ATOM     39  O   UNL     1      33.275  12.723   6.183  0.00  0.00    -0.153 OA
ATOM     40  O   UNL     1      32.036  11.630   8.105  0.00  0.00    -0.153 OA
BRANCH  38  41
ATOM     41  N   UNL     1      33.002  10.233   6.288  0.00  0.00    -0.204 NA
ATOM     42  H   UNL     1      33.696  10.341   5.548  0.00  0.00    +0.144 HD
ATOM     43  H   UNL     1      32.248   9.583   6.058  0.00  0.00    +0.144 HD
ENDBRANCH  38  41
ENDBRANCH  34  38
ENDBRANCH  30  32
ENDBRANCH  26  28
ENDBRANCH  25  26
ENDBRANCH  24  25
ENDBRANCH   1  24
TORSDOF 13
