REMARK VINA RESULT:    -6.481      3.159      9.114
REMARK INTER + INTRA:         -12.337
REMARK INTER:                 -10.948
REMARK INTRA:                  -1.389
REMARK UNBOUND:                -1.689
REMARK  Name = lig_assembled_49.pdb
REMARK  11 active torsions:
REMARK  status: ('A' for Active; 'I' for Inactive)
REMARK    1  A    between atoms: _2  and  _8
REMARK    2  A    between atoms: _5  and  _6
REMARK    3  A    between atoms: _5  and  _12
REMARK    4  A    between atoms: _12  and  _14
REMARK    5  A    between atoms: _13  and  _18
REMARK    6  A    between atoms: _14  and  _17
REMARK    7  A    between atoms: _22  and  _32
REMARK    8  A    between atoms: _24  and  _25
REMARK    9  A    between atoms: _26  and  _28
REMARK   10  A    between atoms: _28  and  _30
REMARK   11  A    between atoms: _30  and  _32
REMARK                            x       y       z     vdW  Elec       q    Type
REMARK                         _______ _______ _______ _____ _____    ______ ____
ROOT
ATOM      1  C   UNL     1      25.668  16.101  -3.307  0.00  0.00    +0.152 C 
ENDROOT
BRANCH   1   3
ATOM      2  C   UNL     1      27.406  17.389  -1.645  0.00  0.00    +0.400 C 
ATOM      3  N   UNL     1      26.322  17.064  -2.425  0.00  0.00    -0.278 N 
ATOM      4  H   UNL     1      25.690  17.922  -2.340  0.00  0.00    +0.152 HD
ATOM      5  O   UNL     1      27.494  18.541  -1.226  0.00  0.00    -0.226 OA
BRANCH   2   6
ATOM      6  O   UNL     1      28.229  16.423  -1.399  0.00  0.00    -0.450 OA
BRANCH   6   7
ATOM      7  C   UNL     1      28.955  15.887  -0.317  0.00  0.00    +0.240 C 
BRANCH   7   8
ATOM      8  C   UNL     1      30.327  16.513  -0.001  0.00  0.00    +0.100 C 
BRANCH   8  10
ATOM      9  N   UNL     1      31.999  14.691  -0.021  0.00  0.00    -0.134 NA
ATOM     10  C   UNL     1      31.190  15.537   0.689  0.00  0.00    +0.086 A 
ATOM     11  C   UNL     1      31.347  15.289   2.034  0.00  0.00    +0.134 A 
ATOM     12  N   UNL     1      32.260  14.275   2.076  0.00  0.00    -0.248 N 
ATOM     13  N   UNL     1      32.650  13.920   0.840  0.00  0.00    -0.065 NA
BRANCH  12  14
ATOM     14  C   UNL     1      32.773  13.598   3.243  0.00  0.00    +0.109 C 
ATOM     15  C   UNL     1      33.333  12.204   2.955  0.00  0.00    +0.027 C 
ATOM     16  C   UNL     1      34.176  11.916   4.186  0.00  0.00    +0.002 C 
ATOM     17  C   UNL     1      34.847  13.247   4.498  0.00  0.00    +0.002 C 
ATOM     18  C   UNL     1      33.918  14.335   3.953  0.00  0.00    +0.027 C 
ENDBRANCH  12  14
ENDBRANCH   8  10
ENDBRANCH   7   8
ENDBRANCH   6   7
ENDBRANCH   2   6
ENDBRANCH   1   3
BRANCH   1  19
ATOM     19  C   UNL     1      24.712  15.098  -2.629  0.00  0.00    +0.193 C 
ATOM     20  O   UNL     1      23.536  15.016  -3.464  0.00  0.00    -0.219 OA
BRANCH  19  21
ATOM     21  C   UNL     1      25.190  13.635  -2.493  0.00  0.00    +0.212 C 
ATOM     22  O   UNL     1      26.523  13.492  -3.010  0.00  0.00    -0.218 OA
BRANCH  21  23
ATOM     23  C   UNL     1      25.166  13.107  -1.008  0.00  0.00    +0.171 C 
ATOM     24  O   UNL     1      26.310  12.322  -0.687  0.00  0.00    -0.343 OA
ATOM     25  C   UNL     1      26.430  11.538   0.462  0.00  0.00    +0.220 C 
ATOM     26  C   UNL     1      25.212  10.618   0.656  0.00  0.00    +0.076 C 
ATOM     27  C   UNL     1      23.953  11.500   0.603  0.00  0.00    +0.177 C 
ATOM     28  O   UNL     1      22.797  10.703   0.817  0.00  0.00    -0.221 OA
ATOM     29  C   UNL     1      23.880  12.251  -0.763  0.00  0.00    +0.155 C 
BRANCH  29  30
ATOM     30  N   UNL     1      22.682  13.085  -0.820  0.00  0.00    -0.202 NA
ATOM     31  C   UNL     1      21.564  12.947  -1.576  0.00  0.00    +0.242 C 
ATOM     32  C   UNL     1      20.356  13.777  -1.226  0.00  0.00    +0.096 C 
ATOM     33  O   UNL     1      21.561  12.156  -2.518  0.00  0.00    -0.273 OA
ENDBRANCH  29  30
BRANCH  25  34
ATOM     34  C   UNL     1      26.747  12.398   1.803  0.00  0.00    +0.391 C 
ATOM     35  O   UNL     1      26.204  11.686   2.810  0.00  0.00    -0.243 OA
ATOM     36  O   UNL     1      27.665  13.307   1.451  0.00  0.00    -0.243 OA
ENDBRANCH  25  34
ENDBRANCH  21  23
ENDBRANCH  19  21
ENDBRANCH   1  19
TORSDOF 11
