REMARK VINA RESULT:    -6.992      2.622      5.990
REMARK INTER + INTRA:         -12.907
REMARK INTER:                 -11.223
REMARK INTRA:                  -1.683
REMARK UNBOUND:                -1.418
REMARK  Name = lig_assembled_20.pdb
REMARK  11 active torsions:
REMARK  status: ('A' for Active; 'I' for Inactive)
REMARK    1  A    between atoms: _2  and  _10
REMARK    2  A    between atoms: _7  and  _8
REMARK    3  A    between atoms: _7  and  _16
REMARK    4  A    between atoms: _16  and  _18
REMARK    5  A    between atoms: _17  and  _22
REMARK    6  A    between atoms: _18  and  _21
REMARK    7  A    between atoms: _26  and  _36
REMARK    8  A    between atoms: _28  and  _29
REMARK    9  A    between atoms: _30  and  _32
REMARK   10  A    between atoms: _32  and  _34
REMARK   11  A    between atoms: _34  and  _36
REMARK                            x       y       z     vdW  Elec       q    Type
REMARK                         _______ _______ _______ _____ _____    ______ ____
ROOT
ATOM      1  C   UNL     1      25.529   8.814   3.484  0.00  0.00    +0.400 C 
ATOM      2  N   UNL     1      25.632  10.150   3.173  0.00  0.00    -0.278 N 
ATOM      3  H   UNL     1      25.500  10.634   4.116  0.00  0.00    +0.152 HD
ATOM      4  O   UNL     1      25.506   8.496   4.670  0.00  0.00    -0.226 OA
ENDROOT
BRANCH   1   5
ATOM      5  O   UNL     1      25.435   8.010   2.476  0.00  0.00    -0.450 OA
BRANCH   5   6
ATOM      6  C   UNL     1      24.486   7.609   1.515  0.00  0.00    +0.240 C 
BRANCH   6   7
ATOM      7  C   UNL     1      23.000   7.862   1.834  0.00  0.00    +0.100 C 
BRANCH   7   9
ATOM      8  N   UNL     1      22.193  10.103   2.524  0.00  0.00    -0.134 NA
ATOM      9  C   UNL     1      22.642   9.263   1.547  0.00  0.00    +0.086 A 
ATOM     10  C   UNL     1      22.678   9.944   0.352  0.00  0.00    +0.139 A 
ATOM     11  N   UNL     1      22.240  11.214   0.650  0.00  0.00    -0.220 N 
ATOM     12  N   UNL     1      21.953  11.287   1.973  0.00  0.00    -0.061 NA
BRANCH  11  13
ATOM     13  C   UNL     1      22.089  12.321  -0.225  0.00  0.00    +0.068 A 
ATOM     14  C   UNL     1      20.806  12.820  -0.505  0.00  0.00    +0.030 A 
ATOM     15  C   UNL     1      20.621  13.916  -1.360  0.00  0.00    +0.030 A 
ATOM     16  C   UNL     1      21.766  14.488  -1.922  0.00  0.00    +0.066 A 
ATOM     17  C   UNL     1      23.048  14.017  -1.667  0.00  0.00    +0.021 A 
ATOM     18  C   UNL     1      23.894  14.861  -2.418  0.00  0.00    +0.142 A 
ATOM     19  N   UNL     1      23.221  15.793  -3.096  0.00  0.00    -0.181 NA
ATOM     20  N   UNL     1      21.938  15.546  -2.776  0.00  0.00    -0.277 N 
ATOM     21  H   UNL     1      21.220  16.136  -3.178  0.00  0.00    +0.189 HD
ATOM     22  C   UNL     1      23.223  12.917  -0.807  0.00  0.00    +0.039 A 
ENDBRANCH  11  13
ENDBRANCH   7   9
ENDBRANCH   6   7
ENDBRANCH   5   6
ENDBRANCH   1   5
BRANCH   2  23
ATOM     23  C   UNL     1      25.849  11.178   2.158  0.00  0.00    +0.152 C 
BRANCH  23  24
ATOM     24  C   UNL     1      27.313  11.608   1.929  0.00  0.00    +0.193 C 
ATOM     25  O   UNL     1      27.642  11.252   0.568  0.00  0.00    -0.219 OA
BRANCH  24  26
ATOM     26  C   UNL     1      27.639  13.115   2.024  0.00  0.00    +0.212 C 
ATOM     27  O   UNL     1      27.530  13.567   3.383  0.00  0.00    -0.218 OA
BRANCH  26  28
ATOM     28  C   UNL     1      29.075  13.478   1.485  0.00  0.00    +0.171 C 
ATOM     29  O   UNL     1      30.028  13.637   2.530  0.00  0.00    -0.343 OA
ATOM     30  C   UNL     1      31.299  14.190   2.360  0.00  0.00    +0.220 C 
ATOM     31  C   UNL     1      31.240  15.541   1.625  0.00  0.00    +0.076 C 
ATOM     32  C   UNL     1      30.449  15.325   0.324  0.00  0.00    +0.177 C 
ATOM     33  O   UNL     1      30.398  16.537  -0.415  0.00  0.00    -0.221 OA
ATOM     34  C   UNL     1      29.016  14.798   0.648  0.00  0.00    +0.155 C 
BRANCH  34  35
ATOM     35  N   UNL     1      28.259  14.598  -0.585  0.00  0.00    -0.202 NA
ATOM     36  C   UNL     1      28.470  13.724  -1.601  0.00  0.00    +0.242 C 
ATOM     37  C   UNL     1      27.371  13.524  -2.613  0.00  0.00    +0.096 C 
ATOM     38  O   UNL     1      29.539  13.122  -1.672  0.00  0.00    -0.273 OA
ENDBRANCH  34  35
BRANCH  30  39
ATOM     39  C   UNL     1      32.358  13.176   1.661  0.00  0.00    +0.391 C 
ATOM     40  O   UNL     1      31.852  11.945   1.873  0.00  0.00    -0.243 OA
ATOM     41  O   UNL     1      33.150  13.937   0.896  0.00  0.00    -0.243 OA
ENDBRANCH  30  39
ENDBRANCH  26  28
ENDBRANCH  24  26
ENDBRANCH  23  24
ENDBRANCH   2  23
TORSDOF 11
