REMARK VINA RESULT:    -6.501      3.131      8.749
REMARK INTER + INTRA:         -12.305
REMARK INTER:                 -11.021
REMARK INTRA:                  -1.283
REMARK UNBOUND:                -1.624
REMARK  Name = lig_assembled_3.pdb
REMARK  11 active torsions:
REMARK  status: ('A' for Active; 'I' for Inactive)
REMARK    1  A    between atoms: _2  and  _8
REMARK    2  A    between atoms: _5  and  _6
REMARK    3  A    between atoms: _5  and  _13
REMARK    4  A    between atoms: _13  and  _15
REMARK    5  A    between atoms: _14  and  _19
REMARK    6  A    between atoms: _15  and  _18
REMARK    7  A    between atoms: _23  and  _33
REMARK    8  A    between atoms: _25  and  _26
REMARK    9  A    between atoms: _27  and  _29
REMARK   10  A    between atoms: _29  and  _31
REMARK   11  A    between atoms: _31  and  _33
REMARK                            x       y       z     vdW  Elec       q    Type
REMARK                         _______ _______ _______ _____ _____    ______ ____
ROOT
ATOM      1  C   UNL     1      24.398  15.573  -2.558  0.00  0.00    +0.152 C 
ENDROOT
BRANCH   1   3
ATOM      2  C   UNL     1      26.634  17.011  -3.172  0.00  0.00    +0.400 C 
ATOM      3  N   UNL     1      25.469  16.285  -3.250  0.00  0.00    -0.278 N 
ATOM      4  H   UNL     1      25.293  16.212  -4.302  0.00  0.00    +0.152 HD
ATOM      5  O   UNL     1      27.254  17.226  -4.211  0.00  0.00    -0.226 OA
BRANCH   2   6
ATOM      6  O   UNL     1      26.954  17.430  -1.992  0.00  0.00    -0.450 OA
BRANCH   6   7
ATOM      7  C   UNL     1      28.046  18.024  -1.329  0.00  0.00    +0.240 C 
BRANCH   7   8
ATOM      8  C   UNL     1      28.464  17.426   0.028  0.00  0.00    +0.100 C 
BRANCH   8  10
ATOM      9  N   UNL     1      29.156  15.228  -0.872  0.00  0.00    -0.134 NA
ATOM     10  C   UNL     1      29.461  16.357  -0.169  0.00  0.00    +0.086 A 
ATOM     11  C   UNL     1      30.766  16.282   0.259  0.00  0.00    +0.139 A 
ATOM     12  N   UNL     1      31.236  15.086  -0.235  0.00  0.00    -0.220 N 
ATOM     13  N   UNL     1      30.236  14.459  -0.904  0.00  0.00    -0.061 NA
BRANCH  12  14
ATOM     14  C   UNL     1      32.538  14.531  -0.131  0.00  0.00    +0.067 A 
ATOM     15  C   UNL     1      32.941  13.856   1.030  0.00  0.00    +0.028 A 
ATOM     16  C   UNL     1      34.238  13.342   1.124  0.00  0.00    +0.002 A 
ATOM     17  C   UNL     1      35.133  13.495   0.067  0.00  0.00    +0.000 A 
ATOM     18  C   UNL     1      34.734  14.158  -1.092  0.00  0.00    +0.002 A 
ATOM     19  C   UNL     1      33.440  14.674  -1.196  0.00  0.00    +0.028 A 
ENDBRANCH  12  14
ENDBRANCH   8  10
ENDBRANCH   7   8
ENDBRANCH   6   7
ENDBRANCH   2   6
ENDBRANCH   1   3
BRANCH   1  20
ATOM     20  C   UNL     1      24.102  14.142  -3.052  0.00  0.00    +0.193 C 
ATOM     21  O   UNL     1      24.199  14.172  -4.493  0.00  0.00    -0.219 OA
BRANCH  20  22
ATOM     22  C   UNL     1      25.076  13.023  -2.624  0.00  0.00    +0.212 C 
ATOM     23  O   UNL     1      26.416  13.339  -3.035  0.00  0.00    -0.218 OA
BRANCH  22  24
ATOM     24  C   UNL     1      25.076  12.755  -1.071  0.00  0.00    +0.171 C 
ATOM     25  O   UNL     1      26.174  11.951  -0.653  0.00  0.00    -0.343 OA
ATOM     26  C   UNL     1      26.286  11.364   0.610  0.00  0.00    +0.220 C 
ATOM     27  C   UNL     1      25.015  10.585   0.992  0.00  0.00    +0.076 C 
ATOM     28  C   UNL     1      23.821  11.539   0.825  0.00  0.00    +0.177 C 
ATOM     29  O   UNL     1      22.621  10.879   1.204  0.00  0.00    -0.221 OA
ATOM     30  C   UNL     1      23.744  12.052  -0.647  0.00  0.00    +0.155 C 
BRANCH  30  31
ATOM     31  N   UNL     1      22.606  12.953  -0.812  0.00  0.00    -0.202 NA
ATOM     32  C   UNL     1      21.364  12.702  -1.296  0.00  0.00    +0.242 C 
ATOM     33  C   UNL     1      20.289  13.736  -1.082  0.00  0.00    +0.096 C 
ATOM     34  O   UNL     1      21.145  11.648  -1.890  0.00  0.00    -0.273 OA
ENDBRANCH  30  31
BRANCH  26  35
ATOM     35  C   UNL     1      26.717  12.412   1.775  0.00  0.00    +0.391 C 
ATOM     36  O   UNL     1      26.274  11.859   2.920  0.00  0.00    -0.243 OA
ATOM     37  O   UNL     1      27.591  13.254   1.210  0.00  0.00    -0.243 OA
ENDBRANCH  26  35
ENDBRANCH  22  24
ENDBRANCH  20  22
ENDBRANCH   1  20
TORSDOF 11
