REMARK VINA RESULT:    -6.610      1.649      2.893
REMARK INTER + INTRA:         -14.506
REMARK INTER:                 -12.895
REMARK INTRA:                  -1.611
REMARK UNBOUND:                -2.486
REMARK  Name = lig_assembled_29.pdb
REMARK  16 active torsions:
REMARK  status: ('A' for Active; 'I' for Inactive)
REMARK    1  A    between atoms: _2  and  _8
REMARK    2  A    between atoms: _5  and  _6
REMARK    3  A    between atoms: _5  and  _18
REMARK    4  A    between atoms: _8  and  _9
REMARK    5  A    between atoms: _11  and  _17
REMARK    6  A    between atoms: _12  and  _17
REMARK    7  A    between atoms: _13  and  _16
REMARK    8  A    between atoms: _14  and  _16
REMARK    9  A    between atoms: _18  and  _20
REMARK   10  A    between atoms: _19  and  _24
REMARK   11  A    between atoms: _20  and  _23
REMARK   12  A    between atoms: _28  and  _38
REMARK   13  A    between atoms: _30  and  _31
REMARK   14  A    between atoms: _32  and  _34
REMARK   15  A    between atoms: _34  and  _36
REMARK   16  A    between atoms: _36  and  _38
REMARK                            x       y       z     vdW  Elec       q    Type
REMARK                         _______ _______ _______ _____ _____    ______ ____
ROOT
ATOM      1  C   UNL     1      27.882  17.353  -0.914  0.00  0.00    +0.400 C 
ATOM      2  N   UNL     1      28.580  16.497  -0.096  0.00  0.00    -0.278 N 
ATOM      3  H   UNL     1      28.814  17.102   0.754  0.00  0.00    +0.152 HD
ATOM      4  O   UNL     1      27.547  18.445  -0.459  0.00  0.00    -0.226 OA
ENDROOT
BRANCH   2   5
ATOM      5  C   UNL     1      29.121  15.160   0.134  0.00  0.00    +0.152 C 
BRANCH   5   6
ATOM      6  C   UNL     1      30.658  15.049   0.192  0.00  0.00    +0.193 C 
ATOM      7  O   UNL     1      31.078  15.724   1.398  0.00  0.00    -0.219 OA
BRANCH   6   8
ATOM      8  C   UNL     1      31.269  13.635   0.309  0.00  0.00    +0.212 C 
ATOM      9  O   UNL     1      32.219  13.410  -0.746  0.00  0.00    -0.218 OA
BRANCH   8  10
ATOM     10  C   UNL     1      31.980  13.374   1.691  0.00  0.00    +0.171 C 
ATOM     11  O   UNL     1      33.315  12.903   1.541  0.00  0.00    -0.343 OA
ATOM     12  C   UNL     1      34.083  12.367   2.577  0.00  0.00    +0.220 C 
ATOM     13  C   UNL     1      33.324  11.267   3.340  0.00  0.00    +0.076 C 
ATOM     14  C   UNL     1      31.971  11.855   3.774  0.00  0.00    +0.177 C 
ATOM     15  O   UNL     1      31.243  10.890   4.520  0.00  0.00    -0.221 OA
ATOM     16  C   UNL     1      31.166  12.331   2.525  0.00  0.00    +0.155 C 
BRANCH  16  17
ATOM     17  N   UNL     1      29.877  12.884   2.933  0.00  0.00    -0.202 NA
ATOM     18  C   UNL     1      28.635  12.341   2.853  0.00  0.00    +0.242 C 
ATOM     19  C   UNL     1      27.516  13.001   3.615  0.00  0.00    +0.096 C 
ATOM     20  O   UNL     1      28.455  11.334   2.171  0.00  0.00    -0.273 OA
ENDBRANCH  16  17
BRANCH  12  21
ATOM     21  C   UNL     1      34.681  13.490   3.587  0.00  0.00    +0.391 C 
ATOM     22  O   UNL     1      34.952  12.824   4.726  0.00  0.00    -0.243 OA
ATOM     23  O   UNL     1      34.957  14.559   2.830  0.00  0.00    -0.243 OA
ENDBRANCH  12  21
ENDBRANCH   8  10
ENDBRANCH   6   8
ENDBRANCH   5   6
ENDBRANCH   2   5
BRANCH   1  24
ATOM     24  O   UNL     1      27.669  16.930  -2.116  0.00  0.00    -0.450 OA
BRANCH  24  25
ATOM     25  C   UNL     1      26.823  17.200  -3.210  0.00  0.00    +0.240 C 
BRANCH  25  26
ATOM     26  C   UNL     1      26.496  16.034  -4.162  0.00  0.00    +0.100 C 
BRANCH  26  28
ATOM     27  N   UNL     1      24.498  14.762  -4.895  0.00  0.00    -0.134 NA
ATOM     28  C   UNL     1      25.089  15.618  -4.005  0.00  0.00    +0.086 A 
ATOM     29  C   UNL     1      24.184  15.944  -3.022  0.00  0.00    +0.134 A 
ATOM     30  N   UNL     1      23.091  15.182  -3.318  0.00  0.00    -0.247 N 
ATOM     31  N   UNL     1      23.266  14.508  -4.469  0.00  0.00    -0.065 NA
BRANCH  30  32
ATOM     32  C   UNL     1      21.881  15.008  -2.537  0.00  0.00    +0.180 C 
BRANCH  32  33
ATOM     33  C   UNL     1      21.996  13.802  -1.633  0.00  0.00    -0.022 A 
ATOM     34  C   UNL     1      23.240  13.174  -1.446  0.00  0.00    +0.054 A 
ATOM     35  C   UNL     1      23.375  12.104  -0.549  0.00  0.00    +0.162 A 
ATOM     36  C   UNL     1      22.250  11.647   0.165  0.00  0.00    +0.162 A 
ATOM     37  C   UNL     1      21.014  12.273  -0.023  0.00  0.00    +0.050 A 
ATOM     38  C   UNL     1      20.887  13.341  -0.916  0.00  0.00    +0.009 A 
BRANCH  36  39
ATOM     39  O   UNL     1      22.461  10.592   1.019  0.00  0.00    -0.491 OA
ATOM     40  C   UNL     1      22.198  10.796   2.400  0.00  0.00    +0.277 C 
ENDBRANCH  36  39
BRANCH  35  41
ATOM     41  O   UNL     1      24.557  11.452  -0.296  0.00  0.00    -0.491 OA
ATOM     42  C   UNL     1      25.579  12.172   0.380  0.00  0.00    +0.277 C 
ENDBRANCH  35  41
ENDBRANCH  32  33
ENDBRANCH  30  32
ENDBRANCH  26  28
ENDBRANCH  25  26
ENDBRANCH  24  25
ENDBRANCH   1  24
TORSDOF 14
