REMARK VINA RESULT:    -6.494      3.305      7.773
REMARK INTER + INTRA:         -16.393
REMARK INTER:                 -12.329
REMARK INTRA:                  -4.063
REMARK UNBOUND:                -3.824
REMARK  Name = lig_assembled_81.pdb
REMARK  17 active torsions:
REMARK  status: ('A' for Active; 'I' for Inactive)
REMARK    1  A    between atoms: _2  and  _11
REMARK    2  A    between atoms: _7  and  _23
REMARK    3  A    between atoms: _8  and  _9
REMARK    4  A    between atoms: _8  and  _25
REMARK    5  A    between atoms: _13  and  _14
REMARK    6  A    between atoms: _20  and  _21
REMARK    7  A    between atoms: _21  and  _22
REMARK    8  A    between atoms: _22  and  _24
REMARK    9  A    between atoms: _23  and  _24
REMARK   10  A    between atoms: _25  and  _27
REMARK   11  A    between atoms: _26  and  _31
REMARK   12  A    between atoms: _27  and  _30
REMARK   13  A    between atoms: _35  and  _45
REMARK   14  A    between atoms: _37  and  _38
REMARK   15  A    between atoms: _39  and  _41
REMARK   16  A    between atoms: _41  and  _43
REMARK   17  A    between atoms: _43  and  _45
REMARK                            x       y       z     vdW  Elec       q    Type
REMARK                         _______ _______ _______ _____ _____    ______ ____
ROOT
ATOM      1  C   UNL     1      22.321  14.361  -5.137  0.00  0.00    +0.096 C 
ENDROOT
BRANCH   1   3
ATOM      2  N   UNL     1      24.742  14.418  -5.525  0.00  0.00    -0.133 NA
ATOM      3  C   UNL     1      23.696  14.652  -4.684  0.00  0.00    +0.066 C 
ATOM      4  C   UNL     1      24.192  15.120  -3.482  0.00  0.00    +0.120 C 
ATOM      5  N   UNL     1      25.553  15.285  -3.704  0.00  0.00    -0.187 N 
ATOM      6  N   UNL     1      25.859  14.677  -4.867  0.00  0.00    -0.010 NA
BRANCH   5   7
ATOM      7  C   UNL     1      26.540  15.798  -2.798  0.00  0.00    +0.150 A 
ATOM      8  C   UNL     1      27.299  15.029  -1.879  0.00  0.00    +0.022 A 
ATOM      9  C   UNL     1      28.142  15.816  -1.052  0.00  0.00    +0.081 A 
ATOM     10  N   UNL     1      28.136  17.177  -1.112  0.00  0.00    -0.214 NA
ATOM     11  C   UNL     1      27.362  17.784  -1.995  0.00  0.00    +0.215 A 
ATOM     12  N   UNL     1      27.303  19.157  -1.978  0.00  0.00    -0.327 N 
ATOM     13  H   UNL     1      28.121  19.553  -1.540  0.00  0.00    +0.145 HD
ATOM     14  H   UNL     1      26.993  19.530  -2.861  0.00  0.00    +0.145 HD
ATOM     15  N   UNL     1      26.639  17.152  -2.899  0.00  0.00    -0.198 NA
BRANCH   9  16
ATOM     16  C   UNL     1      29.120  15.342   0.000  0.00  0.00    +0.001 A 
ATOM     17  C   UNL     1      28.816  14.445   1.040  0.00  0.00    +0.010 A 
ATOM     18  C   UNL     1      29.773  14.032   1.983  0.00  0.00    +0.001 A 
ATOM     19  C   UNL     1      31.086  14.453   1.884  0.00  0.00    +0.000 A 
ATOM     20  C   UNL     1      31.449  15.298   0.838  0.00  0.00    +0.001 A 
ATOM     21  C   UNL     1      30.477  15.739  -0.072  0.00  0.00    +0.010 A 
ENDBRANCH   9  16
BRANCH   8  22
ATOM     22  C   UNL     1      27.394  13.506  -1.760  0.00  0.00    +0.069 C 
BRANCH  22  23
ATOM     23  C   UNL     1      28.037  12.670  -2.850  0.00  0.00    +0.164 C 
BRANCH  23  24
ATOM     24  O   UNL     1      29.458  12.506  -2.772  0.00  0.00    -0.380 OA
BRANCH  24  25
ATOM     25  C   UNL     1      29.734  12.017  -1.446  0.00  0.00    +0.156 C 
ATOM     26  C   UNL     1      31.201  12.134  -1.101  0.00  0.00    +0.034 C 
ENDBRANCH  24  25
ENDBRANCH  23  24
ENDBRANCH  22  23
ENDBRANCH   8  22
ENDBRANCH   5   7
ENDBRANCH   1   3
BRANCH   1  27
ATOM     27  C   UNL     1      21.340  15.408  -4.576  0.00  0.00    +0.240 C 
BRANCH  27  28
ATOM     28  O   UNL     1      20.670  15.094  -3.377  0.00  0.00    -0.450 OA
BRANCH  28  29
ATOM     29  C   UNL     1      19.640  14.424  -2.977  0.00  0.00    +0.400 C 
ATOM     30  N   UNL     1      19.753  13.844  -1.735  0.00  0.00    -0.278 N 
ATOM     31  H   UNL     1      18.756  13.523  -1.520  0.00  0.00    +0.152 HD
ATOM     32  O   UNL     1      18.581  14.289  -3.585  0.00  0.00    -0.226 OA
BRANCH  30  33
ATOM     33  C   UNL     1      20.606  13.467  -0.611  0.00  0.00    +0.152 C 
BRANCH  33  34
ATOM     34  C   UNL     1      21.360  12.128  -0.749  0.00  0.00    +0.193 C 
ATOM     35  O   UNL     1      20.786  11.444  -1.885  0.00  0.00    -0.219 OA
BRANCH  34  36
ATOM     36  C   UNL     1      22.872  12.188  -1.059  0.00  0.00    +0.212 C 
ATOM     37  O   UNL     1      23.367  13.525  -0.885  0.00  0.00    -0.218 OA
BRANCH  36  38
ATOM     38  C   UNL     1      23.731  11.212  -0.168  0.00  0.00    +0.171 C 
ATOM     39  O   UNL     1      24.096  11.789   1.081  0.00  0.00    -0.343 OA
ATOM     40  C   UNL     1      25.046  11.249   1.952  0.00  0.00    +0.220 C 
ATOM     41  C   UNL     1      26.364  10.926   1.227  0.00  0.00    +0.076 C 
ATOM     42  C   UNL     1      26.022  10.045   0.015  0.00  0.00    +0.177 C 
ATOM     43  O   UNL     1      27.213   9.683  -0.669  0.00  0.00    -0.221 OA
ATOM     44  C   UNL     1      25.030  10.792  -0.930  0.00  0.00    +0.155 C 
BRANCH  44  45
ATOM     45  N   UNL     1      24.707   9.960  -2.087  0.00  0.00    -0.202 NA
ATOM     46  C   UNL     1      24.790  10.246  -3.411  0.00  0.00    +0.242 C 
ATOM     47  C   UNL     1      24.678   9.111  -4.396  0.00  0.00    +0.096 C 
ATOM     48  O   UNL     1      24.953  11.409  -3.772  0.00  0.00    -0.273 OA
ENDBRANCH  44  45
BRANCH  40  49
ATOM     49  C   UNL     1      24.500   9.973   2.795  0.00  0.00    +0.391 C 
ATOM     50  O   UNL     1      25.607   9.371   3.271  0.00  0.00    -0.243 OA
ATOM     51  O   UNL     1      23.184  10.168   2.951  0.00  0.00    -0.243 OA
ENDBRANCH  40  49
ENDBRANCH  36  38
ENDBRANCH  34  36
ENDBRANCH  33  34
ENDBRANCH  30  33
ENDBRANCH  28  29
ENDBRANCH  27  28
ENDBRANCH   1  27
TORSDOF 16
