REMARK VINA RESULT:    -6.375      3.497      7.839
REMARK INTER + INTRA:         -12.607
REMARK INTER:                 -10.253
REMARK INTRA:                  -2.355
REMARK UNBOUND:                -2.133
REMARK  Name = lig_assembled_7.pdb
REMARK  14 active torsions:
REMARK  status: ('A' for Active; 'I' for Inactive)
REMARK    1  A    between atoms: _2  and  _8
REMARK    2  A    between atoms: _4  and  _15
REMARK    3  A    between atoms: _5  and  _6
REMARK    4  A    between atoms: _5  and  _16
REMARK    5  A    between atoms: _9  and  _10
REMARK    6  A    between atoms: _12  and  _13
REMARK    7  A    between atoms: _16  and  _18
REMARK    8  A    between atoms: _17  and  _22
REMARK    9  A    between atoms: _18  and  _21
REMARK   10  A    between atoms: _26  and  _36
REMARK   11  A    between atoms: _28  and  _29
REMARK   12  A    between atoms: _30  and  _32
REMARK   13  A    between atoms: _32  and  _34
REMARK   14  A    between atoms: _34  and  _36
REMARK                            x       y       z     vdW  Elec       q    Type
REMARK                         _______ _______ _______ _____ _____    ______ ____
ROOT
ATOM      1  C   UNL     1      27.836  17.370  -1.169  0.00  0.00    +0.400 C 
ATOM      2  N   UNL     1      26.974  16.699  -2.004  0.00  0.00    -0.278 N 
ATOM      3  H   UNL     1      26.077  17.278  -1.951  0.00  0.00    +0.152 HD
ATOM      4  O   UNL     1      27.492  18.470  -0.743  0.00  0.00    -0.226 OA
ENDROOT
BRANCH   1   5
ATOM      5  O   UNL     1      28.934  16.750  -0.882  0.00  0.00    -0.450 OA
BRANCH   5   6
ATOM      6  C   UNL     1      30.065  16.908  -0.059  0.00  0.00    +0.240 C 
BRANCH   6   7
ATOM      7  C   UNL     1      30.918  15.656   0.225  0.00  0.00    +0.100 C 
BRANCH   7   9
ATOM      8  N   UNL     1      30.178  13.412  -0.478  0.00  0.00    -0.134 NA
ATOM      9  C   UNL     1      30.053  14.470   0.367  0.00  0.00    +0.086 A 
ATOM     10  C   UNL     1      29.052  14.196   1.280  0.00  0.00    +0.139 A 
ATOM     11  N   UNL     1      28.556  12.961   0.918  0.00  0.00    -0.219 N 
ATOM     12  N   UNL     1      29.293  12.495  -0.122  0.00  0.00    -0.061 NA
BRANCH  11  13
ATOM     13  C   UNL     1      27.472  12.212   1.480  0.00  0.00    +0.073 A 
ATOM     14  C   UNL     1      27.690  11.449   2.666  0.00  0.00    -0.024 A 
ATOM     15  C   UNL     1      26.627  10.708   3.228  0.00  0.00    +0.008 A 
ATOM     16  C   UNL     1      25.358  10.709   2.657  0.00  0.00    -0.050 A 
ATOM     17  C   UNL     1      24.251   9.912   3.282  0.00  0.00    +0.044 C 
ATOM     18  C   UNL     1      25.149  11.456   1.502  0.00  0.00    +0.008 A 
ATOM     19  C   UNL     1      28.996  11.404   3.430  0.00  0.00    +0.046 C 
ATOM     20  C   UNL     1      26.185  12.195   0.883  0.00  0.00    -0.024 A 
ATOM     21  C   UNL     1      25.780  12.828  -0.425  0.00  0.00    +0.046 C 
ENDBRANCH  11  13
ENDBRANCH   7   9
ENDBRANCH   6   7
ENDBRANCH   5   6
ENDBRANCH   1   5
BRANCH   2  22
ATOM     22  C   UNL     1      26.745  15.586  -2.922  0.00  0.00    +0.152 C 
BRANCH  22  23
ATOM     23  C   UNL     1      25.773  15.856  -4.089  0.00  0.00    +0.193 C 
ATOM     24  O   UNL     1      26.560  15.824  -5.300  0.00  0.00    -0.219 OA
BRANCH  23  25
ATOM     25  C   UNL     1      24.646  14.829  -4.334  0.00  0.00    +0.212 C 
ATOM     26  O   UNL     1      24.376  14.705  -5.739  0.00  0.00    -0.218 OA
BRANCH  25  27
ATOM     27  C   UNL     1      24.969  13.398  -3.756  0.00  0.00    +0.171 C 
ATOM     28  O   UNL     1      25.842  12.652  -4.597  0.00  0.00    -0.343 OA
ATOM     29  C   UNL     1      26.096  11.285  -4.455  0.00  0.00    +0.220 C 
ATOM     30  C   UNL     1      24.795  10.470  -4.357  0.00  0.00    +0.076 C 
ATOM     31  C   UNL     1      23.944  11.090  -3.236  0.00  0.00    +0.177 C 
ATOM     32  O   UNL     1      22.743  10.348  -3.077  0.00  0.00    -0.221 OA
ATOM     33  C   UNL     1      23.646  12.589  -3.554  0.00  0.00    +0.155 C 
BRANCH  33  34
ATOM     34  N   UNL     1      22.832  13.180  -2.495  0.00  0.00    -0.202 NA
ATOM     35  C   UNL     1      21.565  13.665  -2.543  0.00  0.00    +0.242 C 
ATOM     36  C   UNL     1      20.857  13.946  -1.243  0.00  0.00    +0.096 C 
ATOM     37  O   UNL     1      21.031  13.861  -3.632  0.00  0.00    -0.273 OA
ENDBRANCH  33  34
BRANCH  29  38
ATOM     38  C   UNL     1      27.111  10.939  -3.234  0.00  0.00    +0.391 C 
ATOM     39  O   UNL     1      26.904   9.635  -2.970  0.00  0.00    -0.243 OA
ATOM     40  O   UNL     1      27.963  11.969  -3.158  0.00  0.00    -0.243 OA
ENDBRANCH  29  38
ENDBRANCH  25  27
ENDBRANCH  23  25
ENDBRANCH  22  23
ENDBRANCH   2  22
TORSDOF 11
