REMARK VINA RESULT:    -7.273      2.205      4.433
REMARK INTER + INTRA:         -15.294
REMARK INTER:                 -13.201
REMARK INTRA:                  -2.093
REMARK UNBOUND:                -2.494
REMARK  Name = lig_assembled_79.pdb
REMARK  15 active torsions:
REMARK  status: ('A' for Active; 'I' for Inactive)
REMARK    1  A    between atoms: _2  and  _9
REMARK    2  A    between atoms: _6  and  _7
REMARK    3  A    between atoms: _6  and  _21
REMARK    4  A    between atoms: _9  and  _10
REMARK    5  A    between atoms: _9  and  _11
REMARK    6  A    between atoms: _9  and  _12
REMARK    7  A    between atoms: _12  and  _13
REMARK    8  A    between atoms: _21  and  _23
REMARK    9  A    between atoms: _22  and  _27
REMARK   10  A    between atoms: _23  and  _26
REMARK   11  A    between atoms: _31  and  _41
REMARK   12  A    between atoms: _33  and  _34
REMARK   13  A    between atoms: _35  and  _37
REMARK   14  A    between atoms: _37  and  _39
REMARK   15  A    between atoms: _39  and  _41
REMARK                            x       y       z     vdW  Elec       q    Type
REMARK                         _______ _______ _______ _____ _____    ______ ____
ROOT
ATOM      1  O   UNL     1      28.157  17.299  -2.111  0.00  0.00    -0.450 OA
ENDROOT
BRANCH   1   2
ATOM      2  C   UNL     1      27.905  17.361  -0.845  0.00  0.00    +0.400 C 
ATOM      3  N   UNL     1      28.145  16.209  -0.133  0.00  0.00    -0.278 N 
ATOM      4  H   UNL     1      28.067  16.526   0.884  0.00  0.00    +0.152 HD
ATOM      5  O   UNL     1      27.506  18.348  -0.232  0.00  0.00    -0.226 OA
BRANCH   3   6
ATOM      6  C   UNL     1      28.438  14.778  -0.144  0.00  0.00    +0.152 C 
BRANCH   6   7
ATOM      7  C   UNL     1      29.530  14.301   0.836  0.00  0.00    +0.193 C 
ATOM      8  O   UNL     1      29.652  12.872   0.657  0.00  0.00    -0.219 OA
BRANCH   7   9
ATOM      9  C   UNL     1      30.962  14.839   0.628  0.00  0.00    +0.212 C 
ATOM     10  O   UNL     1      31.045  16.216   1.032  0.00  0.00    -0.218 OA
BRANCH   9  11
ATOM     11  C   UNL     1      32.057  14.018   1.410  0.00  0.00    +0.171 C 
ATOM     12  O   UNL     1      32.435  14.638   2.636  0.00  0.00    -0.343 OA
ATOM     13  C   UNL     1      33.542  14.263   3.400  0.00  0.00    +0.220 C 
ATOM     14  C   UNL     1      34.821  14.181   2.549  0.00  0.00    +0.076 C 
ATOM     15  C   UNL     1      34.522  13.266   1.350  0.00  0.00    +0.177 C 
ATOM     16  O   UNL     1      35.687  13.124   0.550  0.00  0.00    -0.221 OA
ATOM     17  C   UNL     1      33.331  13.838   0.521  0.00  0.00    +0.155 C 
BRANCH  17  18
ATOM     18  N   UNL     1      33.048  12.975  -0.623  0.00  0.00    -0.202 NA
ATOM     19  C   UNL     1      33.035  13.267  -1.948  0.00  0.00    +0.242 C 
ATOM     20  C   UNL     1      33.003  12.127  -2.932  0.00  0.00    +0.096 C 
ATOM     21  O   UNL     1      33.052  14.442  -2.312  0.00  0.00    -0.273 OA
ENDBRANCH  17  18
BRANCH  13  22
ATOM     22  C   UNL     1      33.307  12.902   4.256  0.00  0.00    +0.391 C 
ATOM     23  O   UNL     1      34.458  12.712   4.929  0.00  0.00    -0.243 OA
ATOM     24  O   UNL     1      31.991  12.658   4.208  0.00  0.00    -0.243 OA
ENDBRANCH  13  22
ENDBRANCH   9  11
ENDBRANCH   7   9
ENDBRANCH   6   7
ENDBRANCH   3   6
ENDBRANCH   1   2
BRANCH   1  25
ATOM     25  C   UNL     1      27.473  17.369  -3.341  0.00  0.00    +0.240 C 
BRANCH  25  26
ATOM     26  C   UNL     1      25.934  17.308  -3.304  0.00  0.00    +0.100 C 
BRANCH  26  28
ATOM     27  N   UNL     1      26.207  14.924  -3.872  0.00  0.00    -0.134 NA
ATOM     28  C   UNL     1      25.483  15.906  -3.261  0.00  0.00    +0.086 A 
ATOM     29  C   UNL     1      24.368  15.349  -2.678  0.00  0.00    +0.134 A 
ATOM     30  N   UNL     1      24.506  14.005  -2.885  0.00  0.00    -0.238 N 
ATOM     31  N   UNL     1      25.581  13.773  -3.679  0.00  0.00    -0.065 NA
BRANCH  30  32
ATOM     32  C   UNL     1      23.596  12.867  -2.562  0.00  0.00    +0.122 C 
ATOM     33  C   UNL     1      22.855  13.253  -1.260  0.00  0.00    +0.044 C 
ATOM     34  C   UNL     1      24.521  11.641  -2.439  0.00  0.00    +0.044 C 
BRANCH  32  35
ATOM     35  C   UNL     1      22.524  12.611  -3.643  0.00  0.00    +0.192 C 
ATOM     36  O   UNL     1      22.391  11.486  -4.133  0.00  0.00    -0.289 OA
BRANCH  35  37
ATOM     37  C   UNL     1      21.628  13.687  -4.157  0.00  0.00    +0.045 A 
ATOM     38  C   UNL     1      22.053  14.500  -5.203  0.00  0.00    +0.095 A 
ATOM     39  N   UNL     1      21.092  15.422  -5.487  0.00  0.00    -0.360 N 
ATOM     40  H   UNL     1      21.161  16.137  -6.199  0.00  0.00    +0.165 HD
ATOM     41  C   UNL     1      20.017  15.251  -4.654  0.00  0.00    +0.047 A 
ATOM     42  C   UNL     1      18.824  15.986  -4.597  0.00  0.00    +0.026 A 
ATOM     43  C   UNL     1      17.869  15.622  -3.649  0.00  0.00    +0.002 A 
ATOM     44  C   UNL     1      18.101  14.559  -2.792  0.00  0.00    +0.001 A 
ATOM     45  C   UNL     1      19.298  13.837  -2.865  0.00  0.00    +0.011 A 
ATOM     46  C   UNL     1      20.303  14.170  -3.809  0.00  0.00    +0.010 A 
ENDBRANCH  35  37
ENDBRANCH  32  35
ENDBRANCH  30  32
ENDBRANCH  26  28
ENDBRANCH  25  26
ENDBRANCH   1  25
TORSDOF 13
