REMARK VINA RESULT:    -7.310      2.840      9.074
REMARK INTER + INTRA:         -14.345
REMARK INTER:                 -11.418
REMARK INTRA:                  -2.927
REMARK UNBOUND:                -1.480
REMARK  Name = lig_assembled_58.pdb
REMARK  13 active torsions:
REMARK  status: ('A' for Active; 'I' for Inactive)
REMARK    1  A    between atoms: _2  and  _8
REMARK    2  A    between atoms: _5  and  _6
REMARK    3  A    between atoms: _5  and  _20
REMARK    4  A    between atoms: _8  and  _9
REMARK    5  A    between atoms: _8  and  _15
REMARK    6  A    between atoms: _20  and  _22
REMARK    7  A    between atoms: _21  and  _26
REMARK    8  A    between atoms: _22  and  _25
REMARK    9  A    between atoms: _30  and  _40
REMARK   10  A    between atoms: _32  and  _33
REMARK   11  A    between atoms: _34  and  _36
REMARK   12  A    between atoms: _36  and  _38
REMARK   13  A    between atoms: _38  and  _40
REMARK                            x       y       z     vdW  Elec       q    Type
REMARK                         _______ _______ _______ _____ _____    ______ ____
ROOT
ATOM      1  C   UNL     1      28.628  16.773  -0.504  0.00  0.00    +0.400 C 
ATOM      2  N   UNL     1      28.015  15.543  -0.464  0.00  0.00    -0.278 N 
ATOM      3  H   UNL     1      26.994  15.782  -0.253  0.00  0.00    +0.152 HD
ATOM      4  O   UNL     1      27.917  17.775  -0.485  0.00  0.00    -0.226 OA
ENDROOT
BRANCH   2   5
ATOM      5  C   UNL     1      28.126  14.092  -0.591  0.00  0.00    +0.152 C 
BRANCH   5   6
ATOM      6  C   UNL     1      28.402  13.554  -2.010  0.00  0.00    +0.193 C 
ATOM      7  O   UNL     1      29.399  12.517  -1.875  0.00  0.00    -0.219 OA
BRANCH   6   8
ATOM      8  C   UNL     1      27.234  12.871  -2.756  0.00  0.00    +0.212 C 
ATOM      9  O   UNL     1      27.452  11.454  -2.839  0.00  0.00    -0.218 OA
BRANCH   8  10
ATOM     10  C   UNL     1      25.831  13.127  -2.085  0.00  0.00    +0.171 C 
ATOM     11  O   UNL     1      25.047  11.943  -1.987  0.00  0.00    -0.343 OA
ATOM     12  C   UNL     1      23.688  11.922  -1.663  0.00  0.00    +0.220 C 
ATOM     13  C   UNL     1      22.879  12.900  -2.533  0.00  0.00    +0.076 C 
ATOM     14  C   UNL     1      23.550  14.280  -2.423  0.00  0.00    +0.177 C 
ATOM     15  O   UNL     1      22.817  15.233  -3.178  0.00  0.00    -0.221 OA
ATOM     16  C   UNL     1      25.033  14.196  -2.901  0.00  0.00    +0.155 C 
BRANCH  16  17
ATOM     17  N   UNL     1      25.671  15.507  -2.805  0.00  0.00    -0.202 NA
ATOM     18  C   UNL     1      26.237  16.269  -3.774  0.00  0.00    +0.242 C 
ATOM     19  C   UNL     1      26.559  17.707  -3.457  0.00  0.00    +0.096 C 
ATOM     20  O   UNL     1      26.471  15.777  -4.876  0.00  0.00    -0.273 OA
ENDBRANCH  16  17
BRANCH  12  21
ATOM     21  C   UNL     1      23.396  12.148  -0.081  0.00  0.00    +0.391 C 
ATOM     22  O   UNL     1      22.058  12.272   0.011  0.00  0.00    -0.243 OA
ATOM     23  O   UNL     1      24.531  11.830   0.554  0.00  0.00    -0.243 OA
ENDBRANCH  12  21
ENDBRANCH   8  10
ENDBRANCH   6   8
ENDBRANCH   5   6
ENDBRANCH   2   5
BRANCH   1  24
ATOM     24  O   UNL     1      29.920  16.754  -0.527  0.00  0.00    -0.450 OA
BRANCH  24  25
ATOM     25  C   UNL     1      30.995  16.280   0.250  0.00  0.00    +0.240 C 
BRANCH  25  26
ATOM     26  C   UNL     1      32.002  15.334  -0.432  0.00  0.00    +0.100 C 
BRANCH  26  28
ATOM     27  N   UNL     1      33.150  13.232   0.228  0.00  0.00    -0.134 NA
ATOM     28  C   UNL     1      32.049  14.042   0.277  0.00  0.00    +0.086 A 
ATOM     29  C   UNL     1      31.100  13.460   1.085  0.00  0.00    +0.134 A 
ATOM     30  N   UNL     1      31.738  12.376   1.626  0.00  0.00    -0.240 N 
ATOM     31  N   UNL     1      32.945  12.202   1.042  0.00  0.00    -0.065 NA
BRANCH  30  32
ATOM     32  C   UNL     1      31.302  11.480   2.713  0.00  0.00    +0.169 C 
BRANCH  32  33
ATOM     33  C   UNL     1      29.779  11.480   2.908  0.00  0.00    -0.019 A 
ATOM     34  C   UNL     1      29.157  12.387   3.786  0.00  0.00    +0.006 A 
ATOM     35  C   UNL     1      27.770  12.381   3.961  0.00  0.00    +0.000 A 
ATOM     36  C   UNL     1      26.979  11.487   3.247  0.00  0.00    +0.000 A 
ATOM     37  C   UNL     1      27.565  10.621   2.334  0.00  0.00    +0.000 A 
ATOM     38  C   UNL     1      28.947  10.630   2.153  0.00  0.00    +0.006 A 
ENDBRANCH  32  33
BRANCH  32  39
ATOM     39  C   UNL     1      32.116  11.764   3.983  0.00  0.00    -0.019 A 
ATOM     40  C   UNL     1      32.157  10.817   5.022  0.00  0.00    +0.006 A 
ATOM     41  C   UNL     1      32.847  11.090   6.206  0.00  0.00    +0.000 A 
ATOM     42  C   UNL     1      33.517  12.300   6.367  0.00  0.00    +0.000 A 
ATOM     43  C   UNL     1      33.486  13.250   5.354  0.00  0.00    +0.000 A 
ATOM     44  C   UNL     1      32.782  12.989   4.179  0.00  0.00    +0.006 A 
ENDBRANCH  32  39
ENDBRANCH  30  32
ENDBRANCH  26  28
ENDBRANCH  25  26
ENDBRANCH  24  25
ENDBRANCH   1  24
TORSDOF 13
