REMARK VINA RESULT:    -6.405     21.667     24.896
REMARK INTER + INTRA:         -12.983
REMARK INTER:                 -10.664
REMARK INTRA:                  -2.319
REMARK UNBOUND:                -1.336
REMARK  Name = lig_assembled_19.pdb
REMARK  15 active torsions:
REMARK  status: ('A' for Active; 'I' for Inactive)
REMARK    1  A    between atoms: _2  and  _8
REMARK    2  A    between atoms: _4  and  _10
REMARK    3  A    between atoms: _5  and  _6
REMARK    4  A    between atoms: _5  and  _13
REMARK    5  A    between atoms: _8  and  _9
REMARK    6  A    between atoms: _9  and  _12
REMARK    7  A    between atoms: _10  and  _12
REMARK    8  A    between atoms: _13  and  _15
REMARK    9  A    between atoms: _14  and  _19
REMARK   10  A    between atoms: _15  and  _18
REMARK   11  A    between atoms: _23  and  _33
REMARK   12  A    between atoms: _25  and  _26
REMARK   13  A    between atoms: _27  and  _29
REMARK   14  A    between atoms: _29  and  _31
REMARK   15  A    between atoms: _31  and  _33
REMARK                            x       y       z     vdW  Elec       q    Type
REMARK                         _______ _______ _______ _____ _____    ______ ____
ROOT
ATOM      1  C   UNL     1      46.931  25.391   9.721  0.00  0.00    +0.152 C 
ENDROOT
BRANCH   1   3
ATOM      2  C   UNL     1      44.895  26.638  11.042  0.00  0.00    +0.400 C 
ATOM      3  N   UNL     1      45.640  25.951  10.113  0.00  0.00    -0.278 N 
ATOM      4  H   UNL     1      44.941  25.760   9.328  0.00  0.00    +0.152 HD
ATOM      5  O   UNL     1      43.770  27.012  10.721  0.00  0.00    -0.226 OA
BRANCH   2   6
ATOM      6  O   UNL     1      45.452  26.801  12.197  0.00  0.00    -0.450 OA
BRANCH   6   7
ATOM      7  C   UNL     1      46.201  26.064  13.135  0.00  0.00    +0.240 C 
BRANCH   7   8
ATOM      8  C   UNL     1      47.007  26.857  14.182  0.00  0.00    +0.100 C 
BRANCH   8  10
ATOM      9  N   UNL     1      45.203  28.001  15.438  0.00  0.00    -0.134 NA
ATOM     10  C   UNL     1      46.202  27.064  15.400  0.00  0.00    +0.086 A 
ATOM     11  C   UNL     1      46.273  26.434  16.622  0.00  0.00    +0.133 A 
ATOM     12  N   UNL     1      45.301  27.040  17.359  0.00  0.00    -0.248 N 
ATOM     13  N   UNL     1      44.655  27.977  16.646  0.00  0.00    -0.065 NA
BRANCH  12  14
ATOM     14  C   UNL     1      44.927  26.770  18.729  0.00  0.00    +0.186 C 
BRANCH  14  15
ATOM     15  C   UNL     1      43.859  25.684  18.821  0.00  0.00    +0.255 C 
BRANCH  15  16
ATOM     16  O   UNL     1      44.362  24.474  19.423  0.00  0.00    -0.463 OA
BRANCH  16  17
ATOM     17  C   UNL     1      44.856  23.543  18.565  0.00  0.00    +0.304 C 
ATOM     18  O   UNL     1      44.279  23.137  17.567  0.00  0.00    -0.251 OA
ATOM     19  C   UNL     1      46.224  23.102  18.986  0.00  0.00    +0.136 C 
ENDBRANCH  16  17
ENDBRANCH  15  16
ENDBRANCH  14  15
ENDBRANCH  12  14
ENDBRANCH   8  10
ENDBRANCH   7   8
ENDBRANCH   6   7
ENDBRANCH   2   6
ENDBRANCH   1   3
BRANCH   1  20
ATOM     20  C   UNL     1      47.061  23.857   9.810  0.00  0.00    +0.193 C 
ATOM     21  O   UNL     1      48.390  23.580  10.304  0.00  0.00    -0.219 OA
BRANCH  20  22
ATOM     22  C   UNL     1      46.124  23.115  10.788  0.00  0.00    +0.212 C 
ATOM     23  O   UNL     1      44.758  23.224  10.355  0.00  0.00    -0.218 OA
BRANCH  22  24
ATOM     24  C   UNL     1      46.479  21.588  10.957  0.00  0.00    +0.171 C 
ATOM     25  O   UNL     1      45.769  20.757  10.045  0.00  0.00    -0.343 OA
ATOM     26  C   UNL     1      45.706  19.364  10.133  0.00  0.00    +0.220 C 
ATOM     27  C   UNL     1      45.300  18.900  11.543  0.00  0.00    +0.076 C 
ATOM     28  C   UNL     1      46.256  19.569  12.544  0.00  0.00    +0.177 C 
ATOM     29  O   UNL     1      45.949  19.141  13.863  0.00  0.00    -0.221 OA
ATOM     30  C   UNL     1      46.167  21.122  12.416  0.00  0.00    +0.155 C 
BRANCH  30  31
ATOM     31  N   UNL     1      47.069  21.762  13.370  0.00  0.00    -0.202 NA
ATOM     32  C   UNL     1      46.784  22.530  14.453  0.00  0.00    +0.242 C 
ATOM     33  C   UNL     1      47.889  22.818  15.435  0.00  0.00    +0.096 C 
ATOM     34  O   UNL     1      45.645  22.966  14.606  0.00  0.00    -0.273 OA
ENDBRANCH  30  31
BRANCH  26  35
ATOM     35  C   UNL     1      47.059  18.622   9.627  0.00  0.00    +0.391 C 
ATOM     36  O   UNL     1      46.966  17.366  10.105  0.00  0.00    -0.243 OA
ATOM     37  O   UNL     1      47.594  19.422   8.696  0.00  0.00    -0.243 OA
ENDBRANCH  26  35
ENDBRANCH  22  24
ENDBRANCH  20  22
ENDBRANCH   1  20
TORSDOF 14
