REMARK VINA RESULT:    -6.900      2.132      2.973
REMARK INTER + INTRA:         -13.556
REMARK INTER:                 -11.574
REMARK INTRA:                  -1.982
REMARK UNBOUND:                -1.815
REMARK  Name = lig_assembled_71.pdb
REMARK  12 active torsions:
REMARK  status: ('A' for Active; 'I' for Inactive)
REMARK    1  A    between atoms: _2  and  _11
REMARK    2  A    between atoms: _8  and  _9
REMARK    3  A    between atoms: _8  and  _17
REMARK    4  A    between atoms: _11  and  _12
REMARK    5  A    between atoms: _17  and  _19
REMARK    6  A    between atoms: _18  and  _23
REMARK    7  A    between atoms: _19  and  _22
REMARK    8  A    between atoms: _27  and  _37
REMARK    9  A    between atoms: _29  and  _30
REMARK   10  A    between atoms: _31  and  _33
REMARK   11  A    between atoms: _33  and  _35
REMARK   12  A    between atoms: _35  and  _37
REMARK                            x       y       z     vdW  Elec       q    Type
REMARK                         _______ _______ _______ _____ _____    ______ ____
ROOT
ATOM      1  C   UNL     1      28.237  17.546  -1.000  0.00  0.00    +0.400 C 
ATOM      2  N   UNL     1      29.306  17.726  -0.155  0.00  0.00    -0.278 N 
ATOM      3  H   UNL     1      29.258  18.766   0.087  0.00  0.00    +0.152 HD
ATOM      4  O   UNL     1      27.436  18.468  -1.126  0.00  0.00    -0.226 OA
ENDROOT
BRANCH   2   5
ATOM      5  C   UNL     1      30.442  17.145   0.556  0.00  0.00    +0.152 C 
BRANCH   5   6
ATOM      6  C   UNL     1      30.828  15.705   0.159  0.00  0.00    +0.193 C 
ATOM      7  O   UNL     1      31.981  15.807  -0.705  0.00  0.00    -0.219 OA
BRANCH   6   8
ATOM      8  C   UNL     1      31.275  14.748   1.286  0.00  0.00    +0.212 C 
ATOM      9  O   UNL     1      31.557  15.484   2.487  0.00  0.00    -0.218 OA
BRANCH   8  10
ATOM     10  C   UNL     1      30.211  13.633   1.617  0.00  0.00    +0.171 C 
ATOM     11  O   UNL     1      30.056  13.421   3.016  0.00  0.00    -0.343 OA
ATOM     12  C   UNL     1      29.372  12.341   3.579  0.00  0.00    +0.220 C 
ATOM     13  C   UNL     1      29.842  10.999   2.992  0.00  0.00    +0.076 C 
ATOM     14  C   UNL     1      29.740  11.103   1.461  0.00  0.00    +0.177 C 
ATOM     15  O   UNL     1      30.126   9.871   0.868  0.00  0.00    -0.221 OA
ATOM     16  C   UNL     1      30.620  12.282   0.943  0.00  0.00    +0.155 C 
BRANCH  16  17
ATOM     17  N   UNL     1      30.532  12.380  -0.512  0.00  0.00    -0.202 NA
ATOM     18  C   UNL     1      31.515  12.328  -1.446  0.00  0.00    +0.242 C 
ATOM     19  C   UNL     1      31.121  12.158  -2.891  0.00  0.00    +0.096 C 
ATOM     20  O   UNL     1      32.691  12.419  -1.098  0.00  0.00    -0.273 OA
ENDBRANCH  16  17
BRANCH  12  21
ATOM     21  C   UNL     1      27.755  12.491   3.507  0.00  0.00    +0.391 C 
ATOM     22  O   UNL     1      27.283  11.238   3.657  0.00  0.00    -0.243 OA
ATOM     23  O   UNL     1      27.500  13.799   3.630  0.00  0.00    -0.243 OA
ENDBRANCH  12  21
ENDBRANCH   8  10
ENDBRANCH   6   8
ENDBRANCH   5   6
ENDBRANCH   2   5
BRANCH   1  24
ATOM     24  O   UNL     1      28.196  16.410  -1.617  0.00  0.00    -0.450 OA
BRANCH  24  25
ATOM     25  C   UNL     1      27.246  15.472  -2.066  0.00  0.00    +0.240 C 
BRANCH  25  26
ATOM     26  C   UNL     1      26.320  15.897  -3.222  0.00  0.00    +0.100 C 
BRANCH  26  28
ATOM     27  N   UNL     1      24.818  14.011  -3.817  0.00  0.00    -0.134 NA
ATOM     28  C   UNL     1      25.032  15.182  -3.136  0.00  0.00    +0.086 A 
ATOM     29  C   UNL     1      23.898  15.500  -2.427  0.00  0.00    +0.134 A 
ATOM     30  N   UNL     1      23.022  14.498  -2.727  0.00  0.00    -0.243 N 
ATOM     31  N   UNL     1      23.585  13.596  -3.552  0.00  0.00    -0.065 NA
BRANCH  30  32
ATOM     32  C   UNL     1      21.697  14.264  -2.193  0.00  0.00    +0.241 C 
BRANCH  32  33
ATOM     33  C   UNL     1      21.609  12.942  -1.474  0.00  0.00    +0.241 C 
ATOM     34  O   UNL     1      20.602  12.244  -1.588  0.00  0.00    -0.273 OA
ATOM     35  N   UNL     1      22.686  12.660  -0.660  0.00  0.00    -0.253 N 
ATOM     36  H   UNL     1      23.389  13.349  -0.441  0.00  0.00    +0.158 HD
ATOM     37  C   UNL     1      22.816  11.485   0.071  0.00  0.00    +0.221 A 
ATOM     38  N   UNL     1      23.765  11.502   1.020  0.00  0.00    -0.223 NA
ATOM     39  C   UNL     1      23.856  10.397   1.790  0.00  0.00    +0.116 A 
ATOM     40  C   UNL     1      23.064   9.285   1.629  0.00  0.00    +0.039 A 
ATOM     41  C   UNL     1      22.161   9.355   0.602  0.00  0.00    +0.116 A 
ATOM     42  N   UNL     1      22.025  10.438  -0.180  0.00  0.00    -0.223 NA
ENDBRANCH  32  33
ENDBRANCH  30  32
ENDBRANCH  26  28
ENDBRANCH  25  26
ENDBRANCH  24  25
ENDBRANCH   1  24
TORSDOF 12
