REMARK VINA RESULT:    -6.897      1.554      2.671
REMARK INTER + INTRA:         -14.232
REMARK INTER:                 -12.966
REMARK INTRA:                  -1.265
REMARK UNBOUND:                -2.094
REMARK  Name = lig_assembled_24.pdb
REMARK  14 active torsions:
REMARK  status: ('A' for Active; 'I' for Inactive)
REMARK    1  A    between atoms: _2  and  _8
REMARK    2  A    between atoms: _5  and  _6
REMARK    3  A    between atoms: _5  and  _16
REMARK    4  A    between atoms: _8  and  _9
REMARK    5  A    between atoms: _12  and  _15
REMARK    6  A    between atoms: _13  and  _15
REMARK    7  A    between atoms: _16  and  _18
REMARK    8  A    between atoms: _17  and  _22
REMARK    9  A    between atoms: _18  and  _21
REMARK   10  A    between atoms: _26  and  _36
REMARK   11  A    between atoms: _28  and  _29
REMARK   12  A    between atoms: _30  and  _32
REMARK   13  A    between atoms: _32  and  _34
REMARK   14  A    between atoms: _34  and  _36
REMARK                            x       y       z     vdW  Elec       q    Type
REMARK                         _______ _______ _______ _____ _____    ______ ____
ROOT
ATOM      1  C   UNL     1      27.888  17.406  -0.845  0.00  0.00    +0.400 C 
ATOM      2  N   UNL     1      28.583  16.498  -0.080  0.00  0.00    -0.278 N 
ATOM      3  H   UNL     1      28.808  17.045   0.810  0.00  0.00    +0.152 HD
ATOM      4  O   UNL     1      27.547  18.463  -0.321  0.00  0.00    -0.226 OA
ENDROOT
BRANCH   1   5
ATOM      5  O   UNL     1      27.685  17.063  -2.074  0.00  0.00    -0.450 OA
BRANCH   5   6
ATOM      6  C   UNL     1      26.778  17.322  -3.120  0.00  0.00    +0.240 C 
BRANCH   6   7
ATOM      7  C   UNL     1      26.517  16.190  -4.132  0.00  0.00    +0.100 C 
BRANCH   7   9
ATOM      8  N   UNL     1      24.616  14.791  -4.881  0.00  0.00    -0.134 NA
ATOM      9  C   UNL     1      25.149  15.663  -3.969  0.00  0.00    +0.086 A 
ATOM     10  C   UNL     1      24.228  15.888  -2.971  0.00  0.00    +0.134 A 
ATOM     11  N   UNL     1      23.182  15.074  -3.291  0.00  0.00    -0.247 N 
ATOM     12  N   UNL     1      23.409  14.444  -4.462  0.00  0.00    -0.065 NA
BRANCH  11  13
ATOM     13  C   UNL     1      21.961  14.765  -2.563  0.00  0.00    +0.180 C 
BRANCH  13  14
ATOM     14  C   UNL     1      22.110  13.700  -1.503  0.00  0.00    -0.026 A 
ATOM     15  C   UNL     1      23.365  13.142  -1.225  0.00  0.00    +0.009 A 
ATOM     16  C   UNL     1      23.493  12.159  -0.241  0.00  0.00    +0.046 A 
ATOM     17  C   UNL     1      22.383  11.732   0.489  0.00  0.00    +0.120 A 
ATOM     18  C   UNL     1      21.129  12.264   0.201  0.00  0.00    +0.046 A 
ATOM     19  C   UNL     1      20.992  13.245  -0.789  0.00  0.00    +0.009 A 
BRANCH  17  20
ATOM     20  O   UNL     1      22.629  10.752   1.411  0.00  0.00    -0.495 OA
ATOM     21  C   UNL     1      23.518   9.723   0.988  0.00  0.00    +0.277 C 
ENDBRANCH  17  20
ENDBRANCH  13  14
ENDBRANCH  11  13
ENDBRANCH   7   9
ENDBRANCH   6   7
ENDBRANCH   5   6
ENDBRANCH   1   5
BRANCH   2  22
ATOM     22  C   UNL     1      29.125  15.150   0.064  0.00  0.00    +0.152 C 
BRANCH  22  23
ATOM     23  C   UNL     1      30.657  15.017  -0.055  0.00  0.00    +0.193 C 
ATOM     24  O   UNL     1      31.148  16.287  -0.539  0.00  0.00    -0.219 OA
BRANCH  23  25
ATOM     25  C   UNL     1      31.456  14.765   1.243  0.00  0.00    +0.212 C 
ATOM     26  O   UNL     1      31.288  15.862   2.157  0.00  0.00    -0.218 OA
BRANCH  25  27
ATOM     27  C   UNL     1      31.049  13.431   1.978  0.00  0.00    +0.171 C 
ATOM     28  O   UNL     1      29.926  13.599   2.837  0.00  0.00    -0.343 OA
ATOM     29  C   UNL     1      29.508  12.659   3.781  0.00  0.00    +0.220 C 
ATOM     30  C   UNL     1      30.670  12.198   4.679  0.00  0.00    +0.076 C 
ATOM     31  C   UNL     1      31.808  11.729   3.758  0.00  0.00    +0.177 C 
ATOM     32  O   UNL     1      32.895  11.253   4.540  0.00  0.00    -0.221 OA
ATOM     33  C   UNL     1      32.253  12.892   2.818  0.00  0.00    +0.155 C 
BRANCH  33  34
ATOM     34  N   UNL     1      33.339  12.452   1.946  0.00  0.00    -0.202 NA
ATOM     35  C   UNL     1      34.593  12.952   1.803  0.00  0.00    +0.242 C 
ATOM     36  C   UNL     1      35.609  12.131   1.052  0.00  0.00    +0.096 C 
ATOM     37  O   UNL     1      34.869  14.049   2.285  0.00  0.00    -0.273 OA
ENDBRANCH  33  34
BRANCH  29  38
ATOM     38  C   UNL     1      28.718  11.397   3.132  0.00  0.00    +0.391 C 
ATOM     39  O   UNL     1      28.689  10.466   4.106  0.00  0.00    -0.243 OA
ATOM     40  O   UNL     1      28.143  11.856   2.014  0.00  0.00    -0.243 OA
ENDBRANCH  29  38
ENDBRANCH  25  27
ENDBRANCH  23  25
ENDBRANCH  22  23
ENDBRANCH   2  22
TORSDOF 13
