REMARK VINA RESULT:    -6.359      2.120      3.811
REMARK INTER + INTRA:         -13.478
REMARK INTER:                 -11.598
REMARK INTRA:                  -1.881
REMARK UNBOUND:                -2.287
REMARK  Name = lig_assembled_67.pdb
REMARK  13 active torsions:
REMARK  status: ('A' for Active; 'I' for Inactive)
REMARK    1  A    between atoms: _2  and  _8
REMARK    2  A    between atoms: _5  and  _6
REMARK    3  A    between atoms: _5  and  _14
REMARK    4  A    between atoms: _8  and  _9
REMARK    5  A    between atoms: _9  and  _10
REMARK    6  A    between atoms: _14  and  _16
REMARK    7  A    between atoms: _15  and  _20
REMARK    8  A    between atoms: _16  and  _19
REMARK    9  A    between atoms: _24  and  _34
REMARK   10  A    between atoms: _26  and  _27
REMARK   11  A    between atoms: _28  and  _30
REMARK   12  A    between atoms: _30  and  _32
REMARK   13  A    between atoms: _32  and  _34
REMARK                            x       y       z     vdW  Elec       q    Type
REMARK                         _______ _______ _______ _____ _____    ______ ____
ROOT
ATOM      1  C   UNL     1      28.283  17.665  -0.560  0.00  0.00    +0.400 C 
ATOM      2  N   UNL     1      29.475  17.459   0.095  0.00  0.00    -0.278 N 
ATOM      3  H   UNL     1      29.461  18.193   0.871  0.00  0.00    +0.152 HD
ATOM      4  O   UNL     1      27.467  18.429  -0.050  0.00  0.00    -0.226 OA
ENDROOT
BRANCH   2   5
ATOM      5  C   UNL     1      30.715  16.695   0.211  0.00  0.00    +0.152 C 
BRANCH   5   6
ATOM      6  C   UNL     1      30.580  15.162   0.110  0.00  0.00    +0.193 C 
ATOM      7  O   UNL     1      31.455  14.738  -0.960  0.00  0.00    -0.219 OA
BRANCH   6   8
ATOM      8  C   UNL     1      31.027  14.323   1.327  0.00  0.00    +0.212 C 
ATOM      9  O   UNL     1      31.356  15.179   2.433  0.00  0.00    -0.218 OA
BRANCH   8  10
ATOM     10  C   UNL     1      29.940  13.284   1.801  0.00  0.00    +0.171 C 
ATOM     11  O   UNL     1      28.638  13.853   1.887  0.00  0.00    -0.343 OA
ATOM     12  C   UNL     1      27.547  13.236   2.504  0.00  0.00    +0.220 C 
ATOM     13  C   UNL     1      27.895  12.747   3.921  0.00  0.00    +0.076 C 
ATOM     14  C   UNL     1      29.156  11.874   3.812  0.00  0.00    +0.177 C 
ATOM     15  O   UNL     1      29.499  11.362   5.092  0.00  0.00    -0.221 OA
ATOM     16  C   UNL     1      30.330  12.699   3.199  0.00  0.00    +0.155 C 
BRANCH  16  17
ATOM     17  N   UNL     1      31.532  11.875   3.100  0.00  0.00    -0.202 NA
ATOM     18  C   UNL     1      32.717  11.988   3.753  0.00  0.00    +0.242 C 
ATOM     19  C   UNL     1      33.683  10.834   3.685  0.00  0.00    +0.096 C 
ATOM     20  O   UNL     1      32.971  13.015   4.379  0.00  0.00    -0.273 OA
ENDBRANCH  16  17
BRANCH  12  21
ATOM     21  C   UNL     1      26.882  12.054   1.611  0.00  0.00    +0.391 C 
ATOM     22  O   UNL     1      26.038  11.419   2.448  0.00  0.00    -0.243 OA
ATOM     23  O   UNL     1      27.183  12.338   0.338  0.00  0.00    -0.243 OA
ENDBRANCH  12  21
ENDBRANCH   8  10
ENDBRANCH   6   8
ENDBRANCH   5   6
ENDBRANCH   2   5
BRANCH   1  24
ATOM     24  O   UNL     1      28.148  17.045  -1.686  0.00  0.00    -0.450 OA
BRANCH  24  25
ATOM     25  C   UNL     1      27.299  16.096  -2.288  0.00  0.00    +0.240 C 
BRANCH  25  26
ATOM     26  C   UNL     1      26.660  16.469  -3.639  0.00  0.00    +0.100 C 
BRANCH  26  28
ATOM     27  N   UNL     1      25.093  15.038  -4.910  0.00  0.00    -0.134 NA
ATOM     28  C   UNL     1      25.359  15.792  -3.798  0.00  0.00    +0.086 A 
ATOM     29  C   UNL     1      24.262  15.773  -2.967  0.00  0.00    +0.133 A 
ATOM     30  N   UNL     1      23.362  14.995  -3.631  0.00  0.00    -0.251 N 
ATOM     31  N   UNL     1      23.861  14.556  -4.798  0.00  0.00    -0.065 NA
BRANCH  30  32
ATOM     32  C   UNL     1      22.029  14.617  -3.218  0.00  0.00    +0.150 C 
BRANCH  32  33
ATOM     33  C   UNL     1      21.923  14.268  -1.736  0.00  0.00    +0.084 C 
BRANCH  33  34
ATOM     34  C   UNL     1      22.262  12.811  -1.455  0.00  0.00    +0.252 C 
ATOM     35  O   UNL     1      23.674  12.660  -1.267  0.00  0.00    -0.349 OA
ATOM     36  C   UNL     1      23.766  11.547  -0.380  0.00  0.00    +0.191 C 
ATOM     37  C   UNL     1      22.574  11.725   0.526  0.00  0.00    +0.191 C 
ATOM     38  O   UNL     1      21.579  12.356  -0.281  0.00  0.00    -0.349 OA
ENDBRANCH  33  34
ENDBRANCH  32  33
ENDBRANCH  30  32
ENDBRANCH  26  28
ENDBRANCH  25  26
ENDBRANCH  24  25
ENDBRANCH   1  24
TORSDOF 13
