REMARK VINA RESULT:    -6.211      1.385      2.617
REMARK INTER + INTRA:         -13.858
REMARK INTER:                 -12.247
REMARK INTRA:                  -1.610
REMARK UNBOUND:                -1.837
REMARK  Name = lig_assembled_45.pdb
REMARK  19 active torsions:
REMARK  status: ('A' for Active; 'I' for Inactive)
REMARK    1  A    between atoms: _2  and  _9
REMARK    2  A    between atoms: _3  and  _11
REMARK    3  A    between atoms: _3  and  _12
REMARK    4  A    between atoms: _3  and  _13
REMARK    5  A    between atoms: _3  and  _15
REMARK    6  A    between atoms: _5  and  _15
REMARK    7  A    between atoms: _6  and  _7
REMARK    8  A    between atoms: _6  and  _16
REMARK    9  A    between atoms: _9  and  _10
REMARK   10  A    between atoms: _10  and  _11
REMARK   11  A    between atoms: _13  and  _14
REMARK   12  A    between atoms: _16  and  _18
REMARK   13  A    between atoms: _17  and  _22
REMARK   14  A    between atoms: _18  and  _21
REMARK   15  A    between atoms: _26  and  _36
REMARK   16  A    between atoms: _28  and  _29
REMARK   17  A    between atoms: _30  and  _32
REMARK   18  A    between atoms: _32  and  _34
REMARK   19  A    between atoms: _34  and  _36
REMARK                            x       y       z     vdW  Elec       q    Type
REMARK                         _______ _______ _______ _____ _____    ______ ____
ROOT
ATOM      1  C   UNL     1      27.887  17.337  -0.762  0.00  0.00    +0.400 C 
ATOM      2  N   UNL     1      28.592  16.368  -0.088  0.00  0.00    -0.278 N 
ATOM      3  H   UNL     1      28.777  16.814   0.865  0.00  0.00    +0.152 HD
ATOM      4  O   UNL     1      27.499  18.316  -0.129  0.00  0.00    -0.226 OA
ENDROOT
BRANCH   2   5
ATOM      5  C   UNL     1      29.174  15.028  -0.086  0.00  0.00    +0.152 C 
BRANCH   5   6
ATOM      6  C   UNL     1      30.715  14.957  -0.087  0.00  0.00    +0.193 C 
ATOM      7  O   UNL     1      31.192  16.287  -0.387  0.00  0.00    -0.219 OA
BRANCH   6   8
ATOM      8  C   UNL     1      31.414  14.587   1.240  0.00  0.00    +0.212 C 
ATOM      9  O   UNL     1      31.333  15.679   2.171  0.00  0.00    -0.218 OA
BRANCH   8  10
ATOM     10  C   UNL     1      30.818  13.297   1.922  0.00  0.00    +0.171 C 
ATOM     11  O   UNL     1      29.793  13.599   2.863  0.00  0.00    -0.343 OA
ATOM     12  C   UNL     1      29.268  12.683   3.778  0.00  0.00    +0.220 C 
ATOM     13  C   UNL     1      30.377  11.966   4.567  0.00  0.00    +0.076 C 
ATOM     14  C   UNL     1      31.360  11.370   3.545  0.00  0.00    +0.177 C 
ATOM     15  O   UNL     1      32.387  10.659   4.223  0.00  0.00    -0.221 OA
ATOM     16  C   UNL     1      31.951  12.500   2.646  0.00  0.00    +0.155 C 
BRANCH  16  17
ATOM     17  N   UNL     1      32.891  11.939   1.678  0.00  0.00    -0.202 NA
ATOM     18  C   UNL     1      34.248  11.959   1.675  0.00  0.00    +0.242 C 
ATOM     19  C   UNL     1      34.974  11.051   0.716  0.00  0.00    +0.096 C 
ATOM     20  O   UNL     1      34.847  12.706   2.446  0.00  0.00    -0.273 OA
ENDBRANCH  16  17
BRANCH  12  21
ATOM     21  C   UNL     1      28.230  11.626   3.112  0.00  0.00    +0.391 C 
ATOM     22  O   UNL     1      28.040  10.684   4.056  0.00  0.00    -0.243 OA
ATOM     23  O   UNL     1      27.732  12.231   2.026  0.00  0.00    -0.243 OA
ENDBRANCH  12  21
ENDBRANCH   8  10
ENDBRANCH   6   8
ENDBRANCH   5   6
ENDBRANCH   2   5
BRANCH   1  24
ATOM     24  O   UNL     1      27.725  17.134  -2.028  0.00  0.00    -0.450 OA
BRANCH  24  25
ATOM     25  C   UNL     1      26.819  17.462  -3.055  0.00  0.00    +0.240 C 
BRANCH  25  26
ATOM     26  C   UNL     1      26.697  16.480  -4.236  0.00  0.00    +0.100 C 
BRANCH  26  28
ATOM     27  N   UNL     1      25.064  14.835  -5.117  0.00  0.00    -0.134 NA
ATOM     28  C   UNL     1      25.416  15.753  -4.165  0.00  0.00    +0.086 A 
ATOM     29  C   UNL     1      24.411  15.837  -3.228  0.00  0.00    +0.133 A 
ATOM     30  N   UNL     1      23.487  14.943  -3.675  0.00  0.00    -0.251 N 
ATOM     31  N   UNL     1      23.870  14.347  -4.807  0.00  0.00    -0.065 NA
BRANCH  30  32
ATOM     32  C   UNL     1      22.205  14.634  -3.076  0.00  0.00    +0.150 C 
BRANCH  32  33
ATOM     33  C   UNL     1      22.320  14.195  -1.622  0.00  0.00    +0.074 C 
BRANCH  33  34
ATOM     34  C   UNL     1      23.343  13.095  -1.308  0.00  0.00    +0.134 C 
BRANCH  34  35
ATOM     35  N   UNL     1      22.867  11.872  -0.457  0.00  0.00    +0.241 N 
ATOM     36  C   UNL     1      23.941  11.559   0.599  0.00  0.00    +0.192 C 
BRANCH  35  37
ATOM     37  C   UNL     1      22.780  10.663  -1.448  0.00  0.00    +0.129 C 
ATOM     38  C   UNL     1      21.354  10.246  -1.792  0.00  0.00    +0.060 C 
ENDBRANCH  35  37
BRANCH  35  39
ATOM     39  C   UNL     1      21.513  12.063   0.249  0.00  0.00    +0.129 C 
ATOM     40  C   UNL     1      21.519  11.690   1.723  0.00  0.00    +0.060 C 
ENDBRANCH  35  39
ENDBRANCH  34  35
ENDBRANCH  33  34
ENDBRANCH  32  33
ENDBRANCH  30  32
ENDBRANCH  26  28
ENDBRANCH  25  26
ENDBRANCH  24  25
ENDBRANCH   1  24
TORSDOF 16
