REMARK VINA RESULT:    -7.020      5.135     11.100
REMARK INTER + INTRA:         -15.267
REMARK INTER:                 -13.888
REMARK INTRA:                  -1.379
REMARK UNBOUND:                -2.913
REMARK  Name = lig_assembled_92.pdb
REMARK  13 active torsions:
REMARK  status: ('A' for Active; 'I' for Inactive)
REMARK    1  A    between atoms: _2  and  _10
REMARK    2  A    between atoms: _3  and  _49
REMARK    3  A    between atoms: _7  and  _8
REMARK    4  A    between atoms: _7  and  _20
REMARK    5  A    between atoms: _13  and  _49
REMARK    6  A    between atoms: _20  and  _22
REMARK    7  A    between atoms: _21  and  _26
REMARK    8  A    between atoms: _22  and  _25
REMARK    9  A    between atoms: _30  and  _40
REMARK   10  A    between atoms: _32  and  _33
REMARK   11  A    between atoms: _34  and  _36
REMARK   12  A    between atoms: _36  and  _38
REMARK   13  A    between atoms: _38  and  _40
REMARK                            x       y       z     vdW  Elec       q    Type
REMARK                         _______ _______ _______ _____ _____    ______ ____
ROOT
ATOM      1  O   UNL     1      28.992  17.141  -1.133  0.00  0.00    -0.450 OA
ENDROOT
BRANCH   1   2
ATOM      2  C   UNL     1      27.804  17.618  -0.951  0.00  0.00    +0.400 C 
ATOM      3  N   UNL     1      26.821  17.091  -1.755  0.00  0.00    -0.278 N 
ATOM      4  H   UNL     1      25.919  17.462  -1.318  0.00  0.00    +0.152 HD
ATOM      5  O   UNL     1      27.481  18.463  -0.120  0.00  0.00    -0.226 OA
BRANCH   3   6
ATOM      6  C   UNL     1      26.466  16.282  -2.918  0.00  0.00    +0.152 C 
BRANCH   6   7
ATOM      7  C   UNL     1      25.393  15.197  -2.689  0.00  0.00    +0.193 C 
ATOM      8  O   UNL     1      24.600  15.137  -3.895  0.00  0.00    -0.219 OA
BRANCH   7   9
ATOM      9  C   UNL     1      25.878  13.746  -2.474  0.00  0.00    +0.212 C 
ATOM     10  O   UNL     1      27.292  13.649  -2.709  0.00  0.00    -0.218 OA
BRANCH   9  11
ATOM     11  C   UNL     1      25.568  13.192  -1.031  0.00  0.00    +0.171 C 
ATOM     12  O   UNL     1      26.572  12.299  -0.560  0.00  0.00    -0.343 OA
ATOM     13  C   UNL     1      26.436  11.483   0.565  0.00  0.00    +0.220 C 
ATOM     14  C   UNL     1      25.126  10.676   0.531  0.00  0.00    +0.076 C 
ATOM     15  C   UNL     1      23.975  11.672   0.310  0.00  0.00    +0.177 C 
ATOM     16  O   UNL     1      22.734  10.981   0.309  0.00  0.00    -0.221 OA
ATOM     17  C   UNL     1      24.189  12.454  -1.023  0.00  0.00    +0.155 C 
BRANCH  17  18
ATOM     18  N   UNL     1      23.095  13.396  -1.240  0.00  0.00    -0.202 NA
ATOM     19  C   UNL     1      22.107  13.379  -2.171  0.00  0.00    +0.242 C 
ATOM     20  C   UNL     1      20.936  14.310  -1.989  0.00  0.00    +0.096 C 
ATOM     21  O   UNL     1      22.189  12.614  -3.130  0.00  0.00    -0.273 OA
ENDBRANCH  17  18
BRANCH  13  22
ATOM     22  C   UNL     1      26.607  12.283   1.969  0.00  0.00    +0.391 C 
ATOM     23  O   UNL     1      27.416  13.321   1.681  0.00  0.00    -0.243 OA
ATOM     24  O   UNL     1      25.664  11.800   2.787  0.00  0.00    -0.243 OA
ENDBRANCH  13  22
ENDBRANCH   9  11
ENDBRANCH   7   9
ENDBRANCH   6   7
ENDBRANCH   3   6
ENDBRANCH   1   2
BRANCH   1  25
ATOM     25  C   UNL     1      30.023  16.531  -0.393  0.00  0.00    +0.240 C 
BRANCH  25  26
ATOM     26  C   UNL     1      29.845  15.049  -0.014  0.00  0.00    +0.100 C 
BRANCH  26  28
ATOM     27  N   UNL     1      30.757  14.319   2.173  0.00  0.00    -0.134 NA
ATOM     28  C   UNL     1      30.951  14.604   0.852  0.00  0.00    +0.086 A 
ATOM     29  C   UNL     1      32.274  14.392   0.539  0.00  0.00    +0.139 A 
ATOM     30  N   UNL     1      32.850  13.946   1.706  0.00  0.00    -0.220 N 
ATOM     31  N   UNL     1      31.915  13.927   2.687  0.00  0.00    -0.061 NA
BRANCH  30  32
ATOM     32  C   UNL     1      34.186  13.520   1.922  0.00  0.00    +0.067 A 
ATOM     33  C   UNL     1      34.856  13.862   3.106  0.00  0.00    +0.030 A 
ATOM     34  C   UNL     1      36.187  13.492   3.290  0.00  0.00    +0.031 A 
ATOM     35  C   UNL     1      36.851  12.768   2.297  0.00  0.00    +0.109 A 
ATOM     36  C   UNL     1      36.194  12.411   1.117  0.00  0.00    +0.031 A 
ATOM     37  C   UNL     1      34.856  12.779   0.934  0.00  0.00    +0.030 A 
BRANCH  35  38
ATOM     38  S   UNL     1      38.583  12.448   2.499  0.00  0.00    +0.074 S 
ATOM     39  O   UNL     1      38.766  11.844   3.804  0.00  0.00    -0.150 OA
ATOM     40  O   UNL     1      39.071  11.777   1.316  0.00  0.00    -0.150 OA
BRANCH  38  41
ATOM     41  N   UNL     1      39.257  13.990   2.633  0.00  0.00    -0.194 N 
ATOM     42  H   UNL     1      38.760  14.452   3.390  0.00  0.00    +0.176 HD
ATOM     43  C   UNL     1      40.653  13.945   2.821  0.00  0.00    +0.177 A 
ATOM     44  S   UNL     1      41.381  14.070   4.362  0.00  0.00    -0.059 S 
ATOM     45  C   UNL     1      42.924  14.056   3.609  0.00  0.00    +0.068 A 
ATOM     46  C   UNL     1      42.765  14.036   2.239  0.00  0.00    +0.120 A 
ATOM     47  N   UNL     1      41.461  13.940   1.790  0.00  0.00    -0.232 NA
ENDBRANCH  38  41
ENDBRANCH  35  38
ENDBRANCH  30  32
ENDBRANCH  26  28
ENDBRANCH  25  26
ENDBRANCH   1  25
TORSDOF 13
