REMARK VINA RESULT:    -6.395      3.039      9.276
REMARK INTER + INTRA:         -13.477
REMARK INTER:                 -11.572
REMARK INTRA:                  -1.905
REMARK UNBOUND:                -2.596
REMARK  Name = lig_assembled_4.pdb
REMARK  14 active torsions:
REMARK  status: ('A' for Active; 'I' for Inactive)
REMARK    1  A    between atoms: _2  and  _8
REMARK    2  A    between atoms: _5  and  _6
REMARK    3  A    between atoms: _5  and  _16
REMARK    4  A    between atoms: _9  and  _10
REMARK    5  A    between atoms: _10  and  _11
REMARK    6  A    between atoms: _10  and  _12
REMARK    7  A    between atoms: _16  and  _18
REMARK    8  A    between atoms: _17  and  _22
REMARK    9  A    between atoms: _18  and  _21
REMARK   10  A    between atoms: _26  and  _36
REMARK   11  A    between atoms: _28  and  _29
REMARK   12  A    between atoms: _30  and  _32
REMARK   13  A    between atoms: _32  and  _34
REMARK   14  A    between atoms: _34  and  _36
REMARK                            x       y       z     vdW  Elec       q    Type
REMARK                         _______ _______ _______ _____ _____    ______ ____
ROOT
ATOM      1  C   UNL     1      27.676  17.281  -1.414  0.00  0.00    +0.400 C 
ATOM      2  N   UNL     1      26.563  16.928  -2.140  0.00  0.00    -0.278 N 
ATOM      3  H   UNL     1      25.907  17.761  -2.008  0.00  0.00    +0.152 HD
ATOM      4  O   UNL     1      27.745  18.428  -0.980  0.00  0.00    -0.226 OA
ENDROOT
BRANCH   2   5
ATOM      5  C   UNL     1      25.897  15.956  -3.003  0.00  0.00    +0.152 C 
BRANCH   5   6
ATOM      6  C   UNL     1      24.859  15.041  -2.322  0.00  0.00    +0.193 C 
ATOM      7  O   UNL     1      23.657  15.110  -3.122  0.00  0.00    -0.219 OA
BRANCH   6   8
ATOM      8  C   UNL     1      25.180  13.533  -2.238  0.00  0.00    +0.212 C 
ATOM      9  O   UNL     1      26.500  13.272  -2.741  0.00  0.00    -0.218 OA
BRANCH   8  10
ATOM     10  C   UNL     1      25.075  12.953  -0.776  0.00  0.00    +0.171 C 
ATOM     11  O   UNL     1      26.198  12.152  -0.422  0.00  0.00    -0.343 OA
ATOM     12  C   UNL     1      26.254  11.327   0.704  0.00  0.00    +0.220 C 
ATOM     13  C   UNL     1      25.025  10.407   0.799  0.00  0.00    +0.076 C 
ATOM     14  C   UNL     1      23.773  11.296   0.709  0.00  0.00    +0.177 C 
ATOM     15  O   UNL     1      22.605  10.497   0.832  0.00  0.00    -0.221 OA
ATOM     16  C   UNL     1      23.775  12.094  -0.631  0.00  0.00    +0.155 C 
BRANCH  16  17
ATOM     17  N   UNL     1      22.584  12.935  -0.723  0.00  0.00    -0.202 NA
ATOM     18  C   UNL     1      21.521  12.845  -1.561  0.00  0.00    +0.242 C 
ATOM     19  C   UNL     1      20.292  13.659  -1.249  0.00  0.00    +0.096 C 
ATOM     20  O   UNL     1      21.583  12.108  -2.544  0.00  0.00    -0.273 OA
ENDBRANCH  16  17
BRANCH  12  21
ATOM     21  C   UNL     1      26.500  12.139   2.089  0.00  0.00    +0.391 C 
ATOM     22  O   UNL     1      26.111  11.292   3.062  0.00  0.00    -0.243 OA
ATOM     23  O   UNL     1      27.260  13.194   1.770  0.00  0.00    -0.243 OA
ENDBRANCH  12  21
ENDBRANCH   8  10
ENDBRANCH   6   8
ENDBRANCH   5   6
ENDBRANCH   2   5
BRANCH   1  24
ATOM     24  O   UNL     1      28.544  16.341  -1.228  0.00  0.00    -0.450 OA
BRANCH  24  25
ATOM     25  C   UNL     1      28.631  15.071  -0.625  0.00  0.00    +0.240 C 
BRANCH  25  26
ATOM     26  C   UNL     1      29.999  14.362  -0.655  0.00  0.00    +0.100 C 
BRANCH  26  28
ATOM     27  N   UNL     1      31.048  15.515   1.258  0.00  0.00    -0.134 NA
ATOM     28  C   UNL     1      30.615  14.360   0.685  0.00  0.00    +0.086 A 
ATOM     29  C   UNL     1      30.891  13.307   1.527  0.00  0.00    +0.139 A 
ATOM     30  N   UNL     1      31.621  13.861   2.560  0.00  0.00    -0.220 N 
ATOM     31  N   UNL     1      31.634  15.203   2.408  0.00  0.00    -0.061 NA
BRANCH  30  32
ATOM     32  C   UNL     1      32.291  13.173   3.616  0.00  0.00    +0.070 A 
ATOM     33  C   UNL     1      33.705  13.048   3.694  0.00  0.00    -0.019 A 
ATOM     34  C   UNL     1      34.236  12.314   4.778  0.00  0.00    +0.006 A 
ATOM     35  C   UNL     1      33.419  11.714   5.739  0.00  0.00    +0.000 A 
ATOM     36  C   UNL     1      32.043  11.849   5.657  0.00  0.00    +0.002 A 
ATOM     37  C   UNL     1      31.481  12.570   4.605  0.00  0.00    +0.028 A 
BRANCH  33  38
ATOM     38  C   UNL     1      34.680  13.647   2.678  0.00  0.00    +0.015 C 
ATOM     39  C   UNL     1      34.538  13.111   1.245  0.00  0.00    +0.012 C 
ATOM     40  C   UNL     1      36.120  13.459   3.161  0.00  0.00    +0.012 C 
ENDBRANCH  33  38
ENDBRANCH  30  32
ENDBRANCH  26  28
ENDBRANCH  25  26
ENDBRANCH  24  25
ENDBRANCH   1  24
TORSDOF 12
