REMARK VINA RESULT:    -7.049      3.018      7.339
REMARK INTER + INTRA:         -14.198
REMARK INTER:                 -11.221
REMARK INTRA:                  -2.977
REMARK UNBOUND:                -1.585
REMARK  Name = lig_assembled_16.pdb
REMARK  14 active torsions:
REMARK  status: ('A' for Active; 'I' for Inactive)
REMARK    1  A    between atoms: _2  and  _8
REMARK    2  A    between atoms: _5  and  _6
REMARK    3  A    between atoms: _5  and  _17
REMARK    4  A    between atoms: _8  and  _9
REMARK    5  A    between atoms: _12  and  _13
REMARK    6  A    between atoms: _13  and  _15
REMARK    7  A    between atoms: _17  and  _19
REMARK    8  A    between atoms: _18  and  _23
REMARK    9  A    between atoms: _19  and  _22
REMARK   10  A    between atoms: _27  and  _37
REMARK   11  A    between atoms: _29  and  _30
REMARK   12  A    between atoms: _31  and  _33
REMARK   13  A    between atoms: _33  and  _35
REMARK   14  A    between atoms: _35  and  _37
REMARK                            x       y       z     vdW  Elec       q    Type
REMARK                         _______ _______ _______ _____ _____    ______ ____
ROOT
ATOM      1  C   UNL     1      28.830  16.808  -0.516  0.00  0.00    +0.400 C 
ATOM      2  N   UNL     1      27.738  16.598  -1.324  0.00  0.00    -0.278 N 
ATOM      3  H   UNL     1      27.221  17.532  -1.289  0.00  0.00    +0.152 HD
ATOM      4  O   UNL     1      29.053  17.952  -0.129  0.00  0.00    -0.226 OA
ENDROOT
BRANCH   2   5
ATOM      5  C   UNL     1      26.993  15.697  -2.200  0.00  0.00    +0.152 C 
BRANCH   5   6
ATOM      6  C   UNL     1      25.981  16.361  -3.156  0.00  0.00    +0.193 C 
ATOM      7  O   UNL     1      26.700  17.388  -3.874  0.00  0.00    -0.219 OA
BRANCH   6   8
ATOM      8  C   UNL     1      25.358  15.481  -4.262  0.00  0.00    +0.212 C 
ATOM      9  O   UNL     1      26.088  15.628  -5.491  0.00  0.00    -0.218 OA
BRANCH   8  10
ATOM     10  C   UNL     1      25.305  13.951  -3.886  0.00  0.00    +0.171 C 
ATOM     11  O   UNL     1      26.288  13.184  -4.575  0.00  0.00    -0.343 OA
ATOM     12  C   UNL     1      26.309  11.788  -4.619  0.00  0.00    +0.220 C 
ATOM     13  C   UNL     1      24.945  11.209  -5.033  0.00  0.00    +0.076 C 
ATOM     14  C   UNL     1      23.884  11.811  -4.098  0.00  0.00    +0.177 C 
ATOM     15  O   UNL     1      22.606  11.277  -4.413  0.00  0.00    -0.221 OA
ATOM     16  C   UNL     1      23.890  13.367  -4.208  0.00  0.00    +0.155 C 
BRANCH  16  17
ATOM     17  N   UNL     1      22.878  13.943  -3.326  0.00  0.00    -0.202 NA
ATOM     18  C   UNL     1      21.800  14.710  -3.627  0.00  0.00    +0.242 C 
ATOM     19  C   UNL     1      20.755  14.923  -2.563  0.00  0.00    +0.096 C 
ATOM     20  O   UNL     1      21.702  15.207  -4.747  0.00  0.00    -0.273 OA
ENDBRANCH  16  17
BRANCH  12  21
ATOM     21  C   UNL     1      26.856  11.106  -3.249  0.00  0.00    +0.391 C 
ATOM     22  O   UNL     1      27.036   9.806  -3.556  0.00  0.00    -0.243 OA
ATOM     23  O   UNL     1      27.203  12.118  -2.445  0.00  0.00    -0.243 OA
ENDBRANCH  12  21
ENDBRANCH   8  10
ENDBRANCH   6   8
ENDBRANCH   5   6
ENDBRANCH   2   5
BRANCH   1  24
ATOM     24  O   UNL     1      29.512  15.753  -0.211  0.00  0.00    -0.450 OA
BRANCH  24  25
ATOM     25  C   UNL     1      30.192  15.203   0.893  0.00  0.00    +0.240 C 
BRANCH  25  26
ATOM     26  C   UNL     1      30.292  13.668   0.974  0.00  0.00    +0.100 C 
BRANCH  26  28
ATOM     27  N   UNL     1      28.284  13.923   2.403  0.00  0.00    -0.134 NA
ATOM     28  C   UNL     1      29.116  13.117   1.671  0.00  0.00    +0.086 A 
ATOM     29  C   UNL     1      28.638  11.826   1.709  0.00  0.00    +0.134 A 
ATOM     30  N   UNL     1      27.467  11.933   2.397  0.00  0.00    -0.247 N 
ATOM     31  N   UNL     1      27.283  13.183   2.859  0.00  0.00    -0.065 NA
BRANCH  30  32
ATOM     32  C   UNL     1      26.473  10.906   2.630  0.00  0.00    +0.180 C 
BRANCH  32  33
ATOM     33  C   UNL     1      25.210  11.174   1.844  0.00  0.00    -0.026 A 
ATOM     34  C   UNL     1      23.950  11.030   2.442  0.00  0.00    +0.006 A 
ATOM     35  C   UNL     1      22.788  11.317   1.722  0.00  0.00    +0.015 A 
ATOM     36  C   UNL     1      22.866  11.738   0.392  0.00  0.00    +0.059 A 
ATOM     37  C   UNL     1      24.120  11.865  -0.224  0.00  0.00    +0.015 A 
ATOM     38  C   UNL     1      25.281  11.572   0.498  0.00  0.00    +0.006 A 
BRANCH  36  39
ATOM     39  C   UNL     1      21.602  12.100  -0.304  0.00  0.00    +0.337 C 
ATOM     40  O   UNL     1      20.684  12.672   0.259  0.00  0.00    -0.245 OA
BRANCH  39  41
ATOM     41  O   UNL     1      21.551  11.712  -1.593  0.00  0.00    -0.477 OA
ATOM     42  H   UNL     1      22.412  11.489  -1.994  0.00  0.00    +0.295 HD
ENDBRANCH  39  41
ENDBRANCH  36  39
ENDBRANCH  32  33
ENDBRANCH  30  32
ENDBRANCH  26  28
ENDBRANCH  25  26
ENDBRANCH  24  25
ENDBRANCH   1  24
TORSDOF 14
