REMARK VINA RESULT:    -6.983      3.166      5.545
REMARK INTER + INTRA:         -12.537
REMARK INTER:                 -11.056
REMARK INTRA:                  -1.482
REMARK UNBOUND:                -1.064
REMARK  Name = lig_assembled_27.pdb
REMARK  11 active torsions:
REMARK  status: ('A' for Active; 'I' for Inactive)
REMARK    1  A    between atoms: _2  and  _8
REMARK    2  A    between atoms: _5  and  _6
REMARK    3  A    between atoms: _5  and  _13
REMARK    4  A    between atoms: _13  and  _15
REMARK    5  A    between atoms: _14  and  _19
REMARK    6  A    between atoms: _15  and  _18
REMARK    7  A    between atoms: _23  and  _33
REMARK    8  A    between atoms: _25  and  _26
REMARK    9  A    between atoms: _27  and  _29
REMARK   10  A    between atoms: _29  and  _31
REMARK   11  A    between atoms: _31  and  _33
REMARK                            x       y       z     vdW  Elec       q    Type
REMARK                         _______ _______ _______ _____ _____    ______ ____
ROOT
ATOM      1  C   UNL     1      24.141   9.702   1.300  0.00  0.00    +0.400 C 
ATOM      2  N   UNL     1      25.201  10.111   2.075  0.00  0.00    -0.278 N 
ATOM      3  H   UNL     1      25.614   9.193   2.433  0.00  0.00    +0.152 HD
ATOM      4  O   UNL     1      24.030   8.503   1.057  0.00  0.00    -0.226 OA
ENDROOT
BRANCH   1   5
ATOM      5  O   UNL     1      23.332  10.636   0.920  0.00  0.00    -0.450 OA
BRANCH   5   6
ATOM      6  C   UNL     1      22.188  10.795   0.114  0.00  0.00    +0.240 C 
BRANCH   6   7
ATOM      7  C   UNL     1      21.447  12.143   0.191  0.00  0.00    +0.100 C 
BRANCH   7   9
ATOM      8  N   UNL     1      21.127  14.031  -1.378  0.00  0.00    -0.134 NA
ATOM      9  C   UNL     1      21.930  13.055  -0.862  0.00  0.00    +0.086 A 
ATOM     10  C   UNL     1      23.159  13.114  -1.479  0.00  0.00    +0.139 A 
ATOM     11  N   UNL     1      23.063  14.158  -2.370  0.00  0.00    -0.220 N 
ATOM     12  N   UNL     1      21.821  14.696  -2.292  0.00  0.00    -0.061 NA
BRANCH  11  13
ATOM     13  C   UNL     1      24.047  14.661  -3.259  0.00  0.00    +0.068 A 
ATOM     14  C   UNL     1      24.163  14.116  -4.547  0.00  0.00    +0.028 A 
ATOM     15  C   UNL     1      25.131  14.600  -5.431  0.00  0.00    +0.003 A 
ATOM     16  C   UNL     1      25.987  15.628  -5.036  0.00  0.00    +0.020 A 
ATOM     17  C   UNL     1      25.869  16.171  -3.759  0.00  0.00    +0.043 A 
ATOM     18 CL   UNL     1      26.924  17.441  -3.272  0.00  0.00    -0.083 Cl
ATOM     19  C   UNL     1      24.906  15.697  -2.866  0.00  0.00    +0.047 A 
ENDBRANCH  11  13
ENDBRANCH   7   9
ENDBRANCH   6   7
ENDBRANCH   5   6
ENDBRANCH   1   5
BRANCH   2  20
ATOM     20  C   UNL     1      26.004  11.210   2.604  0.00  0.00    +0.152 C 
BRANCH  20  21
ATOM     21  C   UNL     1      27.004  11.855   1.621  0.00  0.00    +0.193 C 
ATOM     22  O   UNL     1      26.305  12.021   0.368  0.00  0.00    -0.219 OA
BRANCH  21  23
ATOM     23  C   UNL     1      27.528  13.268   1.960  0.00  0.00    +0.212 C 
ATOM     24  O   UNL     1      27.444  13.509   3.374  0.00  0.00    -0.218 OA
BRANCH  23  25
ATOM     25  C   UNL     1      29.014  13.510   1.494  0.00  0.00    +0.171 C 
ATOM     26  O   UNL     1      29.904  13.716   2.587  0.00  0.00    -0.343 OA
ATOM     27  C   UNL     1      31.212  14.188   2.460  0.00  0.00    +0.220 C 
ATOM     28  C   UNL     1      31.277  15.468   1.609  0.00  0.00    +0.076 C 
ATOM     29  C   UNL     1      30.562  15.176   0.279  0.00  0.00    +0.177 C 
ATOM     30  O   UNL     1      30.628  16.317  -0.564  0.00  0.00    -0.221 OA
ATOM     31  C   UNL     1      29.084  14.751   0.545  0.00  0.00    +0.155 C 
BRANCH  31  32
ATOM     32  N   UNL     1      28.400  14.479  -0.716  0.00  0.00    -0.202 NA
ATOM     33  C   UNL     1      28.676  13.555  -1.671  0.00  0.00    +0.242 C 
ATOM     34  C   UNL     1      27.638  13.290  -2.731  0.00  0.00    +0.096 C 
ATOM     35  O   UNL     1      29.751  12.961  -1.649  0.00  0.00    -0.273 OA
ENDBRANCH  31  32
BRANCH  27  36
ATOM     36  C   UNL     1      32.257  13.064   1.928  0.00  0.00    +0.391 C 
ATOM     37  O   UNL     1      31.497  11.987   1.648  0.00  0.00    -0.243 OA
ATOM     38  O   UNL     1      33.404  13.710   1.685  0.00  0.00    -0.243 OA
ENDBRANCH  27  36
ENDBRANCH  23  25
ENDBRANCH  21  23
ENDBRANCH  20  21
ENDBRANCH   2  20
TORSDOF 11
