REMARK VINA RESULT:    -7.145      2.267      5.102
REMARK INTER + INTRA:         -13.660
REMARK INTER:                 -11.945
REMARK INTRA:                  -1.715
REMARK UNBOUND:                -1.503
REMARK  Name = lig_assembled_89.pdb
REMARK  14 active torsions:
REMARK  status: ('A' for Active; 'I' for Inactive)
REMARK    1  A    between atoms: _2  and  _11
REMARK    2  A    between atoms: _5  and  _19
REMARK    3  A    between atoms: _8  and  _9
REMARK    4  A    between atoms: _8  and  _24
REMARK    5  A    between atoms: _19  and  _20
REMARK    6  A    between atoms: _19  and  _21
REMARK    7  A    between atoms: _24  and  _26
REMARK    8  A    between atoms: _25  and  _30
REMARK    9  A    between atoms: _26  and  _29
REMARK   10  A    between atoms: _34  and  _44
REMARK   11  A    between atoms: _36  and  _37
REMARK   12  A    between atoms: _38  and  _40
REMARK   13  A    between atoms: _40  and  _42
REMARK   14  A    between atoms: _42  and  _44
REMARK                            x       y       z     vdW  Elec       q    Type
REMARK                         _______ _______ _______ _____ _____    ______ ____
ROOT
ATOM      1  C   UNL     1      32.038  10.987  -4.016  0.00  0.00    +0.240 C 
ENDROOT
BRANCH   1   2
ATOM      2  C   UNL     1      30.895  11.132  -5.039  0.00  0.00    +0.100 C 
BRANCH   2   4
ATOM      3  N   UNL     1      29.691  11.955  -3.051  0.00  0.00    -0.134 NA
ATOM      4  C   UNL     1      29.699  11.693  -4.388  0.00  0.00    +0.087 A 
ATOM      5  C   UNL     1      28.484  12.053  -4.922  0.00  0.00    +0.141 A 
ATOM      6  N   UNL     1      27.760  12.564  -3.862  0.00  0.00    -0.200 N 
ATOM      7  N   UNL     1      28.517  12.489  -2.743  0.00  0.00    -0.059 NA
BRANCH   6   8
ATOM      8  C   UNL     1      26.469  13.163  -3.948  0.00  0.00    +0.186 A 
ATOM      9  C   UNL     1      25.342  12.944  -3.181  0.00  0.00    +0.158 A 
ATOM     10  C   UNL     1      25.021  11.995  -2.161  0.00  0.00    +0.280 A 
ATOM     11  O   UNL     1      25.637  10.947  -2.024  0.00  0.00    -0.265 OA
ATOM     12  N   UNL     1      23.922  12.337  -1.347  0.00  0.00    -0.302 N 
ATOM     13  C   UNL     1      22.948  13.300  -1.808  0.00  0.00    +0.069 A 
ATOM     14  C   UNL     1      21.704  13.479  -1.184  0.00  0.00    +0.028 A 
ATOM     15  C   UNL     1      20.762  14.385  -1.689  0.00  0.00    +0.002 A 
ATOM     16  C   UNL     1      21.046  15.142  -2.821  0.00  0.00    +0.002 A 
ATOM     17  C   UNL     1      22.275  14.999  -3.459  0.00  0.00    +0.028 A 
ATOM     18  C   UNL     1      23.208  14.079  -2.958  0.00  0.00    +0.072 A 
ATOM     19  N   UNL     1      24.454  13.905  -3.581  0.00  0.00    -0.291 N 
ATOM     20  C   UNL     1      25.024  14.581  -4.630  0.00  0.00    +0.207 A 
ATOM     21  N   UNL     1      26.249  14.167  -4.872  0.00  0.00    -0.216 NA
BRANCH  12  22
ATOM     22  C   UNL     1      23.694  11.537  -0.120  0.00  0.00    +0.085 C 
ATOM     23  C   UNL     1      24.911  11.485   0.822  0.00  0.00    +0.030 C 
ATOM     24  C   UNL     1      23.208  10.125  -0.446  0.00  0.00    +0.030 C 
ENDBRANCH  12  22
ENDBRANCH   6   8
ENDBRANCH   2   4
ENDBRANCH   1   2
BRANCH   1  25
ATOM     25  O   UNL     1      33.068  11.947  -4.052  0.00  0.00    -0.450 OA
BRANCH  25  26
ATOM     26  C   UNL     1      33.213  13.227  -4.153  0.00  0.00    +0.400 C 
ATOM     27  N   UNL     1      33.997  13.816  -3.190  0.00  0.00    -0.278 N 
ATOM     28  H   UNL     1      34.144  14.807  -3.563  0.00  0.00    +0.152 HD
ATOM     29  O   UNL     1      32.743  13.942  -5.035  0.00  0.00    -0.226 OA
BRANCH  27  30
ATOM     30  C   UNL     1      34.691  13.703  -1.910  0.00  0.00    +0.152 C 
BRANCH  30  31
ATOM     31  C   UNL     1      33.802  13.454  -0.674  0.00  0.00    +0.193 C 
ATOM     32  O   UNL     1      34.584  13.825   0.482  0.00  0.00    -0.219 OA
BRANCH  31  33
ATOM     33  C   UNL     1      32.507  14.286  -0.546  0.00  0.00    +0.212 C 
ATOM     34  O   UNL     1      31.608  13.985  -1.625  0.00  0.00    -0.218 OA
BRANCH  33  35
ATOM     35  C   UNL     1      31.751  14.059   0.818  0.00  0.00    +0.171 C 
ATOM     36  O   UNL     1      31.938  12.746   1.336  0.00  0.00    -0.343 OA
ATOM     37  C   UNL     1      31.198  12.200   2.387  0.00  0.00    +0.220 C 
ATOM     38  C   UNL     1      29.684  12.361   2.163  0.00  0.00    +0.076 C 
ATOM     39  C   UNL     1      29.413  13.849   1.885  0.00  0.00    +0.177 C 
ATOM     40  O   UNL     1      28.020  14.060   1.709  0.00  0.00    -0.221 OA
ATOM     41  C   UNL     1      30.220  14.317   0.633  0.00  0.00    +0.155 C 
BRANCH  41  42
ATOM     42  N   UNL     1      29.960  15.728   0.361  0.00  0.00    -0.202 NA
ATOM     43  C   UNL     1      29.076  16.298  -0.497  0.00  0.00    +0.242 C 
ATOM     44  C   UNL     1      28.804  17.774  -0.368  0.00  0.00    +0.096 C 
ATOM     45  O   UNL     1      28.523  15.605  -1.349  0.00  0.00    -0.273 OA
ENDBRANCH  41  42
BRANCH  37  46
ATOM     46  C   UNL     1      31.647  12.751   3.848  0.00  0.00    +0.391 C 
ATOM     47  O   UNL     1      32.775  13.452   3.624  0.00  0.00    -0.243 OA
ATOM     48  O   UNL     1      30.595  12.563   4.654  0.00  0.00    -0.243 OA
ENDBRANCH  37  46
ENDBRANCH  33  35
ENDBRANCH  31  33
ENDBRANCH  30  31
ENDBRANCH  27  30
ENDBRANCH  25  26
ENDBRANCH   1  25
TORSDOF 12
