REMARK VINA RESULT:    -7.540      2.213      3.724
REMARK INTER + INTRA:         -17.938
REMARK INTER:                 -16.949
REMARK INTRA:                  -0.989
REMARK UNBOUND:                -3.125
REMARK  Name = lig_assembled_47.pdb
REMARK  17 active torsions:
REMARK  status: ('A' for Active; 'I' for Inactive)
REMARK    1  A    between atoms: _2  and  _8
REMARK    2  A    between atoms: _5  and  _6
REMARK    3  A    between atoms: _5  and  _25
REMARK    4  A    between atoms: _8  and  _9
REMARK    5  A    between atoms: _9  and  _10
REMARK    6  A    between atoms: _9  and  _11
REMARK    7  A    between atoms: _10  and  _23
REMARK    8  A    between atoms: _11  and  _12
REMARK    9  A    between atoms: _11  and  _18
REMARK   10  A    between atoms: _25  and  _27
REMARK   11  A    between atoms: _26  and  _31
REMARK   12  A    between atoms: _27  and  _30
REMARK   13  A    between atoms: _35  and  _45
REMARK   14  A    between atoms: _37  and  _38
REMARK   15  A    between atoms: _39  and  _41
REMARK   16  A    between atoms: _41  and  _43
REMARK   17  A    between atoms: _43  and  _45
REMARK                            x       y       z     vdW  Elec       q    Type
REMARK                         _______ _______ _______ _____ _____    ______ ____
ROOT
ATOM      1  C   UNL     1      27.070  16.558  -4.033  0.00  0.00    +0.100 C 
ENDROOT
BRANCH   1   3
ATOM      2  N   UNL     1      25.647  15.185  -5.536  0.00  0.00    -0.134 NA
ATOM      3  C   UNL     1      25.838  15.798  -4.323  0.00  0.00    +0.086 A 
ATOM      4  C   UNL     1      24.725  15.589  -3.539  0.00  0.00    +0.133 A 
ATOM      5  N   UNL     1      23.877  14.888  -4.346  0.00  0.00    -0.251 N 
ATOM      6  N   UNL     1      24.442  14.630  -5.536  0.00  0.00    -0.065 NA
BRANCH   5   7
ATOM      7  C   UNL     1      22.477  14.567  -4.111  0.00  0.00    +0.160 C 
BRANCH   7   8
ATOM      8  C   UNL     1      21.850  15.342  -2.948  0.00  0.00    +0.131 C 
BRANCH   8   9
ATOM      9  C   UNL     1      21.219  16.601  -3.525  0.00  0.00    +0.311 C 
ATOM     10  O   UNL     1      20.289  16.575  -4.316  0.00  0.00    -0.251 OA
BRANCH   9  11
ATOM     11  O   UNL     1      21.661  17.780  -3.040  0.00  0.00    -0.480 OA
ATOM     12  H   UNL     1      21.535  18.583  -3.574  0.00  0.00    +0.295 HD
ENDBRANCH   9  11
ENDBRANCH   8   9
BRANCH   8  13
ATOM     13  C   UNL     1      20.836  14.521  -2.090  0.00  0.00    +0.064 C 
BRANCH  13  14
ATOM     14  C   UNL     1      19.734  13.803  -2.870  0.00  0.00    -0.039 A 
ATOM     15  C   UNL     1      18.400  14.247  -2.764  0.00  0.00    +0.004 A 
ATOM     16  C   UNL     1      17.369  13.612  -3.464  0.00  0.00    +0.000 A 
ATOM     17  C   UNL     1      17.645  12.512  -4.270  0.00  0.00    +0.000 A 
ATOM     18  C   UNL     1      18.952  12.047  -4.372  0.00  0.00    +0.000 A 
ATOM     19  C   UNL     1      19.988  12.692  -3.687  0.00  0.00    +0.004 A 
ENDBRANCH  13  14
BRANCH  13  20
ATOM     20  C   UNL     1      21.588  13.594  -1.126  0.00  0.00    -0.039 A 
ATOM     21  C   UNL     1      22.986  13.474  -1.200  0.00  0.00    +0.004 A 
ATOM     22  C   UNL     1      23.657  12.508  -0.444  0.00  0.00    +0.000 A 
ATOM     23  C   UNL     1      22.949  11.669   0.413  0.00  0.00    +0.000 A 
ATOM     24  C   UNL     1      21.570  11.802   0.527  0.00  0.00    +0.000 A 
ATOM     25  C   UNL     1      20.897  12.755  -0.234  0.00  0.00    +0.004 A 
ENDBRANCH  13  20
ENDBRANCH   8  13
ENDBRANCH   7   8
ENDBRANCH   5   7
ENDBRANCH   1   3
BRANCH   1  26
ATOM     26  C   UNL     1      26.985  17.243  -2.655  0.00  0.00    +0.240 C 
BRANCH  26  27
ATOM     27  O   UNL     1      28.057  17.044  -1.763  0.00  0.00    -0.450 OA
BRANCH  27  28
ATOM     28  C   UNL     1      28.412  17.379  -0.566  0.00  0.00    +0.400 C 
ATOM     29  N   UNL     1      29.505  16.715  -0.061  0.00  0.00    -0.278 N 
ATOM     30  H   UNL     1      29.741  17.265   0.824  0.00  0.00    +0.152 HD
ATOM     31  O   UNL     1      27.885  18.242   0.131  0.00  0.00    -0.226 OA
BRANCH  29  32
ATOM     32  C   UNL     1      30.456  15.613  -0.180  0.00  0.00    +0.152 C 
BRANCH  32  33
ATOM     33  C   UNL     1      30.052  14.290   0.502  0.00  0.00    +0.193 C 
ATOM     34  O   UNL     1      28.616  14.325   0.660  0.00  0.00    -0.219 OA
BRANCH  33  35
ATOM     35  C   UNL     1      30.323  12.977  -0.265  0.00  0.00    +0.212 C 
ATOM     36  O   UNL     1      29.209  12.651  -1.112  0.00  0.00    -0.218 OA
BRANCH  35  37
ATOM     37  C   UNL     1      31.628  13.029  -1.148  0.00  0.00    +0.171 C 
ATOM     38  O   UNL     1      31.370  12.766  -2.524  0.00  0.00    -0.343 OA
ATOM     39  C   UNL     1      32.359  12.511  -3.476  0.00  0.00    +0.220 C 
ATOM     40  C   UNL     1      33.334  11.417  -3.007  0.00  0.00    +0.076 C 
ATOM     41  C   UNL     1      33.860  11.829  -1.623  0.00  0.00    +0.177 C 
ATOM     42  O   UNL     1      34.799  10.870  -1.159  0.00  0.00    -0.221 OA
ATOM     43  C   UNL     1      32.674  11.991  -0.623  0.00  0.00    +0.155 C 
BRANCH  43  44
ATOM     44  N   UNL     1      33.170  12.376   0.696  0.00  0.00    -0.202 NA
ATOM     45  C   UNL     1      33.858  13.483   1.075  0.00  0.00    +0.242 C 
ATOM     46  C   UNL     1      33.990  13.774   2.547  0.00  0.00    +0.096 C 
ATOM     47  O   UNL     1      34.350  14.216   0.219  0.00  0.00    -0.273 OA
ENDBRANCH  43  44
BRANCH  39  48
ATOM     48  C   UNL     1      33.147  13.844  -3.964  0.00  0.00    +0.391 C 
ATOM     49  O   UNL     1      32.968  13.885  -5.299  0.00  0.00    -0.243 OA
ATOM     50  O   UNL     1      33.411  14.545  -2.855  0.00  0.00    -0.243 OA
ENDBRANCH  39  48
ENDBRANCH  35  37
ENDBRANCH  33  35
ENDBRANCH  32  33
ENDBRANCH  29  32
ENDBRANCH  27  28
ENDBRANCH  26  27
ENDBRANCH   1  26
TORSDOF 17
