REMARK VINA RESULT:    -7.967      1.421      2.785
REMARK INTER + INTRA:         -14.688
REMARK INTER:                 -12.728
REMARK INTRA:                  -1.960
REMARK UNBOUND:                -1.598
REMARK  Name = lig_assembled_80.pdb
REMARK  11 active torsions:
REMARK  status: ('A' for Active; 'I' for Inactive)
REMARK    1  A    between atoms: _2  and  _9
REMARK    2  A    between atoms: _6  and  _7
REMARK    3  A    between atoms: _6  and  _19
REMARK    4  A    between atoms: _19  and  _21
REMARK    5  A    between atoms: _20  and  _25
REMARK    6  A    between atoms: _21  and  _24
REMARK    7  A    between atoms: _29  and  _39
REMARK    8  A    between atoms: _31  and  _32
REMARK    9  A    between atoms: _33  and  _35
REMARK   10  A    between atoms: _35  and  _37
REMARK   11  A    between atoms: _37  and  _39
REMARK                            x       y       z     vdW  Elec       q    Type
REMARK                         _______ _______ _______ _____ _____    ______ ____
ROOT
ATOM      1  C   UNL     1      29.147  17.197  -0.383  0.00  0.00    +0.400 C 
ATOM      2  N   UNL     1      29.125  15.930   0.150  0.00  0.00    -0.278 N 
ATOM      3  H   UNL     1      29.804  15.996   0.973  0.00  0.00    +0.152 HD
ATOM      4  O   UNL     1      29.725  18.080   0.246  0.00  0.00    -0.226 OA
ENDROOT
BRANCH   1   5
ATOM      5  O   UNL     1      28.573  17.331  -1.533  0.00  0.00    -0.450 OA
BRANCH   5   6
ATOM      6  C   UNL     1      27.338  17.747  -2.069  0.00  0.00    +0.240 C 
BRANCH   6   7
ATOM      7  C   UNL     1      27.040  17.384  -3.536  0.00  0.00    +0.100 C 
BRANCH   7   9
ATOM      8  N   UNL     1      25.761  15.715  -4.820  0.00  0.00    -0.134 NA
ATOM      9  C   UNL     1      26.123  16.228  -3.605  0.00  0.00    +0.086 A 
ATOM     10  C   UNL     1      25.520  15.504  -2.601  0.00  0.00    +0.134 A 
ATOM     11  N   UNL     1      24.751  14.594  -3.275  0.00  0.00    -0.240 N 
ATOM     12  N   UNL     1      24.931  14.702  -4.609  0.00  0.00    -0.065 NA
BRANCH  11  13
ATOM     13  C   UNL     1      23.954  13.474  -2.759  0.00  0.00    +0.195 C 
ATOM     14  C   UNL     1      24.828  12.653  -1.821  0.00  0.00    +0.041 C 
ATOM     15  C   UNL     1      24.172  11.332  -1.482  0.00  0.00    +0.039 C 
ATOM     16  C   UNL     1      23.227  11.513  -0.334  0.00  0.00    -0.026 A 
ATOM     17  C   UNL     1      22.085  12.310  -0.420  0.00  0.00    +0.037 A 
ATOM     18  C   UNL     1      21.183  12.334   0.658  0.00  0.00    +0.023 A 
ATOM     19  C   UNL     1      21.469  11.672   1.850  0.00  0.00    +0.002 A 
ATOM     20  C   UNL     1      22.642  10.939   1.964  0.00  0.00    +0.000 A 
ATOM     21  N   UNL     1      21.771  13.183  -1.475  0.00  0.00    -0.284 N 
ATOM     22  H   UNL     1      20.882  13.664  -1.379  0.00  0.00    +0.155 HD
ATOM     23  C   UNL     1      23.501  10.838   0.871  0.00  0.00    +0.005 A 
ATOM     24  C   UNL     1      22.596  13.945  -2.254  0.00  0.00    +0.242 C 
ATOM     25  O   UNL     1      22.109  15.021  -2.620  0.00  0.00    -0.273 OA
ENDBRANCH  11  13
ENDBRANCH   7   9
ENDBRANCH   6   7
ENDBRANCH   5   6
ENDBRANCH   1   5
BRANCH   2  26
ATOM     26  C   UNL     1      28.592  14.571   0.106  0.00  0.00    +0.152 C 
BRANCH  26  27
ATOM     27  C   UNL     1      29.341  13.576  -0.804  0.00  0.00    +0.193 C 
ATOM     28  O   UNL     1      30.558  14.233  -1.224  0.00  0.00    -0.219 OA
BRANCH  27  29
ATOM     29  C   UNL     1      29.818  12.249  -0.173  0.00  0.00    +0.212 C 
ATOM     30  O   UNL     1      30.809  11.625  -1.005  0.00  0.00    -0.218 OA
BRANCH  29  31
ATOM     31  C   UNL     1      30.414  12.425   1.275  0.00  0.00    +0.171 C 
ATOM     32  O   UNL     1      31.835  12.514   1.276  0.00  0.00    -0.343 OA
ATOM     33  C   UNL     1      32.630  12.430   2.421  0.00  0.00    +0.220 C 
ATOM     34  C   UNL     1      32.277  11.195   3.270  0.00  0.00    +0.076 C 
ATOM     35  C   UNL     1      30.763  11.233   3.534  0.00  0.00    +0.177 C 
ATOM     36  O   UNL     1      30.389  10.132   4.350  0.00  0.00    -0.221 OA
ATOM     37  C   UNL     1      29.982  11.227   2.183  0.00  0.00    +0.155 C 
BRANCH  37  38
ATOM     38  N   UNL     1      28.542  11.256   2.430  0.00  0.00    -0.202 NA
ATOM     39  C   UNL     1      27.764  12.256   2.915  0.00  0.00    +0.242 C 
ATOM     40  C   UNL     1      26.269  12.123   2.792  0.00  0.00    +0.096 C 
ATOM     41  O   UNL     1      28.291  13.237   3.436  0.00  0.00    -0.273 OA
ENDBRANCH  37  38
BRANCH  33  42
ATOM     42  C   UNL     1      32.627  13.788   3.313  0.00  0.00    +0.391 C 
ATOM     43  O   UNL     1      33.292  13.466   4.439  0.00  0.00    -0.243 OA
ATOM     44  O   UNL     1      32.244  14.771   2.488  0.00  0.00    -0.243 OA
ENDBRANCH  33  42
ENDBRANCH  29  31
ENDBRANCH  27  29
ENDBRANCH  26  27
ENDBRANCH   2  26
TORSDOF 11
