REMARK VINA RESULT:    -7.102      1.662      2.505
REMARK INTER + INTRA:         -13.754
REMARK INTER:                 -11.965
REMARK INTRA:                  -1.789
REMARK UNBOUND:                -2.085
REMARK  Name = lig_assembled_51.pdb
REMARK  11 active torsions:
REMARK  status: ('A' for Active; 'I' for Inactive)
REMARK    1  A    between atoms: _2  and  _8
REMARK    2  A    between atoms: _5  and  _6
REMARK    3  A    between atoms: _5  and  _17
REMARK    4  A    between atoms: _17  and  _19
REMARK    5  A    between atoms: _18  and  _23
REMARK    6  A    between atoms: _19  and  _22
REMARK    7  A    between atoms: _27  and  _37
REMARK    8  A    between atoms: _29  and  _30
REMARK    9  A    between atoms: _31  and  _33
REMARK   10  A    between atoms: _33  and  _35
REMARK   11  A    between atoms: _35  and  _37
REMARK                            x       y       z     vdW  Elec       q    Type
REMARK                         _______ _______ _______ _____ _____    ______ ____
ROOT
ATOM      1  C   UNL     1      28.063  17.162  -0.814  0.00  0.00    +0.400 C 
ATOM      2  N   UNL     1      28.456  16.248   0.135  0.00  0.00    -0.278 N 
ATOM      3  H   UNL     1      28.775  16.861   0.951  0.00  0.00    +0.152 HD
ATOM      4  O   UNL     1      27.989  18.343  -0.485  0.00  0.00    -0.226 OA
ENDROOT
BRANCH   1   5
ATOM      5  O   UNL     1      27.836  16.682  -1.993  0.00  0.00    -0.450 OA
BRANCH   5   6
ATOM      6  C   UNL     1      26.779  16.110  -2.727  0.00  0.00    +0.240 C 
BRANCH   6   7
ATOM      7  C   UNL     1      26.814  14.587  -2.955  0.00  0.00    +0.100 C 
BRANCH   7   9
ATOM      8  N   UNL     1      24.454  14.411  -2.229  0.00  0.00    -0.134 NA
ATOM      9  C   UNL     1      25.733  13.930  -2.198  0.00  0.00    +0.086 A 
ATOM     10  C   UNL     1      25.774  12.819  -1.388  0.00  0.00    +0.134 A 
ATOM     11  N   UNL     1      24.487  12.674  -0.946  0.00  0.00    -0.245 N 
ATOM     12  N   UNL     1      23.699  13.637  -1.462  0.00  0.00    -0.065 NA
BRANCH  11  13
ATOM     13  C   UNL     1      23.960  11.652  -0.038  0.00  0.00    +0.066 C 
ATOM     14  C   UNL     1      24.762  11.655   1.291  0.00  0.00    +0.034 C 
ATOM     15  C   UNL     1      24.194  10.620   2.276  0.00  0.00    -0.008 C 
ATOM     16  C   UNL     1      22.721  10.951   2.566  0.00  0.00    +0.007 C 
ATOM     17  C   UNL     1      21.903  10.907   1.264  0.00  0.00    -0.008 C 
ATOM     18  C   UNL     1      22.009   9.505   0.646  0.00  0.00    +0.007 C 
ATOM     19  C   UNL     1      23.479   9.174   0.345  0.00  0.00    -0.008 C 
ATOM     20  C   UNL     1      24.287   9.219   1.652  0.00  0.00    +0.007 C 
ATOM     21  C   UNL     1      22.468  11.943   0.277  0.00  0.00    +0.034 C 
ATOM     22  C   UNL     1      24.044  10.215  -0.637  0.00  0.00    +0.034 C 
ENDBRANCH  11  13
ENDBRANCH   7   9
ENDBRANCH   6   7
ENDBRANCH   5   6
ENDBRANCH   1   5
BRANCH   2  23
ATOM     23  C   UNL     1      28.616  14.850   0.525  0.00  0.00    +0.152 C 
BRANCH  23  24
ATOM     24  C   UNL     1      29.949  14.182   0.129  0.00  0.00    +0.193 C 
ATOM     25  O   UNL     1      29.974  14.129  -1.315  0.00  0.00    -0.219 OA
BRANCH  24  26
ATOM     26  C   UNL     1      31.256  14.912   0.510  0.00  0.00    +0.212 C 
ATOM     27  O   UNL     1      30.970  16.058   1.328  0.00  0.00    -0.218 OA
BRANCH  26  28
ATOM     28  C   UNL     1      32.285  13.993   1.273  0.00  0.00    +0.171 C 
ATOM     29  O   UNL     1      32.638  14.510   2.552  0.00  0.00    -0.343 OA
ATOM     30  C   UNL     1      33.698  14.035   3.328  0.00  0.00    +0.220 C 
ATOM     31  C   UNL     1      35.006  13.957   2.521  0.00  0.00    +0.076 C 
ATOM     32  C   UNL     1      34.718  13.140   1.251  0.00  0.00    +0.177 C 
ATOM     33  O   UNL     1      35.907  13.003   0.486  0.00  0.00    -0.221 OA
ATOM     34  C   UNL     1      33.585  13.819   0.420  0.00  0.00    +0.155 C 
BRANCH  34  35
ATOM     35  N   UNL     1      33.312  13.050  -0.791  0.00  0.00    -0.202 NA
ATOM     36  C   UNL     1      33.318  13.445  -2.089  0.00  0.00    +0.242 C 
ATOM     37  C   UNL     1      33.293  12.385  -3.160  0.00  0.00    +0.096 C 
ATOM     38  O   UNL     1      33.344  14.644  -2.360  0.00  0.00    -0.273 OA
ENDBRANCH  34  35
BRANCH  30  39
ATOM     39  C   UNL     1      33.374  12.631   4.077  0.00  0.00    +0.391 C 
ATOM     40  O   UNL     1      32.039  12.483   3.976  0.00  0.00    -0.243 OA
ATOM     41  O   UNL     1      34.553  12.017   4.238  0.00  0.00    -0.243 OA
ENDBRANCH  30  39
ENDBRANCH  26  28
ENDBRANCH  24  26
ENDBRANCH  23  24
ENDBRANCH   2  23
TORSDOF 11
