REMARK VINA RESULT:    -6.610      1.757      2.308
REMARK INTER + INTRA:         -13.842
REMARK INTER:                 -12.211
REMARK INTRA:                  -1.631
REMARK UNBOUND:                -1.823
REMARK  Name = lig_assembled_12.pdb
REMARK  14 active torsions:
REMARK  status: ('A' for Active; 'I' for Inactive)
REMARK    1  A    between atoms: _2  and  _8
REMARK    2  A    between atoms: _5  and  _6
REMARK    3  A    between atoms: _5  and  _16
REMARK    4  A    between atoms: _8  and  _15
REMARK    5  A    between atoms: _9  and  _10
REMARK    6  A    between atoms: _9  and  _15
REMARK    7  A    between atoms: _16  and  _18
REMARK    8  A    between atoms: _17  and  _22
REMARK    9  A    between atoms: _18  and  _21
REMARK   10  A    between atoms: _26  and  _36
REMARK   11  A    between atoms: _28  and  _29
REMARK   12  A    between atoms: _30  and  _32
REMARK   13  A    between atoms: _32  and  _34
REMARK   14  A    between atoms: _34  and  _36
REMARK                            x       y       z     vdW  Elec       q    Type
REMARK                         _______ _______ _______ _____ _____    ______ ____
ROOT
ATOM      1  C   UNL     1      28.852  17.097  -0.537  0.00  0.00    +0.400 C 
ATOM      2  N   UNL     1      28.972  15.962   0.230  0.00  0.00    -0.278 N 
ATOM      3  H   UNL     1      29.651  16.255   1.001  0.00  0.00    +0.152 HD
ATOM      4  O   UNL     1      29.341  18.139  -0.109  0.00  0.00    -0.226 OA
ENDROOT
BRANCH   2   5
ATOM      5  C   UNL     1      28.586  14.573   0.465  0.00  0.00    +0.152 C 
BRANCH   5   6
ATOM      6  C   UNL     1      29.158  13.915   1.738  0.00  0.00    +0.193 C 
ATOM      7  O   UNL     1      28.100  13.923   2.721  0.00  0.00    -0.219 OA
BRANCH   6   8
ATOM      8  C   UNL     1      29.588  12.434   1.646  0.00  0.00    +0.212 C 
ATOM      9  O   UNL     1      29.534  11.980   0.284  0.00  0.00    -0.218 OA
BRANCH   8  10
ATOM     10  C   UNL     1      31.036  12.168   2.209  0.00  0.00    +0.171 C 
ATOM     11  O   UNL     1      31.085  12.202   3.632  0.00  0.00    -0.343 OA
ATOM     12  C   UNL     1      32.265  12.242   4.379  0.00  0.00    +0.220 C 
ATOM     13  C   UNL     1      33.213  13.351   3.891  0.00  0.00    +0.076 C 
ATOM     14  C   UNL     1      33.411  13.158   2.378  0.00  0.00    +0.177 C 
ATOM     15  O   UNL     1      34.313  14.136   1.881  0.00  0.00    -0.221 OA
ATOM     16  C   UNL     1      32.036  13.229   1.643  0.00  0.00    +0.155 C 
BRANCH  16  17
ATOM     17  N   UNL     1      32.221  13.052   0.204  0.00  0.00    -0.202 NA
ATOM     18  C   UNL     1      32.234  13.977  -0.789  0.00  0.00    +0.242 C 
ATOM     19  C   UNL     1      32.737  13.562  -2.147  0.00  0.00    +0.096 C 
ATOM     20  O   UNL     1      31.841  15.120  -0.560  0.00  0.00    -0.273 OA
ENDBRANCH  16  17
BRANCH  12  21
ATOM     21  C   UNL     1      33.022  10.807   4.470  0.00  0.00    +0.391 C 
ATOM     22  O   UNL     1      34.231  11.085   4.993  0.00  0.00    -0.243 OA
ATOM     23  O   UNL     1      32.076   9.878   4.282  0.00  0.00    -0.243 OA
ENDBRANCH  12  21
ENDBRANCH   8  10
ENDBRANCH   6   8
ENDBRANCH   5   6
ENDBRANCH   2   5
BRANCH   1  24
ATOM     24  O   UNL     1      28.250  16.945  -1.671  0.00  0.00    -0.450 OA
BRANCH  24  25
ATOM     25  C   UNL     1      27.106  17.415  -2.344  0.00  0.00    +0.240 C 
BRANCH  25  26
ATOM     26  C   UNL     1      26.920  16.989  -3.813  0.00  0.00    +0.100 C 
BRANCH  26  28
ATOM     27  N   UNL     1      25.256  15.466  -4.843  0.00  0.00    -0.134 NA
ATOM     28  C   UNL     1      26.216  15.696  -3.890  0.00  0.00    +0.086 A 
ATOM     29  C   UNL     1      26.353  14.572  -3.111  0.00  0.00    +0.136 A 
ATOM     30  N   UNL     1      25.431  13.703  -3.616  0.00  0.00    -0.226 N 
ATOM     31  N   UNL     1      24.789  14.236  -4.674  0.00  0.00    -0.063 NA
BRANCH  30  32
ATOM     32  C   UNL     1      25.135  12.346  -3.191  0.00  0.00    +0.305 C 
BRANCH  32  33
ATOM     33  O   UNL     1      23.796  12.290  -2.705  0.00  0.00    -0.353 OA
BRANCH  33  34
ATOM     34  C   UNL     1      23.579  13.218  -1.651  0.00  0.00    +0.197 C 
BRANCH  34  35
ATOM     35  C   UNL     1      23.110  12.440  -0.453  0.00  0.00    -0.022 A 
ATOM     36  C   UNL     1      21.752  12.423  -0.102  0.00  0.00    +0.006 A 
ATOM     37  C   UNL     1      21.323  11.733   1.034  0.00  0.00    +0.000 A 
ATOM     38  C   UNL     1      22.245  11.062   1.833  0.00  0.00    +0.000 A 
ATOM     39  C   UNL     1      23.598  11.081   1.501  0.00  0.00    +0.000 A 
ATOM     40  C   UNL     1      24.030  11.770   0.365  0.00  0.00    +0.006 A 
ENDBRANCH  34  35
ENDBRANCH  33  34
ENDBRANCH  32  33
ENDBRANCH  30  32
ENDBRANCH  26  28
ENDBRANCH  25  26
ENDBRANCH  24  25
ENDBRANCH   1  24
TORSDOF 14
