REMARK VINA RESULT:    -5.736      1.602      1.797
REMARK INTER + INTRA:         -12.439
REMARK INTER:                 -10.613
REMARK INTRA:                  -1.826
REMARK UNBOUND:                -2.511
REMARK  Name = lig_assembled_1.pdb
REMARK  13 active torsions:
REMARK  status: ('A' for Active; 'I' for Inactive)
REMARK    1  A    between atoms: _2  and  _8
REMARK    2  A    between atoms: _4  and  _8
REMARK    3  A    between atoms: _4  and  _9
REMARK    4  A    between atoms: _5  and  _6
REMARK    5  A    between atoms: _5  and  _10
REMARK    6  A    between atoms: _10  and  _12
REMARK    7  A    between atoms: _11  and  _16
REMARK    8  A    between atoms: _12  and  _15
REMARK    9  A    between atoms: _20  and  _30
REMARK   10  A    between atoms: _22  and  _23
REMARK   11  A    between atoms: _24  and  _26
REMARK   12  A    between atoms: _26  and  _28
REMARK   13  A    between atoms: _28  and  _30
REMARK                            x       y       z     vdW  Elec       q    Type
REMARK                         _______ _______ _______ _____ _____    ______ ____
ROOT
ATOM      1  C   UNL     1      29.987  14.146   0.111  0.00  0.00    +0.193 C 
ATOM      2  O   UNL     1      30.034  14.179  -1.333  0.00  0.00    -0.219 OA
ENDROOT
BRANCH   1   3
ATOM      3  C   UNL     1      31.261  14.897   0.555  0.00  0.00    +0.212 C 
ATOM      4  O   UNL     1      30.921  15.997   1.414  0.00  0.00    -0.218 OA
BRANCH   3   5
ATOM      5  C   UNL     1      32.301  13.977   1.302  0.00  0.00    +0.171 C 
ATOM      6  O   UNL     1      32.642  14.472   2.592  0.00  0.00    -0.343 OA
ATOM      7  C   UNL     1      33.707  13.997   3.362  0.00  0.00    +0.220 C 
ATOM      8  C   UNL     1      35.018  13.955   2.559  0.00  0.00    +0.076 C 
ATOM      9  C   UNL     1      34.746  13.160   1.271  0.00  0.00    +0.177 C 
ATOM     10  O   UNL     1      35.939  13.056   0.507  0.00  0.00    -0.221 OA
ATOM     11  C   UNL     1      33.606  13.840   0.451  0.00  0.00    +0.155 C 
BRANCH  11  12
ATOM     12  N   UNL     1      33.349  13.093  -0.778  0.00  0.00    -0.202 NA
ATOM     13  C   UNL     1      33.366  13.512  -2.068  0.00  0.00    +0.242 C 
ATOM     14  C   UNL     1      33.356  12.471  -3.158  0.00  0.00    +0.096 C 
ATOM     15  O   UNL     1      33.392  14.715  -2.316  0.00  0.00    -0.273 OA
ENDBRANCH  11  12
BRANCH   7  16
ATOM     16  C   UNL     1      33.400  12.572   4.081  0.00  0.00    +0.391 C 
ATOM     17  O   UNL     1      34.598  12.141   4.521  0.00  0.00    -0.243 OA
ATOM     18  O   UNL     1      32.071  12.512   4.230  0.00  0.00    -0.243 OA
ENDBRANCH   7  16
ENDBRANCH   3   5
ENDBRANCH   1   3
BRANCH   1  19
ATOM     19  C   UNL     1      28.626  14.742   0.524  0.00  0.00    +0.152 C 
BRANCH  19  21
ATOM     20  C   UNL     1      28.035  17.115  -0.685  0.00  0.00    +0.400 C 
ATOM     21  N   UNL     1      28.424  16.156   0.220  0.00  0.00    -0.278 N 
ATOM     22  H   UNL     1      28.678  16.724   1.088  0.00  0.00    +0.152 HD
ATOM     23  O   UNL     1      27.894  18.268  -0.284  0.00  0.00    -0.226 OA
BRANCH  20  24
ATOM     24  O   UNL     1      27.882  16.708  -1.902  0.00  0.00    -0.450 OA
BRANCH  24  25
ATOM     25  C   UNL     1      27.079  16.980  -3.027  0.00  0.00    +0.240 C 
BRANCH  25  26
ATOM     26  C   UNL     1      26.487  15.777  -3.786  0.00  0.00    +0.100 C 
BRANCH  26  28
ATOM     27  N   UNL     1      24.199  15.656  -2.845  0.00  0.00    -0.134 NA
ATOM     28  C   UNL     1      25.451  15.115  -2.971  0.00  0.00    +0.086 A 
ATOM     29  C   UNL     1      25.513  13.948  -2.243  0.00  0.00    +0.133 A 
ATOM     30  N   UNL     1      24.270  13.837  -1.695  0.00  0.00    -0.249 N 
ATOM     31  N   UNL     1      23.484  14.866  -2.054  0.00  0.00    -0.065 NA
BRANCH  30  32
ATOM     32  C   UNL     1      23.765  12.789  -0.838  0.00  0.00    +0.173 C 
BRANCH  32  33
ATOM     33  C   UNL     1      23.033  11.699  -1.612  0.00  0.00    +0.179 C 
BRANCH  33  34
ATOM     34  O   UNL     1      22.200  12.258  -2.626  0.00  0.00    -0.393 OA
ATOM     35  H   UNL     1      21.276  12.083  -2.363  0.00  0.00    +0.209 HD
ENDBRANCH  33  34
ENDBRANCH  32  33
ENDBRANCH  30  32
ENDBRANCH  26  28
ENDBRANCH  25  26
ENDBRANCH  24  25
ENDBRANCH  20  24
ENDBRANCH  19  21
ENDBRANCH   1  19
TORSDOF 13
