REMARK VINA RESULT:    -6.577      3.218      8.894
REMARK INTER + INTRA:         -12.192
REMARK INTER:                 -10.489
REMARK INTRA:                  -1.703
REMARK UNBOUND:                -1.385
REMARK  Name = lig_assembled_56.pdb
REMARK  11 active torsions:
REMARK  status: ('A' for Active; 'I' for Inactive)
REMARK    1  A    between atoms: _2  and  _9
REMARK    2  A    between atoms: _6  and  _7
REMARK    3  A    between atoms: _6  and  _13
REMARK    4  A    between atoms: _13  and  _15
REMARK    5  A    between atoms: _14  and  _19
REMARK    6  A    between atoms: _15  and  _18
REMARK    7  A    between atoms: _23  and  _33
REMARK    8  A    between atoms: _25  and  _26
REMARK    9  A    between atoms: _27  and  _29
REMARK   10  A    between atoms: _29  and  _31
REMARK   11  A    between atoms: _31  and  _33
REMARK                            x       y       z     vdW  Elec       q    Type
REMARK                         _______ _______ _______ _____ _____    ______ ____
ROOT
ATOM      1  C   UNL     1      27.423  15.423  -2.327  0.00  0.00    +0.152 C 
ENDROOT
BRANCH   1   3
ATOM      2  C   UNL     1      28.277  17.418  -0.672  0.00  0.00    +0.400 C 
ATOM      3  N   UNL     1      27.498  16.537  -1.384  0.00  0.00    -0.278 N 
ATOM      4  H   UNL     1      26.501  16.820  -1.122  0.00  0.00    +0.152 HD
ATOM      5  O   UNL     1      27.721  18.356  -0.107  0.00  0.00    -0.226 OA
BRANCH   2   6
ATOM      6  O   UNL     1      29.541  17.149  -0.641  0.00  0.00    -0.450 OA
BRANCH   6   7
ATOM      7  C   UNL     1      30.483  16.540   0.211  0.00  0.00    +0.240 C 
BRANCH   7   8
ATOM      8  C   UNL     1      31.283  15.349  -0.350  0.00  0.00    +0.100 C 
BRANCH   8  10
ATOM      9  N   UNL     1      32.916  13.739   0.576  0.00  0.00    -0.134 NA
ATOM     10  C   UNL     1      31.814  14.523   0.751  0.00  0.00    +0.086 A 
ATOM     11  C   UNL     1      31.365  14.387   2.045  0.00  0.00    +0.139 A 
ATOM     12  N   UNL     1      32.245  13.511   2.635  0.00  0.00    -0.220 N 
ATOM     13  N   UNL     1      33.170  13.124   1.724  0.00  0.00    -0.061 NA
BRANCH  12  14
ATOM     14  C   UNL     1      32.269  13.042   3.972  0.00  0.00    +0.070 A 
ATOM     15  C   UNL     1      31.148  12.435   4.543  0.00  0.00    +0.047 A 
ATOM     16  C   UNL     1      31.237  12.014   5.860  0.00  0.00    +0.113 A 
ATOM     17  N   UNL     1      32.340  12.155   6.622  0.00  0.00    -0.263 NA
ATOM     18  C   UNL     1      33.410  12.743   6.046  0.00  0.00    +0.113 A 
ATOM     19  C   UNL     1      33.428  13.198   4.740  0.00  0.00    +0.047 A 
ENDBRANCH  12  14
ENDBRANCH   8  10
ENDBRANCH   7   8
ENDBRANCH   6   7
ENDBRANCH   2   6
ENDBRANCH   1   3
BRANCH   1  20
ATOM     20  C   UNL     1      27.809  14.036  -1.772  0.00  0.00    +0.193 C 
ATOM     21  O   UNL     1      27.884  14.170  -0.336  0.00  0.00    -0.219 OA
BRANCH  20  22
ATOM     22  C   UNL     1      26.818  12.874  -2.000  0.00  0.00    +0.212 C 
ATOM     23  O   UNL     1      27.529  11.656  -2.278  0.00  0.00    -0.218 OA
BRANCH  22  24
ATOM     24  C   UNL     1      25.854  12.626  -0.778  0.00  0.00    +0.171 C 
ATOM     25  O   UNL     1      26.160  11.428  -0.072  0.00  0.00    -0.343 OA
ATOM     26  C   UNL     1      25.331  10.845   0.889  0.00  0.00    +0.220 C 
ATOM     27  C   UNL     1      23.889  10.684   0.375  0.00  0.00    +0.076 C 
ATOM     28  C   UNL     1      23.423  12.057  -0.136  0.00  0.00    +0.177 C 
ATOM     29  O   UNL     1      22.079  11.972  -0.586  0.00  0.00    -0.221 OA
ATOM     30  C   UNL     1      24.371  12.559  -1.269  0.00  0.00    +0.155 C 
BRANCH  30  31
ATOM     31  N   UNL     1      23.927  13.861  -1.762  0.00  0.00    -0.202 NA
ATOM     32  C   UNL     1      23.427  14.205  -2.975  0.00  0.00    +0.242 C 
ATOM     33  C   UNL     1      22.772  15.554  -3.123  0.00  0.00    +0.096 C 
ATOM     34  O   UNL     1      23.516  13.417  -3.915  0.00  0.00    -0.273 OA
ENDBRANCH  30  31
BRANCH  26  35
ATOM     35  C   UNL     1      25.371  11.604   2.325  0.00  0.00    +0.391 C 
ATOM     36  O   UNL     1      24.316  11.116   3.005  0.00  0.00    -0.243 OA
ATOM     37  O   UNL     1      26.576  12.183   2.403  0.00  0.00    -0.243 OA
ENDBRANCH  26  35
ENDBRANCH  22  24
ENDBRANCH  20  22
ENDBRANCH   1  20
TORSDOF 11
