REMARK VINA RESULT:    -6.209      3.552      7.893
REMARK INTER + INTRA:         -11.747
REMARK INTER:                  -9.134
REMARK INTRA:                  -2.613
REMARK UNBOUND:                -1.545
REMARK  Name = lig_assembled_48.pdb
REMARK  11 active torsions:
REMARK  status: ('A' for Active; 'I' for Inactive)
REMARK    1  A    between atoms: _2  and  _8
REMARK    2  A    between atoms: _5  and  _6
REMARK    3  A    between atoms: _5  and  _13
REMARK    4  A    between atoms: _13  and  _15
REMARK    5  A    between atoms: _14  and  _19
REMARK    6  A    between atoms: _15  and  _18
REMARK    7  A    between atoms: _23  and  _33
REMARK    8  A    between atoms: _25  and  _26
REMARK    9  A    between atoms: _27  and  _29
REMARK   10  A    between atoms: _29  and  _31
REMARK   11  A    between atoms: _31  and  _33
REMARK                            x       y       z     vdW  Elec       q    Type
REMARK                         _______ _______ _______ _____ _____    ______ ____
ROOT
ATOM      1  C   UNL     1      27.106  15.602  -2.191  0.00  0.00    +0.152 C 
ENDROOT
BRANCH   1   3
ATOM      2  C   UNL     1      28.779  17.008  -0.557  0.00  0.00    +0.400 C 
ATOM      3  N   UNL     1      27.677  16.556  -1.243  0.00  0.00    -0.278 N 
ATOM      4  H   UNL     1      26.902  17.225  -0.937  0.00  0.00    +0.152 HD
ATOM      5  O   UNL     1      28.691  18.079   0.039  0.00  0.00    -0.226 OA
BRANCH   2   6
ATOM      6  O   UNL     1      29.812  16.232  -0.582  0.00  0.00    -0.450 OA
BRANCH   6   7
ATOM      7  C   UNL     1      30.559  15.419   0.293  0.00  0.00    +0.240 C 
BRANCH   7   8
ATOM      8  C   UNL     1      30.559  13.902   0.028  0.00  0.00    +0.100 C 
BRANCH   8  10
ATOM      9  N   UNL     1      28.333  13.813   1.097  0.00  0.00    -0.134 NA
ATOM     10  C   UNL     1      29.188  13.371   0.126  0.00  0.00    +0.086 A 
ATOM     11  C   UNL     1      28.536  12.446  -0.660  0.00  0.00    +0.134 A 
ATOM     12  N   UNL     1      27.261  12.436  -0.178  0.00  0.00    -0.248 N 
ATOM     13  N   UNL     1      27.168  13.206   0.927  0.00  0.00    -0.065 NA
BRANCH  12  14
ATOM     14  C   UNL     1      26.055  11.798  -0.693  0.00  0.00    +0.109 C 
ATOM     15  C   UNL     1      26.249  10.277  -0.833  0.00  0.00    +0.027 C 
ATOM     16  C   UNL     1      26.277   9.589   0.530  0.00  0.00    +0.002 C 
ATOM     17  C   UNL     1      24.978   9.832   1.289  0.00  0.00    +0.000 C 
ATOM     18  C   UNL     1      24.646  11.317   1.418  0.00  0.00    +0.002 C 
ATOM     19  C   UNL     1      24.759  12.081   0.094  0.00  0.00    +0.027 C 
ENDBRANCH  12  14
ENDBRANCH   8  10
ENDBRANCH   7   8
ENDBRANCH   6   7
ENDBRANCH   2   6
ENDBRANCH   1   3
BRANCH   1  20
ATOM     20  C   UNL     1      26.156  16.188  -3.256  0.00  0.00    +0.193 C 
ATOM     21  O   UNL     1      26.834  17.324  -3.837  0.00  0.00    -0.219 OA
BRANCH  20  22
ATOM     22  C   UNL     1      25.797  15.294  -4.463  0.00  0.00    +0.212 C 
ATOM     23  O   UNL     1      26.604  15.639  -5.601  0.00  0.00    -0.218 OA
BRANCH  22  24
ATOM     24  C   UNL     1      25.968  13.754  -4.173  0.00  0.00    +0.171 C 
ATOM     25  O   UNL     1      26.778  13.100  -5.144  0.00  0.00    -0.343 OA
ATOM     26  C   UNL     1      26.893  11.713  -5.268  0.00  0.00    +0.220 C 
ATOM     27  C   UNL     1      25.517  11.029  -5.327  0.00  0.00    +0.076 C 
ATOM     28  C   UNL     1      24.711  11.504  -4.107  0.00  0.00    +0.177 C 
ATOM     29  O   UNL     1      23.441  10.869  -4.091  0.00  0.00    -0.221 OA
ATOM     30  C   UNL     1      24.568  13.058  -4.129  0.00  0.00    +0.155 C 
BRANCH  30  31
ATOM     31  N   UNL     1      23.798  13.512  -2.974  0.00  0.00    -0.202 NA
ATOM     32  C   UNL     1      22.657  14.247  -2.927  0.00  0.00    +0.242 C 
ATOM     33  C   UNL     1      21.911  14.325  -1.620  0.00  0.00    +0.096 C 
ATOM     34  O   UNL     1      22.263  14.824  -3.938  0.00  0.00    -0.273 OA
ENDBRANCH  30  31
BRANCH  26  35
ATOM     35  C   UNL     1      27.848  11.040  -4.139  0.00  0.00    +0.391 C 
ATOM     36  O   UNL     1      27.446   9.756  -4.066  0.00  0.00    -0.243 OA
ATOM     37  O   UNL     1      28.846  11.907  -3.933  0.00  0.00    -0.243 OA
ENDBRANCH  26  35
ENDBRANCH  22  24
ENDBRANCH  20  22
ENDBRANCH   1  20
TORSDOF 11
