REMARK VINA RESULT:    -6.818      3.648      9.349
REMARK INTER + INTRA:         -13.895
REMARK INTER:                 -11.240
REMARK INTRA:                  -2.655
REMARK UNBOUND:                -2.096
REMARK  Name = lig_assembled_88.pdb
REMARK  13 active torsions:
REMARK  status: ('A' for Active; 'I' for Inactive)
REMARK    1  A    between atoms: _2  and  _8
REMARK    2  A    between atoms: _4  and  _14
REMARK    3  A    between atoms: _5  and  _6
REMARK    4  A    between atoms: _5  and  _15
REMARK    5  A    between atoms: _8  and  _9
REMARK    6  A    between atoms: _15  and  _17
REMARK    7  A    between atoms: _16  and  _21
REMARK    8  A    between atoms: _17  and  _20
REMARK    9  A    between atoms: _25  and  _35
REMARK   10  A    between atoms: _27  and  _28
REMARK   11  A    between atoms: _29  and  _31
REMARK   12  A    between atoms: _31  and  _33
REMARK   13  A    between atoms: _33  and  _35
REMARK                            x       y       z     vdW  Elec       q    Type
REMARK                         _______ _______ _______ _____ _____    ______ ____
ROOT
ATOM      1  C   UNL     1      32.280  12.859  -4.624  0.00  0.00    +0.400 C 
ATOM      2  N   UNL     1      31.119  12.572  -3.945  0.00  0.00    -0.278 N 
ATOM      3  H   UNL     1      30.382  13.149  -4.461  0.00  0.00    +0.152 HD
ATOM      4  O   UNL     1      32.195  13.490  -5.675  0.00  0.00    -0.226 OA
ENDROOT
BRANCH   1   5
ATOM      5  O   UNL     1      33.372  12.455  -4.062  0.00  0.00    -0.450 OA
BRANCH   5   6
ATOM      6  C   UNL     1      34.361  12.935  -3.182  0.00  0.00    +0.240 C 
BRANCH   6   7
ATOM      7  C   UNL     1      34.189  12.627  -1.683  0.00  0.00    +0.100 C 
BRANCH   7   9
ATOM      8  N   UNL     1      33.042  14.821  -1.635  0.00  0.00    -0.134 NA
ATOM      9  C   UNL     1      33.275  13.600  -1.057  0.00  0.00    +0.086 A 
ATOM     10  C   UNL     1      32.559  13.513   0.116  0.00  0.00    +0.134 A 
ATOM     11  N   UNL     1      31.973  14.741   0.232  0.00  0.00    -0.247 N 
ATOM     12  N   UNL     1      32.224  15.504  -0.848  0.00  0.00    -0.065 NA
BRANCH  11  13
ATOM     13  C   UNL     1      31.227  15.276   1.360  0.00  0.00    +0.184 C 
BRANCH  13  14
ATOM     14  C   UNL     1      30.630  14.200   2.246  0.00  0.00    +0.017 A 
ATOM     15  C   UNL     1      31.375  13.545   3.247  0.00  0.00    +0.024 A 
ATOM     16  C   UNL     1      30.791  12.559   4.044  0.00  0.00    +0.019 A 
ATOM     17 BR   UNL     1      31.837  11.667   5.344  0.00  0.00    -0.050 Br
ATOM     18  C   UNL     1      29.451  12.219   3.892  0.00  0.00    +0.034 A 
ATOM     19  C   UNL     1      28.689  12.891   2.940  0.00  0.00    +0.061 A 
ATOM     20 BR   UNL     1      26.853  12.451   2.761  0.00  0.00    -0.046 Br
ATOM     21  C   UNL     1      29.271  13.874   2.128  0.00  0.00    +0.136 A 
BRANCH  21  22
ATOM     22  O   UNL     1      28.527  14.551   1.199  0.00  0.00    -0.505 OA
ATOM     23  H   UNL     1      27.663  14.754   1.604  0.00  0.00    +0.292 HD
ENDBRANCH  21  22
ENDBRANCH  13  14
ENDBRANCH  11  13
ENDBRANCH   7   9
ENDBRANCH   6   7
ENDBRANCH   5   6
ENDBRANCH   1   5
BRANCH   2  24
ATOM     24  C   UNL     1      30.456  11.839  -2.870  0.00  0.00    +0.152 C 
BRANCH  24  25
ATOM     25  C   UNL     1      29.135  12.443  -2.350  0.00  0.00    +0.193 C 
ATOM     26  O   UNL     1      29.493  13.567  -1.517  0.00  0.00    -0.219 OA
BRANCH  25  27
ATOM     27  C   UNL     1      28.158  13.031  -3.392  0.00  0.00    +0.212 C 
ATOM     28  O   UNL     1      28.166  12.238  -4.591  0.00  0.00    -0.218 OA
BRANCH  27  29
ATOM     29  C   UNL     1      26.675  13.137  -2.868  0.00  0.00    +0.171 C 
ATOM     30  O   UNL     1      25.806  12.195  -3.489  0.00  0.00    -0.343 OA
ATOM     31  C   UNL     1      24.413  12.228  -3.396  0.00  0.00    +0.220 C 
ATOM     32  C   UNL     1      23.851  13.619  -3.737  0.00  0.00    +0.076 C 
ATOM     33  C   UNL     1      24.583  14.643  -2.853  0.00  0.00    +0.177 C 
ATOM     34  O   UNL     1      24.072  15.945  -3.100  0.00  0.00    -0.221 OA
ATOM     35  C   UNL     1      26.120  14.578  -3.116  0.00  0.00    +0.155 C 
BRANCH  35  36
ATOM     36  N   UNL     1      26.819  15.554  -2.283  0.00  0.00    -0.202 NA
ATOM     37  C   UNL     1      27.148  16.843  -2.549  0.00  0.00    +0.242 C 
ATOM     38  C   UNL     1      27.604  17.715  -1.408  0.00  0.00    +0.096 C 
ATOM     39  O   UNL     1      27.067  17.266  -3.701  0.00  0.00    -0.273 OA
ENDBRANCH  35  36
BRANCH  31  40
ATOM     40  C   UNL     1      23.847  11.688  -1.972  0.00  0.00    +0.391 C 
ATOM     41  O   UNL     1      22.525  11.948  -2.002  0.00  0.00    -0.243 OA
ATOM     42  O   UNL     1      24.821  10.934  -1.449  0.00  0.00    -0.243 OA
ENDBRANCH  31  40
ENDBRANCH  27  29
ENDBRANCH  25  27
ENDBRANCH  24  25
ENDBRANCH   2  24
TORSDOF 13
