REMARK VINA RESULT:    -6.525      1.390      2.073
REMARK INTER + INTRA:         -12.266
REMARK INTER:                 -11.540
REMARK INTRA:                  -0.726
REMARK UNBOUND:                -1.545
REMARK  Name = lig_assembled_48.pdb
REMARK  11 active torsions:
REMARK  status: ('A' for Active; 'I' for Inactive)
REMARK    1  A    between atoms: _2  and  _8
REMARK    2  A    between atoms: _5  and  _6
REMARK    3  A    between atoms: _5  and  _13
REMARK    4  A    between atoms: _13  and  _15
REMARK    5  A    between atoms: _14  and  _19
REMARK    6  A    between atoms: _15  and  _18
REMARK    7  A    between atoms: _23  and  _33
REMARK    8  A    between atoms: _25  and  _26
REMARK    9  A    between atoms: _27  and  _29
REMARK   10  A    between atoms: _29  and  _31
REMARK   11  A    between atoms: _31  and  _33
REMARK                            x       y       z     vdW  Elec       q    Type
REMARK                         _______ _______ _______ _____ _____    ______ ____
ROOT
ATOM      1  C   UNL     1      29.255  15.223   0.035  0.00  0.00    +0.152 C 
ENDROOT
BRANCH   1   3
ATOM      2  C   UNL     1      27.882  17.395  -0.884  0.00  0.00    +0.400 C 
ATOM      3  N   UNL     1      28.657  16.545  -0.129  0.00  0.00    -0.278 N 
ATOM      4  H   UNL     1      28.921  17.139   0.719  0.00  0.00    +0.152 HD
ATOM      5  O   UNL     1      27.539  18.463  -0.384  0.00  0.00    -0.226 OA
BRANCH   2   6
ATOM      6  O   UNL     1      27.611  16.991  -2.081  0.00  0.00    -0.450 OA
BRANCH   6   7
ATOM      7  C   UNL     1      26.947  15.928  -2.725  0.00  0.00    +0.240 C 
BRANCH   7   8
ATOM      8  C   UNL     1      25.642  16.256  -3.475  0.00  0.00    +0.100 C 
BRANCH   8  10
ATOM      9  N   UNL     1      24.758  14.460  -2.027  0.00  0.00    -0.134 NA
ATOM     10  C   UNL     1      24.526  15.474  -2.913  0.00  0.00    +0.086 A 
ATOM     11  C   UNL     1      23.168  15.596  -3.112  0.00  0.00    +0.134 A 
ATOM     12  N   UNL     1      22.621  14.693  -2.250  0.00  0.00    -0.248 N 
ATOM     13  N   UNL     1      23.588  13.961  -1.657  0.00  0.00    -0.065 NA
BRANCH  12  14
ATOM     14  C   UNL     1      21.233  14.467  -1.865  0.00  0.00    +0.109 C 
ATOM     15  C   UNL     1      20.327  14.338  -3.104  0.00  0.00    +0.027 C 
ATOM     16  C   UNL     1      20.556  13.014  -3.829  0.00  0.00    +0.002 C 
ATOM     17  C   UNL     1      20.268  11.834  -2.909  0.00  0.00    +0.000 C 
ATOM     18  C   UNL     1      21.060  11.903  -1.605  0.00  0.00    +0.002 C 
ATOM     19  C   UNL     1      20.985  13.273  -0.921  0.00  0.00    +0.027 C 
ENDBRANCH  12  14
ENDBRANCH   8  10
ENDBRANCH   7   8
ENDBRANCH   6   7
ENDBRANCH   2   6
ENDBRANCH   1   3
BRANCH   1  20
ATOM     20  C   UNL     1      30.609  15.176   0.773  0.00  0.00    +0.193 C 
ATOM     21  O   UNL     1      31.014  16.547   0.984  0.00  0.00    -0.219 OA
BRANCH  20  22
ATOM     22  C   UNL     1      30.634  14.546   2.183  0.00  0.00    +0.212 C 
ATOM     23  O   UNL     1      29.532  13.638   2.346  0.00  0.00    -0.218 OA
BRANCH  22  24
ATOM     24  C   UNL     1      31.973  13.775   2.498  0.00  0.00    +0.171 C 
ATOM     25  O   UNL     1      32.939  14.598   3.143  0.00  0.00    -0.343 OA
ATOM     26  C   UNL     1      34.281  14.250   3.316  0.00  0.00    +0.220 C 
ATOM     27  C   UNL     1      34.924  13.786   1.997  0.00  0.00    +0.076 C 
ATOM     28  C   UNL     1      34.037  12.673   1.416  0.00  0.00    +0.177 C 
ATOM     29  O   UNL     1      34.609  12.180   0.213  0.00  0.00    -0.221 OA
ATOM     30  C   UNL     1      32.590  13.209   1.178  0.00  0.00    +0.155 C 
BRANCH  30  31
ATOM     31  N   UNL     1      31.746  12.156   0.619  0.00  0.00    -0.202 NA
ATOM     32  C   UNL     1      31.391  11.921  -0.670  0.00  0.00    +0.242 C 
ATOM     33  C   UNL     1      30.753  10.598  -1.006  0.00  0.00    +0.096 C 
ATOM     34  O   UNL     1      31.597  12.781  -1.523  0.00  0.00    -0.273 OA
ENDBRANCH  30  31
BRANCH  26  35
ATOM     35  C   UNL     1      34.522  13.174   4.509  0.00  0.00    +0.391 C 
ATOM     36  O   UNL     1      33.423  13.261   5.283  0.00  0.00    -0.243 OA
ATOM     37  O   UNL     1      35.550  12.411   4.117  0.00  0.00    -0.243 OA
ENDBRANCH  26  35
ENDBRANCH  22  24
ENDBRANCH  20  22
ENDBRANCH   1  20
TORSDOF 11
