REMARK VINA RESULT:    -6.121      2.072      3.850
REMARK INTER + INTRA:         -13.456
REMARK INTER:                 -11.090
REMARK INTRA:                  -2.366
REMARK UNBOUND:                -1.966
REMARK  Name = lig_assembled_17.pdb
REMARK  17 active torsions:
REMARK  status: ('A' for Active; 'I' for Inactive)
REMARK    1  A    between atoms: _2  and  _9
REMARK    2  A    between atoms: _3  and  _10
REMARK    3  A    between atoms: _3  and  _11
REMARK    4  A    between atoms: _3  and  _13
REMARK    5  A    between atoms: _5  and  _13
REMARK    6  A    between atoms: _6  and  _7
REMARK    7  A    between atoms: _6  and  _14
REMARK    8  A    between atoms: _9  and  _10
REMARK    9  A    between atoms: _11  and  _12
REMARK   10  A    between atoms: _14  and  _16
REMARK   11  A    between atoms: _15  and  _20
REMARK   12  A    between atoms: _16  and  _19
REMARK   13  A    between atoms: _24  and  _34
REMARK   14  A    between atoms: _26  and  _27
REMARK   15  A    between atoms: _28  and  _30
REMARK   16  A    between atoms: _30  and  _32
REMARK   17  A    between atoms: _32  and  _34
REMARK                            x       y       z     vdW  Elec       q    Type
REMARK                         _______ _______ _______ _____ _____    ______ ____
ROOT
ATOM      1  C   UNL     1      28.579  14.328  -0.653  0.00  0.00    +0.400 C 
ATOM      2  N   UNL     1      29.780  13.663  -0.590  0.00  0.00    -0.278 N 
ATOM      3  H   UNL     1      29.575  12.842   0.061  0.00  0.00    +0.152 HD
ATOM      4  O   UNL     1      27.591  13.788  -0.160  0.00  0.00    -0.226 OA
ENDROOT
BRANCH   2   5
ATOM      5  C   UNL     1      31.175  13.570  -1.016  0.00  0.00    +0.152 C 
BRANCH   5   6
ATOM      6  C   UNL     1      32.171  14.494  -0.285  0.00  0.00    +0.193 C 
ATOM      7  O   UNL     1      31.998  15.815  -0.843  0.00  0.00    -0.219 OA
BRANCH   6   8
ATOM      8  C   UNL     1      31.982  14.690   1.235  0.00  0.00    +0.212 C 
ATOM      9  O   UNL     1      30.999  15.705   1.492  0.00  0.00    -0.218 OA
BRANCH   8  10
ATOM     10  C   UNL     1      31.554  13.372   1.986  0.00  0.00    +0.171 C 
ATOM     11  O   UNL     1      30.189  13.391   2.390  0.00  0.00    -0.343 OA
ATOM     12  C   UNL     1      29.615  12.473   3.274  0.00  0.00    +0.220 C 
ATOM     13  C   UNL     1      30.442  12.331   4.563  0.00  0.00    +0.076 C 
ATOM     14  C   UNL     1      31.890  12.016   4.152  0.00  0.00    +0.177 C 
ATOM     15  O   UNL     1      32.691  11.834   5.311  0.00  0.00    -0.221 OA
ATOM     16  C   UNL     1      32.452  13.156   3.248  0.00  0.00    +0.155 C 
BRANCH  16  17
ATOM     17  N   UNL     1      33.830  12.864   2.861  0.00  0.00    -0.202 NA
ATOM     18  C   UNL     1      34.972  13.540   3.142  0.00  0.00    +0.242 C 
ATOM     19  C   UNL     1      36.290  12.863   2.871  0.00  0.00    +0.096 C 
ATOM     20  O   UNL     1      34.907  14.676   3.608  0.00  0.00    -0.273 OA
ENDBRANCH  16  17
BRANCH  12  21
ATOM     21  C   UNL     1      29.309  11.028   2.597  0.00  0.00    +0.391 C 
ATOM     22  O   UNL     1      29.017  10.216   3.632  0.00  0.00    -0.243 OA
ATOM     23  O   UNL     1      29.167  11.256   1.286  0.00  0.00    -0.243 OA
ENDBRANCH  12  21
ENDBRANCH   8  10
ENDBRANCH   6   8
ENDBRANCH   5   6
ENDBRANCH   2   5
BRANCH   1  24
ATOM     24  O   UNL     1      28.613  15.495  -1.209  0.00  0.00    -0.450 OA
BRANCH  24  25
ATOM     25  C   UNL     1      28.567  16.854  -0.842  0.00  0.00    +0.240 C 
BRANCH  25  26
ATOM     26  C   UNL     1      27.591  17.766  -1.611  0.00  0.00    +0.100 C 
BRANCH  26  28
ATOM     27  N   UNL     1      27.105  16.981  -3.904  0.00  0.00    -0.134 NA
ATOM     28  C   UNL     1      26.801  16.971  -2.568  0.00  0.00    +0.086 A 
ATOM     29  C   UNL     1      25.726  16.137  -2.357  0.00  0.00    +0.133 A 
ATOM     30  N   UNL     1      25.437  15.658  -3.598  0.00  0.00    -0.250 N 
ATOM     31  N   UNL     1      26.259  16.174  -4.528  0.00  0.00    -0.065 NA
BRANCH  30  32
ATOM     32  C   UNL     1      24.436  14.682  -3.979  0.00  0.00    +0.160 C 
BRANCH  32  33
ATOM     33  C   UNL     1      24.339  13.570  -2.925  0.00  0.00    +0.107 C 
BRANCH  33  34
ATOM     34  N   UNL     1      23.427  13.832  -1.784  0.00  0.00    -0.301 NA
BRANCH  34  35
ATOM     35  C   UNL     1      23.230  12.574  -1.034  0.00  0.00    +0.081 C 
ATOM     36  C   UNL     1      24.423  12.138  -0.188  0.00  0.00    +0.020 C 
ENDBRANCH  34  35
BRANCH  34  37
ATOM     37  C   UNL     1      22.164  14.478  -2.182  0.00  0.00    +0.081 C 
ATOM     38  C   UNL     1      20.905  14.023  -1.449  0.00  0.00    +0.020 C 
ENDBRANCH  34  37
ENDBRANCH  33  34
ENDBRANCH  32  33
ENDBRANCH  30  32
ENDBRANCH  26  28
ENDBRANCH  25  26
ENDBRANCH  24  25
ENDBRANCH   1  24
TORSDOF 15
