REMARK VINA RESULT:    -7.069      2.414      4.214
REMARK INTER + INTRA:         -14.330
REMARK INTER:                 -12.439
REMARK INTRA:                  -1.891
REMARK UNBOUND:                -2.096
REMARK  Name = lig_assembled_88.pdb
REMARK  13 active torsions:
REMARK  status: ('A' for Active; 'I' for Inactive)
REMARK    1  A    between atoms: _2  and  _8
REMARK    2  A    between atoms: _4  and  _14
REMARK    3  A    between atoms: _5  and  _6
REMARK    4  A    between atoms: _5  and  _15
REMARK    5  A    between atoms: _8  and  _9
REMARK    6  A    between atoms: _15  and  _17
REMARK    7  A    between atoms: _16  and  _21
REMARK    8  A    between atoms: _17  and  _20
REMARK    9  A    between atoms: _25  and  _35
REMARK   10  A    between atoms: _27  and  _28
REMARK   11  A    between atoms: _29  and  _31
REMARK   12  A    between atoms: _31  and  _33
REMARK   13  A    between atoms: _33  and  _35
REMARK                            x       y       z     vdW  Elec       q    Type
REMARK                         _______ _______ _______ _____ _____    ______ ____
ROOT
ATOM      1  C   UNL     1      28.316  17.613  -0.522  0.00  0.00    +0.400 C 
ATOM      2  N   UNL     1      29.518  17.431   0.121  0.00  0.00    -0.278 N 
ATOM      3  H   UNL     1      29.502  18.172   0.891  0.00  0.00    +0.152 HD
ATOM      4  O   UNL     1      27.495  18.371  -0.011  0.00  0.00    -0.226 OA
ENDROOT
BRANCH   1   5
ATOM      5  O   UNL     1      28.178  16.980  -1.640  0.00  0.00    -0.450 OA
BRANCH   5   6
ATOM      6  C   UNL     1      27.291  16.073  -2.251  0.00  0.00    +0.240 C 
BRANCH   6   7
ATOM      7  C   UNL     1      26.545  16.548  -3.513  0.00  0.00    +0.100 C 
BRANCH   7   9
ATOM      8  N   UNL     1      25.014  15.125  -4.841  0.00  0.00    -0.134 NA
ATOM      9  C   UNL     1      25.284  15.801  -3.680  0.00  0.00    +0.086 A 
ATOM     10  C   UNL     1      24.222  15.654  -2.816  0.00  0.00    +0.134 A 
ATOM     11  N   UNL     1      23.308  14.945  -3.540  0.00  0.00    -0.247 N 
ATOM     12  N   UNL     1      23.809  14.585  -4.737  0.00  0.00    -0.065 NA
BRANCH  11  13
ATOM     13  C   UNL     1      21.931  14.635  -3.190  0.00  0.00    +0.184 C 
BRANCH  13  14
ATOM     14  C   UNL     1      21.772  13.277  -2.536  0.00  0.00    +0.017 A 
ATOM     15  C   UNL     1      21.754  13.108  -1.138  0.00  0.00    +0.024 A 
ATOM     16  C   UNL     1      21.605  11.841  -0.571  0.00  0.00    +0.019 A 
ATOM     17 BR   UNL     1      21.637  11.648   1.310  0.00  0.00    -0.050 Br
ATOM     18  C   UNL     1      21.438  10.716  -1.373  0.00  0.00    +0.034 A 
ATOM     19  C   UNL     1      21.406  10.873  -2.756  0.00  0.00    +0.061 A 
ATOM     20 BR   UNL     1      21.141   9.342  -3.843  0.00  0.00    -0.046 Br
ATOM     21  C   UNL     1      21.566  12.141  -3.331  0.00  0.00    +0.136 A 
BRANCH  21  22
ATOM     22  O   UNL     1      21.520  12.307  -4.690  0.00  0.00    -0.505 OA
ATOM     23  H   UNL     1      22.117  13.045  -4.917  0.00  0.00    +0.292 HD
ENDBRANCH  21  22
ENDBRANCH  13  14
ENDBRANCH  11  13
ENDBRANCH   7   9
ENDBRANCH   6   7
ENDBRANCH   5   6
ENDBRANCH   1   5
BRANCH   2  24
ATOM     24  C   UNL     1      30.770  16.686   0.231  0.00  0.00    +0.152 C 
BRANCH  24  25
ATOM     25  C   UNL     1      30.657  15.151   0.139  0.00  0.00    +0.193 C 
ATOM     26  O   UNL     1      31.565  14.730  -0.903  0.00  0.00    -0.219 OA
BRANCH  25  27
ATOM     27  C   UNL     1      31.082  14.327   1.375  0.00  0.00    +0.212 C 
ATOM     28  O   UNL     1      31.389  15.197   2.476  0.00  0.00    -0.218 OA
BRANCH  27  29
ATOM     29  C   UNL     1      29.988  13.292   1.841  0.00  0.00    +0.171 C 
ATOM     30  O   UNL     1      28.679  13.851   1.862  0.00  0.00    -0.343 OA
ATOM     31  C   UNL     1      27.571  13.242   2.458  0.00  0.00    +0.220 C 
ATOM     32  C   UNL     1      27.872  12.799   3.900  0.00  0.00    +0.076 C 
ATOM     33  C   UNL     1      29.143  11.935   3.864  0.00  0.00    +0.177 C 
ATOM     34  O   UNL     1      29.444  11.465   5.170  0.00  0.00    -0.221 OA
ATOM     35  C   UNL     1      30.331  12.753   3.268  0.00  0.00    +0.155 C 
BRANCH  35  36
ATOM     36  N   UNL     1      31.543  11.938   3.238  0.00  0.00    -0.202 NA
ATOM     37  C   UNL     1      32.698  12.074   3.939  0.00  0.00    +0.242 C 
ATOM     38  C   UNL     1      33.676  10.928   3.936  0.00  0.00    +0.096 C 
ATOM     39  O   UNL     1      32.916  13.115   4.555  0.00  0.00    -0.273 OA
ENDBRANCH  35  36
BRANCH  31  40
ATOM     40  C   UNL     1      26.949  12.027   1.577  0.00  0.00    +0.391 C 
ATOM     41  O   UNL     1      26.163  11.345   2.433  0.00  0.00    -0.243 OA
ATOM     42  O   UNL     1      27.201  12.330   0.298  0.00  0.00    -0.243 OA
ENDBRANCH  31  40
ENDBRANCH  27  29
ENDBRANCH  25  27
ENDBRANCH  24  25
ENDBRANCH   2  24
TORSDOF 13
