REMARK VINA RESULT:    -6.443      3.492      7.575
REMARK INTER + INTRA:         -13.621
REMARK INTER:                 -11.071
REMARK INTRA:                  -2.550
REMARK UNBOUND:                -2.657
REMARK  Name = lig_assembled_46.pdb
REMARK  12 active torsions:
REMARK  status: ('A' for Active; 'I' for Inactive)
REMARK    1  A    between atoms: _2  and  _8
REMARK    2  A    between atoms: _5  and  _6
REMARK    3  A    between atoms: _5  and  _14
REMARK    4  A    between atoms: _8  and  _9
REMARK    5  A    between atoms: _14  and  _16
REMARK    6  A    between atoms: _15  and  _20
REMARK    7  A    between atoms: _16  and  _19
REMARK    8  A    between atoms: _24  and  _34
REMARK    9  A    between atoms: _26  and  _27
REMARK   10  A    between atoms: _28  and  _30
REMARK   11  A    between atoms: _30  and  _32
REMARK   12  A    between atoms: _32  and  _34
REMARK                            x       y       z     vdW  Elec       q    Type
REMARK                         _______ _______ _______ _____ _____    ______ ____
ROOT
ATOM      1  C   UNL     1      27.970  17.832  -0.986  0.00  0.00    +0.400 C 
ATOM      2  N   UNL     1      27.198  17.628  -2.106  0.00  0.00    -0.278 N 
ATOM      3  H   UNL     1      26.227  17.954  -1.799  0.00  0.00    +0.152 HD
ATOM      4  O   UNL     1      27.478  18.454  -0.049  0.00  0.00    -0.226 OA
ENDROOT
BRANCH   2   5
ATOM      5  C   UNL     1      27.114  17.189  -3.496  0.00  0.00    +0.152 C 
BRANCH   5   6
ATOM      6  C   UNL     1      26.047  16.119  -3.808  0.00  0.00    +0.193 C 
ATOM      7  O   UNL     1      26.038  15.949  -5.243  0.00  0.00    -0.219 OA
BRANCH   6   8
ATOM      8  C   UNL     1      26.277  14.697  -3.253  0.00  0.00    +0.212 C 
ATOM      9  O   UNL     1      27.066  14.748  -2.053  0.00  0.00    -0.218 OA
BRANCH   8  10
ATOM     10  C   UNL     1      24.939  13.923  -2.943  0.00  0.00    +0.171 C 
ATOM     11  O   UNL     1      24.117  14.607  -2.003  0.00  0.00    -0.343 OA
ATOM     12  C   UNL     1      23.006  14.043  -1.371  0.00  0.00    +0.220 C 
ATOM     13  C   UNL     1      23.340  12.681  -0.737  0.00  0.00    +0.076 C 
ATOM     14  C   UNL     1      23.977  11.807  -1.830  0.00  0.00    +0.177 C 
ATOM     15  O   UNL     1      24.269  10.519  -1.307  0.00  0.00    -0.221 OA
ATOM     16  C   UNL     1      25.259  12.496  -2.391  0.00  0.00    +0.155 C 
BRANCH  16  17
ATOM     17  N   UNL     1      25.871  11.664  -3.425  0.00  0.00    -0.202 NA
ATOM     18  C   UNL     1      27.109  11.111  -3.473  0.00  0.00    +0.242 C 
ATOM     19  C   UNL     1      27.381  10.056  -4.514  0.00  0.00    +0.096 C 
ATOM     20  O   UNL     1      27.970  11.476  -2.675  0.00  0.00    -0.273 OA
ENDBRANCH  16  17
BRANCH  12  21
ATOM     21  C   UNL     1      21.695  13.952  -2.326  0.00  0.00    +0.391 C 
ATOM     22  O   UNL     1      20.893  13.047  -1.731  0.00  0.00    -0.243 OA
ATOM     23  O   UNL     1      21.767  15.001  -3.155  0.00  0.00    -0.243 OA
ENDBRANCH  12  21
ENDBRANCH   8  10
ENDBRANCH   6   8
ENDBRANCH   5   6
ENDBRANCH   2   5
BRANCH   1  24
ATOM     24  O   UNL     1      29.152  17.311  -1.020  0.00  0.00    -0.450 OA
BRANCH  24  25
ATOM     25  C   UNL     1      30.056  16.656  -0.160  0.00  0.00    +0.240 C 
BRANCH  25  26
ATOM     26  C   UNL     1      30.217  15.132  -0.325  0.00  0.00    +0.100 C 
BRANCH  26  28
ATOM     27  N   UNL     1      30.606  14.135   1.908  0.00  0.00    -0.134 NA
ATOM     28  C   UNL     1      29.745  14.432   0.884  0.00  0.00    +0.086 A 
ATOM     29  C   UNL     1      28.478  14.013   1.227  0.00  0.00    +0.134 A 
ATOM     30  N   UNL     1      28.622  13.522   2.493  0.00  0.00    -0.247 N 
ATOM     31  N   UNL     1      29.908  13.586   2.892  0.00  0.00    -0.065 NA
BRANCH  30  32
ATOM     32  C   UNL     1      27.572  13.221   3.450  0.00  0.00    +0.180 C 
BRANCH  32  33
ATOM     33  C   UNL     1      26.893  11.896   3.211  0.00  0.00    -0.026 A 
ATOM     34  C   UNL     1      25.698  11.819   2.480  0.00  0.00    +0.005 A 
ATOM     35  C   UNL     1      25.128  10.578   2.182  0.00  0.00    +0.000 A 
ATOM     36  C   UNL     1      25.745   9.404   2.609  0.00  0.00    +0.000 A 
ATOM     37  C   UNL     1      26.927   9.467   3.343  0.00  0.00    +0.000 A 
ATOM     38  C   UNL     1      27.499  10.706   3.642  0.00  0.00    +0.005 A 
ENDBRANCH  32  33
ENDBRANCH  30  32
ENDBRANCH  26  28
ENDBRANCH  25  26
ENDBRANCH  24  25
ENDBRANCH   1  24
TORSDOF 12
