REMARK VINA RESULT:    -5.838      2.578      4.949
REMARK INTER + INTRA:         -12.902
REMARK INTER:                 -10.344
REMARK INTRA:                  -2.558
REMARK UNBOUND:                -2.286
REMARK  Name = lig_assembled_62.pdb
REMARK  15 active torsions:
REMARK  status: ('A' for Active; 'I' for Inactive)
REMARK    1  A    between atoms: _2  and  _9
REMARK    2  A    between atoms: _5  and  _9
REMARK    3  A    between atoms: _6  and  _7
REMARK    4  A    between atoms: _6  and  _14
REMARK    5  A    between atoms: _9  and  _10
REMARK    6  A    between atoms: _10  and  _13
REMARK    7  A    between atoms: _11  and  _13
REMARK    8  A    between atoms: _14  and  _16
REMARK    9  A    between atoms: _15  and  _20
REMARK   10  A    between atoms: _16  and  _19
REMARK   11  A    between atoms: _24  and  _34
REMARK   12  A    between atoms: _26  and  _27
REMARK   13  A    between atoms: _28  and  _30
REMARK   14  A    between atoms: _30  and  _32
REMARK   15  A    between atoms: _32  and  _34
REMARK                            x       y       z     vdW  Elec       q    Type
REMARK                         _______ _______ _______ _____ _____    ______ ____
ROOT
ATOM      1  C   UNL     1      27.875  13.325   2.458  0.00  0.00    +0.400 C 
ATOM      2  N   UNL     1      28.277  14.347   1.630  0.00  0.00    -0.278 N 
ATOM      3  H   UNL     1      28.057  15.226   2.198  0.00  0.00    +0.152 HD
ATOM      4  O   UNL     1      27.568  13.603   3.614  0.00  0.00    -0.226 OA
ENDROOT
BRANCH   2   5
ATOM      5  C   UNL     1      28.868  14.760   0.360  0.00  0.00    +0.152 C 
BRANCH   5   6
ATOM      6  C   UNL     1      30.409  14.762   0.296  0.00  0.00    +0.193 C 
ATOM      7  O   UNL     1      30.872  15.497   1.451  0.00  0.00    -0.219 OA
BRANCH   6   8
ATOM      8  C   UNL     1      31.130  13.400   0.392  0.00  0.00    +0.212 C 
ATOM      9  O   UNL     1      30.278  12.346  -0.086  0.00  0.00    -0.218 OA
BRANCH   8  10
ATOM     10  C   UNL     1      32.487  13.353  -0.409  0.00  0.00    +0.171 C 
ATOM     11  O   UNL     1      32.384  12.606  -1.617  0.00  0.00    -0.343 OA
ATOM     12  C   UNL     1      33.476  12.202  -2.389  0.00  0.00    +0.220 C 
ATOM     13  C   UNL     1      34.546  11.496  -1.537  0.00  0.00    +0.076 C 
ATOM     14  C   UNL     1      34.892  12.428  -0.364  0.00  0.00    +0.177 C 
ATOM     15  O   UNL     1      35.909  11.839   0.435  0.00  0.00    -0.221 OA
ATOM     16  C   UNL     1      33.614  12.730   0.478  0.00  0.00    +0.155 C 
BRANCH  16  17
ATOM     17  N   UNL     1      33.940  13.609   1.598  0.00  0.00    -0.202 NA
ATOM     18  C   UNL     1      33.837  13.387   2.933  0.00  0.00    +0.242 C 
ATOM     19  C   UNL     1      34.518  14.350   3.872  0.00  0.00    +0.096 C 
ATOM     20  O   UNL     1      33.201  12.418   3.341  0.00  0.00    -0.273 OA
ENDBRANCH  16  17
BRANCH  12  21
ATOM     21  C   UNL     1      34.117  13.399  -3.281  0.00  0.00    +0.391 C 
ATOM     22  O   UNL     1      35.326  12.942  -3.659  0.00  0.00    -0.243 OA
ATOM     23  O   UNL     1      33.110  14.238  -3.551  0.00  0.00    -0.243 OA
ENDBRANCH  12  21
ENDBRANCH   8  10
ENDBRANCH   6   8
ENDBRANCH   5   6
ENDBRANCH   2   5
BRANCH   1  24
ATOM     24  O   UNL     1      27.831  12.152   1.917  0.00  0.00    -0.450 OA
BRANCH  24  25
ATOM     25  C   UNL     1      26.876  11.212   1.482  0.00  0.00    +0.240 C 
BRANCH  25  26
ATOM     26  C   UNL     1      27.008  10.679   0.042  0.00  0.00    +0.100 C 
BRANCH  26  28
ATOM     27  N   UNL     1      27.601  11.808  -2.081  0.00  0.00    -0.134 NA
ATOM     28  C   UNL     1      26.864  11.780  -0.927  0.00  0.00    +0.086 A 
ATOM     29  C   UNL     1      26.050  12.891  -0.890  0.00  0.00    +0.134 A 
ATOM     30  N   UNL     1      26.349  13.563  -2.040  0.00  0.00    -0.237 N 
ATOM     31  N   UNL     1      27.277  12.901  -2.756  0.00  0.00    -0.065 NA
BRANCH  30  32
ATOM     32  C   UNL     1      25.794  14.801  -2.558  0.00  0.00    +0.219 C 
BRANCH  32  33
ATOM     33  C   UNL     1      24.275  14.745  -2.548  0.00  0.00    +0.237 C 
ATOM     34  O   UNL     1      23.615  13.789  -2.950  0.00  0.00    -0.274 OA
ATOM     35  N   UNL     1      23.637  15.821  -1.993  0.00  0.00    -0.328 N 
ATOM     36  H   UNL     1      24.119  16.599  -1.560  0.00  0.00    +0.145 HD
ATOM     37  H   UNL     1      22.625  15.806  -1.964  0.00  0.00    +0.145 HD
ENDBRANCH  32  33
BRANCH  32  38
ATOM     38  C   UNL     1      26.321  15.085  -3.963  0.00  0.00    +0.195 C 
BRANCH  38  39
ATOM     39  O   UNL     1      26.006  16.436  -4.326  0.00  0.00    -0.380 OA
ATOM     40  C   UNL     1      26.710  17.376  -3.523  0.00  0.00    +0.194 C 
ENDBRANCH  38  39
ENDBRANCH  32  38
ENDBRANCH  30  32
ENDBRANCH  26  28
ENDBRANCH  25  26
ENDBRANCH  24  25
ENDBRANCH   1  24
TORSDOF 14
