REMARK VINA RESULT:    -6.404     23.520     26.578
REMARK INTER + INTRA:         -13.785
REMARK INTER:                 -11.458
REMARK INTRA:                  -2.327
REMARK UNBOUND:                -2.327
REMARK  Name = lig_assembled_68.pdb
REMARK  14 active torsions:
REMARK  status: ('A' for Active; 'I' for Inactive)
REMARK    1  A    between atoms: _2  and  _8
REMARK    2  A    between atoms: _5  and  _6
REMARK    3  A    between atoms: _5  and  _16
REMARK    4  A    between atoms: _8  and  _9
REMARK    5  A    between atoms: _9  and  _10
REMARK    6  A    between atoms: _9  and  _15
REMARK    7  A    between atoms: _16  and  _18
REMARK    8  A    between atoms: _17  and  _22
REMARK    9  A    between atoms: _18  and  _21
REMARK   10  A    between atoms: _26  and  _36
REMARK   11  A    between atoms: _28  and  _29
REMARK   12  A    between atoms: _30  and  _32
REMARK   13  A    between atoms: _32  and  _34
REMARK   14  A    between atoms: _34  and  _36
REMARK                            x       y       z     vdW  Elec       q    Type
REMARK                         _______ _______ _______ _____ _____    ______ ____
ROOT
ATOM      1  C   UNL     1      32.866  42.044   8.246  0.00  0.00    +0.400 C 
ATOM      2  N   UNL     1      33.815  41.318   7.566  0.00  0.00    -0.278 N 
ATOM      3  H   UNL     1      33.774  41.722   6.578  0.00  0.00    +0.152 HD
ATOM      4  O   UNL     1      32.372  43.020   7.686  0.00  0.00    -0.226 OA
ENDROOT
BRANCH   2   5
ATOM      5  C   UNL     1      34.839  40.277   7.592  0.00  0.00    +0.152 C 
BRANCH   5   6
ATOM      6  C   UNL     1      35.806  40.245   6.390  0.00  0.00    +0.193 C 
ATOM      7  O   UNL     1      36.998  39.561   6.835  0.00  0.00    -0.219 OA
BRANCH   6   8
ATOM      8  C   UNL     1      35.360  39.465   5.134  0.00  0.00    +0.212 C 
ATOM      9  O   UNL     1      33.929  39.341   5.102  0.00  0.00    -0.218 OA
BRANCH   8  10
ATOM     10  C   UNL     1      35.838  40.128   3.786  0.00  0.00    +0.171 C 
ATOM     11  O   UNL     1      34.752  40.515   2.950  0.00  0.00    -0.343 OA
ATOM     12  C   UNL     1      34.884  40.897   1.613  0.00  0.00    +0.220 C 
ATOM     13  C   UNL     1      35.702  39.874   0.806  0.00  0.00    +0.076 C 
ATOM     14  C   UNL     1      37.029  39.653   1.549  0.00  0.00    +0.177 C 
ATOM     15  O   UNL     1      37.843  38.743   0.822  0.00  0.00    -0.221 OA
ATOM     16  C   UNL     1      36.755  39.137   2.996  0.00  0.00    +0.155 C 
BRANCH  16  17
ATOM     17  N   UNL     1      38.014  38.919   3.704  0.00  0.00    -0.202 NA
ATOM     18  C   UNL     1      38.550  37.769   4.188  0.00  0.00    +0.242 C 
ATOM     19  C   UNL     1      39.995  37.777   4.613  0.00  0.00    +0.096 C 
ATOM     20  O   UNL     1      37.853  36.760   4.265  0.00  0.00    -0.273 OA
ENDBRANCH  16  17
BRANCH  12  21
ATOM     21  C   UNL     1      35.459  42.404   1.424  0.00  0.00    +0.391 C 
ATOM     22  O   UNL     1      36.081  42.391   0.229  0.00  0.00    -0.243 OA
ATOM     23  O   UNL     1      34.855  43.151   2.356  0.00  0.00    -0.243 OA
ENDBRANCH  12  21
ENDBRANCH   8  10
ENDBRANCH   6   8
ENDBRANCH   5   6
ENDBRANCH   2   5
BRANCH   1  24
ATOM     24  O   UNL     1      32.558  41.602   9.421  0.00  0.00    -0.450 OA
BRANCH  24  25
ATOM     25  C   UNL     1      31.696  40.661  10.017  0.00  0.00    +0.240 C 
BRANCH  25  26
ATOM     26  C   UNL     1      31.877  39.182   9.623  0.00  0.00    +0.100 C 
BRANCH  26  28
ATOM     27  N   UNL     1      31.389  39.075   7.194  0.00  0.00    -0.134 NA
ATOM     28  C   UNL     1      31.002  38.839   8.489  0.00  0.00    +0.086 A 
ATOM     29  C   UNL     1      29.746  38.279   8.485  0.00  0.00    +0.133 A 
ATOM     30  N   UNL     1      29.426  38.193   7.162  0.00  0.00    -0.249 N 
ATOM     31  N   UNL     1      30.411  38.682   6.389  0.00  0.00    -0.065 NA
BRANCH  30  32
ATOM     32  C   UNL     1      28.176  37.755   6.579  0.00  0.00    +0.181 C 
BRANCH  32  33
ATOM     33  C   UNL     1      28.159  36.245   6.311  0.00  0.00    +0.166 C 
BRANCH  33  34
ATOM     34  C   UNL     1      27.892  35.392   7.543  0.00  0.00    -0.017 A 
ATOM     35  C   UNL     1      28.955  34.664   8.107  0.00  0.00    +0.006 A 
ATOM     36  C   UNL     1      28.760  33.888   9.253  0.00  0.00    +0.000 A 
ATOM     37  C   UNL     1      27.507  33.833   9.853  0.00  0.00    +0.000 A 
ATOM     38  C   UNL     1      26.450  34.561   9.320  0.00  0.00    +0.000 A 
ATOM     39  C   UNL     1      26.641  35.340   8.174  0.00  0.00    +0.006 A 
ENDBRANCH  33  34
BRANCH  33  40
ATOM     40  O   UNL     1      29.426  35.853   5.769  0.00  0.00    -0.385 OA
ATOM     41  H   UNL     1      29.738  35.074   6.260  0.00  0.00    +0.210 HD
ENDBRANCH  33  40
ENDBRANCH  32  33
ENDBRANCH  30  32
ENDBRANCH  26  28
ENDBRANCH  25  26
ENDBRANCH  24  25
ENDBRANCH   1  24
TORSDOF 14
