REMARK VINA RESULT:    -6.464      2.145      2.950
REMARK INTER + INTRA:         -12.885
REMARK INTER:                 -11.356
REMARK INTRA:                  -1.529
REMARK UNBOUND:                -2.263
REMARK  Name = lig_assembled_52.pdb
REMARK  11 active torsions:
REMARK  status: ('A' for Active; 'I' for Inactive)
REMARK    1  A    between atoms: _2  and  _9
REMARK    2  A    between atoms: _6  and  _7
REMARK    3  A    between atoms: _6  and  _13
REMARK    4  A    between atoms: _13  and  _15
REMARK    5  A    between atoms: _14  and  _19
REMARK    6  A    between atoms: _15  and  _18
REMARK    7  A    between atoms: _23  and  _33
REMARK    8  A    between atoms: _25  and  _26
REMARK    9  A    between atoms: _27  and  _29
REMARK   10  A    between atoms: _29  and  _31
REMARK   11  A    between atoms: _31  and  _33
REMARK                            x       y       z     vdW  Elec       q    Type
REMARK                         _______ _______ _______ _____ _____    ______ ____
ROOT
ATOM      1  C   UNL     1      28.898  15.424  -0.140  0.00  0.00    +0.152 C 
ENDROOT
BRANCH   1   3
ATOM      2  C   UNL     1      27.595  17.601  -1.144  0.00  0.00    +0.400 C 
ATOM      3  N   UNL     1      28.427  16.777  -0.423  0.00  0.00    -0.278 N 
ATOM      4  H   UNL     1      28.946  17.453   0.222  0.00  0.00    +0.152 HD
ATOM      5  O   UNL     1      27.499  18.775  -0.796  0.00  0.00    -0.226 OA
BRANCH   2   6
ATOM      6  O   UNL     1      27.008  17.055  -2.158  0.00  0.00    -0.450 OA
BRANCH   6   7
ATOM      7  C   UNL     1      26.796  17.300  -3.529  0.00  0.00    +0.240 C 
BRANCH   7   8
ATOM      8  C   UNL     1      26.238  16.143  -4.379  0.00  0.00    +0.100 C 
BRANCH   8  10
ATOM      9  N   UNL     1      26.180  14.069  -3.032  0.00  0.00    -0.134 NA
ATOM     10  C   UNL     1      25.537  15.169  -3.521  0.00  0.00    +0.086 A 
ATOM     11  C   UNL     1      24.235  15.162  -3.076  0.00  0.00    +0.140 A 
ATOM     12  N   UNL     1      24.134  14.036  -2.291  0.00  0.00    -0.218 N 
ATOM     13  N   UNL     1      25.322  13.384  -2.290  0.00  0.00    -0.060 NA
BRANCH  12  14
ATOM     14  C   UNL     1      23.022  13.568  -1.560  0.00  0.00    +0.085 A 
ATOM     15  C   UNL     1      21.744  14.109  -1.727  0.00  0.00    +0.031 A 
ATOM     16  C   UNL     1      20.691  13.618  -0.959  0.00  0.00    +0.022 A 
ATOM     17  C   UNL     1      20.950  12.605  -0.052  0.00  0.00    +0.111 A 
ATOM     18  N   UNL     1      22.170  12.057   0.129  0.00  0.00    -0.261 NA
ATOM     19  C   UNL     1      23.183  12.548  -0.628  0.00  0.00    +0.138 A 
ENDBRANCH  12  14
ENDBRANCH   8  10
ENDBRANCH   7   8
ENDBRANCH   6   7
ENDBRANCH   2   6
ENDBRANCH   1   3
BRANCH   1  20
ATOM     20  C   UNL     1      30.427  15.221  -0.144  0.00  0.00    +0.193 C 
ATOM     21  O   UNL     1      31.020  16.538  -0.178  0.00  0.00    -0.219 OA
BRANCH  20  22
ATOM     22  C   UNL     1      31.062  14.544   1.090  0.00  0.00    +0.212 C 
ATOM     23  O   UNL     1      31.301  15.512   2.126  0.00  0.00    -0.218 OA
BRANCH  22  24
ATOM     24  C   UNL     1      30.184  13.377   1.683  0.00  0.00    +0.171 C 
ATOM     25  O   UNL     1      30.072  13.442   3.101  0.00  0.00    -0.343 OA
ATOM     26  C   UNL     1      29.565  12.415   3.899  0.00  0.00    +0.220 C 
ATOM     27  C   UNL     1      30.232  11.065   3.584  0.00  0.00    +0.076 C 
ATOM     28  C   UNL     1      30.108  10.830   2.069  0.00  0.00    +0.177 C 
ATOM     29  O   UNL     1      30.675   9.573   1.729  0.00  0.00    -0.221 OA
ATOM     30  C   UNL     1      30.793  11.992   1.287  0.00  0.00    +0.155 C 
BRANCH  30  31
ATOM     31  N   UNL     1      30.683  11.769  -0.153  0.00  0.00    -0.202 NA
ATOM     32  C   UNL     1      31.646  11.469  -1.060  0.00  0.00    +0.242 C 
ATOM     33  C   UNL     1      31.220  11.000  -2.427  0.00  0.00    +0.096 C 
ATOM     34  O   UNL     1      32.830  11.583  -0.750  0.00  0.00    -0.273 OA
ENDBRANCH  30  31
BRANCH  26  35
ATOM     35  C   UNL     1      27.944  12.303   3.859  0.00  0.00    +0.391 C 
ATOM     36  O   UNL     1      27.667  11.083   4.359  0.00  0.00    -0.243 OA
ATOM     37  O   UNL     1      27.494  13.544   3.637  0.00  0.00    -0.243 OA
ENDBRANCH  26  35
ENDBRANCH  22  24
ENDBRANCH  20  22
ENDBRANCH   1  20
TORSDOF 11
