REMARK VINA RESULT:    -7.023      2.053      3.599
REMARK INTER + INTRA:         -12.604
REMARK INTER:                 -11.238
REMARK INTRA:                  -1.366
REMARK UNBOUND:                -1.064
REMARK  Name = lig_assembled_27.pdb
REMARK  11 active torsions:
REMARK  status: ('A' for Active; 'I' for Inactive)
REMARK    1  A    between atoms: _2  and  _8
REMARK    2  A    between atoms: _5  and  _6
REMARK    3  A    between atoms: _5  and  _13
REMARK    4  A    between atoms: _13  and  _15
REMARK    5  A    between atoms: _14  and  _19
REMARK    6  A    between atoms: _15  and  _18
REMARK    7  A    between atoms: _23  and  _33
REMARK    8  A    between atoms: _25  and  _26
REMARK    9  A    between atoms: _27  and  _29
REMARK   10  A    between atoms: _29  and  _31
REMARK   11  A    between atoms: _31  and  _33
REMARK                            x       y       z     vdW  Elec       q    Type
REMARK                         _______ _______ _______ _____ _____    ______ ____
ROOT
ATOM      1  C   UNL     1      27.952  17.241  -0.999  0.00  0.00    +0.400 C 
ATOM      2  N   UNL     1      28.186  15.946  -0.599  0.00  0.00    -0.278 N 
ATOM      3  H   UNL     1      28.452  16.050   0.431  0.00  0.00    +0.152 HD
ATOM      4  O   UNL     1      27.914  18.115  -0.138  0.00  0.00    -0.226 OA
ENDROOT
BRANCH   1   5
ATOM      5  O   UNL     1      27.823  17.418  -2.273  0.00  0.00    -0.450 OA
BRANCH   5   6
ATOM      6  C   UNL     1      26.808  17.455  -3.249  0.00  0.00    +0.240 C 
BRANCH   6   7
ATOM      7  C   UNL     1      26.697  16.253  -4.206  0.00  0.00    +0.100 C 
BRANCH   7   9
ATOM      8  N   UNL     1      25.991  13.926  -3.746  0.00  0.00    -0.134 NA
ATOM      9  C   UNL     1      25.738  15.265  -3.679  0.00  0.00    +0.086 A 
ATOM     10  C   UNL     1      24.518  15.461  -3.072  0.00  0.00    +0.139 A 
ATOM     11  N   UNL     1      24.060  14.198  -2.774  0.00  0.00    -0.220 N 
ATOM     12  N   UNL     1      24.969  13.284  -3.195  0.00  0.00    -0.061 NA
BRANCH  11  13
ATOM     13  C   UNL     1      22.853  13.819  -2.132  0.00  0.00    +0.068 A 
ATOM     14  C   UNL     1      22.899  12.980  -1.007  0.00  0.00    +0.028 A 
ATOM     15  C   UNL     1      21.717  12.596  -0.368  0.00  0.00    +0.003 A 
ATOM     16  C   UNL     1      20.486  13.045  -0.846  0.00  0.00    +0.020 A 
ATOM     17  C   UNL     1      20.442  13.880  -1.960  0.00  0.00    +0.043 A 
ATOM     18 CL   UNL     1      18.922  14.436  -2.549  0.00  0.00    -0.083 Cl
ATOM     19  C   UNL     1      21.615  14.272  -2.607  0.00  0.00    +0.047 A 
ENDBRANCH  11  13
ENDBRANCH   7   9
ENDBRANCH   6   7
ENDBRANCH   5   6
ENDBRANCH   1   5
BRANCH   2  20
ATOM     20  C   UNL     1      28.218  14.526  -0.938  0.00  0.00    +0.152 C 
BRANCH  20  21
ATOM     21  C   UNL     1      28.525  13.557   0.222  0.00  0.00    +0.193 C 
ATOM     22  O   UNL     1      27.296  12.856   0.514  0.00  0.00    -0.219 OA
BRANCH  21  23
ATOM     23  C   UNL     1      29.556  12.436  -0.035  0.00  0.00    +0.212 C 
ATOM     24  O   UNL     1      29.381  11.887  -1.352  0.00  0.00    -0.218 OA
BRANCH  23  25
ATOM     25  C   UNL     1      31.050  12.914   0.117  0.00  0.00    +0.171 C 
ATOM     26  O   UNL     1      31.793  12.782  -1.090  0.00  0.00    -0.343 OA
ATOM     27  C   UNL     1      33.182  12.899  -1.177  0.00  0.00    +0.220 C 
ATOM     28  C   UNL     1      33.895  12.018  -0.137  0.00  0.00    +0.076 C 
ATOM     29  C   UNL     1      33.302  12.357   1.241  0.00  0.00    +0.177 C 
ATOM     30  O   UNL     1      33.956  11.596   2.247  0.00  0.00    -0.221 OA
ATOM     31  C   UNL     1      31.764  12.096   1.243  0.00  0.00    +0.155 C 
BRANCH  31  32
ATOM     32  N   UNL     1      31.198  12.410   2.552  0.00  0.00    -0.202 NA
ATOM     33  C   UNL     1      30.583  11.598   3.449  0.00  0.00    +0.242 C 
ATOM     34  C   UNL     1      30.357  12.116   4.846  0.00  0.00    +0.096 C 
ATOM     35  O   UNL     1      30.229  10.472   3.106  0.00  0.00    -0.273 OA
ENDBRANCH  31  32
BRANCH  27  36
ATOM     36  C   UNL     1      33.708  14.435  -1.119  0.00  0.00    +0.391 C 
ATOM     37  O   UNL     1      32.604  15.187  -1.294  0.00  0.00    -0.243 OA
ATOM     38  O   UNL     1      34.952  14.382  -0.628  0.00  0.00    -0.243 OA
ENDBRANCH  27  36
ENDBRANCH  23  25
ENDBRANCH  21  23
ENDBRANCH  20  21
ENDBRANCH   2  20
TORSDOF 11
