REMARK VINA RESULT:    -7.717      1.211      1.927
REMARK INTER + INTRA:         -15.050
REMARK INTER:                 -12.997
REMARK INTRA:                  -2.053
REMARK UNBOUND:                -1.919
REMARK  Name = lig_assembled_41.pdb
REMARK  13 active torsions:
REMARK  status: ('A' for Active; 'I' for Inactive)
REMARK    1  A    between atoms: _2  and  _8
REMARK    2  A    between atoms: _5  and  _6
REMARK    3  A    between atoms: _5  and  _16
REMARK    4  A    between atoms: _9  and  _10
REMARK    5  A    between atoms: _10  and  _11
REMARK    6  A    between atoms: _16  and  _18
REMARK    7  A    between atoms: _17  and  _22
REMARK    8  A    between atoms: _18  and  _21
REMARK    9  A    between atoms: _26  and  _36
REMARK   10  A    between atoms: _28  and  _29
REMARK   11  A    between atoms: _30  and  _32
REMARK   12  A    between atoms: _32  and  _34
REMARK   13  A    between atoms: _34  and  _36
REMARK                            x       y       z     vdW  Elec       q    Type
REMARK                         _______ _______ _______ _____ _____    ______ ____
ROOT
ATOM      1  C   UNL     1      27.684  17.432  -1.297  0.00  0.00    +0.400 C 
ATOM      2  N   UNL     1      28.076  16.271  -0.672  0.00  0.00    -0.278 N 
ATOM      3  H   UNL     1      28.372  16.602   0.300  0.00  0.00    +0.152 HD
ATOM      4  O   UNL     1      27.585  18.451  -0.617  0.00  0.00    -0.226 OA
ENDROOT
BRANCH   2   5
ATOM      5  C   UNL     1      28.251  14.823  -0.735  0.00  0.00    +0.152 C 
BRANCH   5   6
ATOM      6  C   UNL     1      29.322  14.226   0.202  0.00  0.00    +0.193 C 
ATOM      7  O   UNL     1      29.206  12.790   0.104  0.00  0.00    -0.219 OA
BRANCH   6   8
ATOM      8  C   UNL     1      30.802  14.517  -0.128  0.00  0.00    +0.212 C 
ATOM      9  O   UNL     1      31.060  15.930  -0.073  0.00  0.00    -0.218 OA
BRANCH   8  10
ATOM     10  C   UNL     1      31.812  13.783   0.835  0.00  0.00    +0.171 C 
ATOM     11  O   UNL     1      31.935  14.430   2.097  0.00  0.00    -0.343 OA
ATOM     12  C   UNL     1      32.927  14.141   3.037  0.00  0.00    +0.220 C 
ATOM     13  C   UNL     1      34.331  14.157   2.409  0.00  0.00    +0.076 C 
ATOM     14  C   UNL     1      34.303  13.220   1.190  0.00  0.00    +0.177 C 
ATOM     15  O   UNL     1      35.591  13.167   0.593  0.00  0.00    -0.221 OA
ATOM     16  C   UNL     1      33.225  13.700   0.168  0.00  0.00    +0.155 C 
BRANCH  16  17
ATOM     17  N   UNL     1      33.199  12.817  -0.995  0.00  0.00    -0.202 NA
ATOM     18  C   UNL     1      33.297  13.117  -2.315  0.00  0.00    +0.242 C 
ATOM     19  C   UNL     1      33.538  11.993  -3.288  0.00  0.00    +0.096 C 
ATOM     20  O   UNL     1      33.188  14.286  -2.681  0.00  0.00    -0.273 OA
ENDBRANCH  16  17
BRANCH  12  21
ATOM     21  C   UNL     1      32.657  12.767   3.861  0.00  0.00    +0.391 C 
ATOM     22  O   UNL     1      33.835  12.475   4.445  0.00  0.00    -0.243 OA
ATOM     23  O   UNL     1      31.327  12.613   3.898  0.00  0.00    -0.243 OA
ENDBRANCH  12  21
ENDBRANCH   8  10
ENDBRANCH   6   8
ENDBRANCH   5   6
ENDBRANCH   2   5
BRANCH   1  24
ATOM     24  O   UNL     1      27.483  17.342  -2.570  0.00  0.00    -0.450 OA
BRANCH  24  25
ATOM     25  C   UNL     1      26.413  17.353  -3.487  0.00  0.00    +0.240 C 
BRANCH  25  26
ATOM     26  C   UNL     1      26.266  16.139  -4.424  0.00  0.00    +0.100 C 
BRANCH  26  28
ATOM     27  N   UNL     1      24.825  14.150  -4.637  0.00  0.00    -0.134 NA
ATOM     28  C   UNL     1      25.283  15.186  -3.881  0.00  0.00    +0.086 A 
ATOM     29  C   UNL     1      24.699  15.126  -2.634  0.00  0.00    +0.139 A 
ATOM     30  N   UNL     1      23.799  14.088  -2.709  0.00  0.00    -0.219 N 
ATOM     31  N   UNL     1      23.966  13.456  -3.904  0.00  0.00    -0.061 NA
BRANCH  30  32
ATOM     32  C   UNL     1      22.889  13.573  -1.741  0.00  0.00    +0.077 A 
ATOM     33  C   UNL     1      23.173  12.513  -0.854  0.00  0.00    +0.043 A 
ATOM     34  C   UNL     1      22.159  12.070   0.020  0.00  0.00    +0.013 A 
ATOM     35  C   UNL     1      20.890  12.653   0.016  0.00  0.00    +0.001 A 
ATOM     36  C   UNL     1      20.618  13.712  -0.838  0.00  0.00    +0.002 A 
ATOM     37  C   UNL     1      21.611  14.175  -1.700  0.00  0.00    +0.028 A 
BRANCH  33  38
ATOM     38  C   UNL     1      24.544  11.960  -0.629  0.00  0.00    +0.162 C 
ATOM     39  O   UNL     1      25.354  12.610   0.030  0.00  0.00    -0.292 OA
ATOM     40  C   UNL     1      24.926  10.617  -1.201  0.00  0.00    +0.091 C 
ENDBRANCH  33  38
ENDBRANCH  30  32
ENDBRANCH  26  28
ENDBRANCH  25  26
ENDBRANCH  24  25
ENDBRANCH   1  24
TORSDOF 12
