REMARK VINA RESULT:    -7.627      1.646      2.347
REMARK INTER + INTRA:         -14.897
REMARK INTER:                 -13.122
REMARK INTRA:                  -1.774
REMARK UNBOUND:                -1.919
REMARK  Name = lig_assembled_41.pdb
REMARK  13 active torsions:
REMARK  status: ('A' for Active; 'I' for Inactive)
REMARK    1  A    between atoms: _2  and  _8
REMARK    2  A    between atoms: _5  and  _6
REMARK    3  A    between atoms: _5  and  _16
REMARK    4  A    between atoms: _9  and  _10
REMARK    5  A    between atoms: _10  and  _11
REMARK    6  A    between atoms: _16  and  _18
REMARK    7  A    between atoms: _17  and  _22
REMARK    8  A    between atoms: _18  and  _21
REMARK    9  A    between atoms: _26  and  _36
REMARK   10  A    between atoms: _28  and  _29
REMARK   11  A    between atoms: _30  and  _32
REMARK   12  A    between atoms: _32  and  _34
REMARK   13  A    between atoms: _34  and  _36
REMARK                            x       y       z     vdW  Elec       q    Type
REMARK                         _______ _______ _______ _____ _____    ______ ____
ROOT
ATOM      1  C   UNL     1      28.082  16.925  -0.791  0.00  0.00    +0.400 C 
ATOM      2  N   UNL     1      28.325  15.680  -0.260  0.00  0.00    -0.278 N 
ATOM      3  H   UNL     1      28.694  15.897   0.719  0.00  0.00    +0.152 HD
ATOM      4  O   UNL     1      28.150  17.897  -0.043  0.00  0.00    -0.226 OA
ENDROOT
BRANCH   2   5
ATOM      5  C   UNL     1      28.292  14.230  -0.425  0.00  0.00    +0.152 C 
BRANCH   5   6
ATOM      6  C   UNL     1      28.006  13.408   0.849  0.00  0.00    +0.193 C 
ATOM      7  O   UNL     1      28.546  12.087   0.621  0.00  0.00    -0.219 OA
BRANCH   6   8
ATOM      8  C   UNL     1      28.668  13.873   2.164  0.00  0.00    +0.212 C 
ATOM      9  O   UNL     1      27.688  13.979   3.209  0.00  0.00    -0.218 OA
BRANCH   8  10
ATOM     10  C   UNL     1      29.825  12.921   2.652  0.00  0.00    +0.171 C 
ATOM     11  O   UNL     1      29.621  12.448   3.980  0.00  0.00    -0.343 OA
ATOM     12  C   UNL     1      30.594  11.795   4.742  0.00  0.00    +0.220 C 
ATOM     13  C   UNL     1      31.920  12.575   4.763  0.00  0.00    +0.076 C 
ATOM     14  C   UNL     1      32.318  12.850   3.303  0.00  0.00    +0.177 C 
ATOM     15  O   UNL     1      33.562  13.535   3.264  0.00  0.00    -0.221 OA
ATOM     16  C   UNL     1      31.198  13.665   2.585  0.00  0.00    +0.155 C 
BRANCH  16  17
ATOM     17  N   UNL     1      31.576  13.935   1.200  0.00  0.00    -0.202 NA
ATOM     18  C   UNL     1      31.648  15.115   0.534  0.00  0.00    +0.242 C 
ATOM     19  C   UNL     1      32.348  15.143  -0.800  0.00  0.00    +0.096 C 
ATOM     20  O   UNL     1      31.147  16.123   1.028  0.00  0.00    -0.273 OA
ENDBRANCH  16  17
BRANCH  12  21
ATOM     21  C   UNL     1      30.819  10.245   4.312  0.00  0.00    +0.391 C 
ATOM     22  O   UNL     1      29.934  10.027   3.320  0.00  0.00    -0.243 OA
ATOM     23  O   UNL     1      31.973   9.869   4.878  0.00  0.00    -0.243 OA
ENDBRANCH  12  21
ENDBRANCH   8  10
ENDBRANCH   6   8
ENDBRANCH   5   6
ENDBRANCH   2   5
BRANCH   1  24
ATOM     24  O   UNL     1      27.832  16.954  -2.059  0.00  0.00    -0.450 OA
BRANCH  24  25
ATOM     25  C   UNL     1      26.859  17.457  -2.945  0.00  0.00    +0.240 C 
BRANCH  25  26
ATOM     26  C   UNL     1      26.496  16.594  -4.168  0.00  0.00    +0.100 C 
BRANCH  26  28
ATOM     27  N   UNL     1      24.774  14.956  -4.826  0.00  0.00    -0.134 NA
ATOM     28  C   UNL     1      25.359  15.711  -3.855  0.00  0.00    +0.086 A 
ATOM     29  C   UNL     1      24.728  15.467  -2.654  0.00  0.00    +0.139 A 
ATOM     30  N   UNL     1      23.682  14.628  -2.963  0.00  0.00    -0.219 N 
ATOM     31  N   UNL     1      23.793  14.261  -4.270  0.00  0.00    -0.061 NA
BRANCH  30  32
ATOM     32  C   UNL     1      22.669  14.060  -2.137  0.00  0.00    +0.077 A 
ATOM     33  C   UNL     1      21.329  14.498  -2.094  0.00  0.00    +0.043 A 
ATOM     34  C   UNL     1      20.441  13.876  -1.191  0.00  0.00    +0.013 A 
ATOM     35  C   UNL     1      20.868  12.851  -0.343  0.00  0.00    +0.001 A 
ATOM     36  C   UNL     1      22.179  12.404  -0.402  0.00  0.00    +0.002 A 
ATOM     37  C   UNL     1      23.068  12.995  -1.299  0.00  0.00    +0.028 A 
BRANCH  33  38
ATOM     38  C   UNL     1      20.726  15.436  -3.089  0.00  0.00    +0.162 C 
ATOM     39  O   UNL     1      21.283  16.507  -3.321  0.00  0.00    -0.292 OA
ATOM     40  C   UNL     1      19.448  15.070  -3.804  0.00  0.00    +0.091 C 
ENDBRANCH  33  38
ENDBRANCH  30  32
ENDBRANCH  26  28
ENDBRANCH  25  26
ENDBRANCH  24  25
ENDBRANCH   1  24
TORSDOF 12
