REMARK VINA RESULT:    -7.213      1.695      2.856
REMARK INTER + INTRA:         -13.701
REMARK INTER:                 -12.061
REMARK INTRA:                  -1.640
REMARK UNBOUND:                -1.850
REMARK  Name = lig_assembled_2.pdb
REMARK  11 active torsions:
REMARK  status: ('A' for Active; 'I' for Inactive)
REMARK    1  A    between atoms: _2  and  _8
REMARK    2  A    between atoms: _5  and  _6
REMARK    3  A    between atoms: _5  and  _13
REMARK    4  A    between atoms: _13  and  _15
REMARK    5  A    between atoms: _14  and  _19
REMARK    6  A    between atoms: _15  and  _18
REMARK    7  A    between atoms: _23  and  _33
REMARK    8  A    between atoms: _25  and  _26
REMARK    9  A    between atoms: _27  and  _29
REMARK   10  A    between atoms: _29  and  _31
REMARK   11  A    between atoms: _31  and  _33
REMARK                            x       y       z     vdW  Elec       q    Type
REMARK                         _______ _______ _______ _____ _____    ______ ____
ROOT
ATOM      1  C   UNL     1      28.191  17.220  -0.673  0.00  0.00    +0.400 C 
ATOM      2  N   UNL     1      28.914  16.221  -0.065  0.00  0.00    -0.278 N 
ATOM      3  H   UNL     1      29.092  16.606   0.916  0.00  0.00    +0.152 HD
ATOM      4  O   UNL     1      27.785  18.147   0.023  0.00  0.00    -0.226 OA
ENDROOT
BRANCH   1   5
ATOM      5  O   UNL     1      28.033  17.099  -1.950  0.00  0.00    -0.450 OA
BRANCH   5   6
ATOM      6  C   UNL     1      27.035  17.291  -2.926  0.00  0.00    +0.240 C 
BRANCH   6   7
ATOM      7  C   UNL     1      26.556  16.052  -3.707  0.00  0.00    +0.100 C 
BRANCH   7   9
ATOM      8  N   UNL     1      24.186  15.769  -3.056  0.00  0.00    -0.134 NA
ATOM      9  C   UNL     1      25.485  15.362  -2.964  0.00  0.00    +0.086 A 
ATOM     10  C   UNL     1      25.557  14.275  -2.123  0.00  0.00    +0.139 A 
ATOM     11  N   UNL     1      24.257  14.034  -1.742  0.00  0.00    -0.220 N 
ATOM     12  N   UNL     1      23.447  14.963  -2.306  0.00  0.00    -0.061 NA
BRANCH  11  13
ATOM     13  C   UNL     1      23.750  12.990  -0.924  0.00  0.00    +0.067 A 
ATOM     14  C   UNL     1      24.616  12.159  -0.198  0.00  0.00    +0.029 A 
ATOM     15  C   UNL     1      24.097  11.112   0.573  0.00  0.00    +0.022 A 
ATOM     16  C   UNL     1      22.722  10.894   0.621  0.00  0.00    +0.041 A 
ATOM     17 CL   UNL     1      22.096   9.592   1.553  0.00  0.00    -0.084 Cl
ATOM     18  C   UNL     1      21.854  11.724  -0.086  0.00  0.00    +0.022 A 
ATOM     19  C   UNL     1      22.363  12.772  -0.857  0.00  0.00    +0.029 A 
ENDBRANCH  11  13
ENDBRANCH   7   9
ENDBRANCH   6   7
ENDBRANCH   5   6
ENDBRANCH   1   5
BRANCH   2  20
ATOM     20  C   UNL     1      29.522  14.895  -0.152  0.00  0.00    +0.152 C 
BRANCH  20  21
ATOM     21  C   UNL     1      31.060  14.845  -0.049  0.00  0.00    +0.193 C 
ATOM     22  O   UNL     1      31.554  16.085  -0.600  0.00  0.00    -0.219 OA
BRANCH  21  23
ATOM     23  C   UNL     1      31.679  14.777   1.365  0.00  0.00    +0.212 C 
ATOM     24  O   UNL     1      31.234  15.887   2.161  0.00  0.00    -0.218 OA
BRANCH  23  25
ATOM     25  C   UNL     1      31.344  13.441   2.130  0.00  0.00    +0.171 C 
ATOM     26  O   UNL     1      30.123  13.518   2.859  0.00  0.00    -0.343 OA
ATOM     27  C   UNL     1      29.711  12.581   3.809  0.00  0.00    +0.220 C 
ATOM     28  C   UNL     1      30.812  12.299   4.846  0.00  0.00    +0.076 C 
ATOM     29  C   UNL     1      32.088  11.922   4.076  0.00  0.00    +0.177 C 
ATOM     30  O   UNL     1      33.129  11.612   4.991  0.00  0.00    -0.221 OA
ATOM     31  C   UNL     1      32.502  13.084   3.120  0.00  0.00    +0.155 C 
BRANCH  31  32
ATOM     32  N   UNL     1      33.718  12.732   2.391  0.00  0.00    -0.202 NA
ATOM     33  C   UNL     1      34.947  13.308   2.425  0.00  0.00    +0.242 C 
ATOM     34  C   UNL     1      36.100  12.568   1.799  0.00  0.00    +0.096 C 
ATOM     35  O   UNL     1      35.089  14.405   2.960  0.00  0.00    -0.273 OA
ENDBRANCH  31  32
BRANCH  27  36
ATOM     36  C   UNL     1      29.139  11.207   3.157  0.00  0.00    +0.391 C 
ATOM     37  O   UNL     1      29.084  10.333   4.181  0.00  0.00    -0.243 OA
ATOM     38  O   UNL     1      28.664  11.540   1.951  0.00  0.00    -0.243 OA
ENDBRANCH  27  36
ENDBRANCH  23  25
ENDBRANCH  21  23
ENDBRANCH  20  21
ENDBRANCH   2  20
TORSDOF 11
