REMARK VINA RESULT:    -5.987      3.351      4.155
REMARK INTER + INTRA:         -12.785
REMARK INTER:                 -10.097
REMARK INTRA:                  -2.688
REMARK UNBOUND:                -2.422
REMARK  Name = lig_assembled_53.pdb
REMARK  13 active torsions:
REMARK  status: ('A' for Active; 'I' for Inactive)
REMARK    1  A    between atoms: _2  and  _8
REMARK    2  A    between atoms: _4  and  _8
REMARK    3  A    between atoms: _4  and  _9
REMARK    4  A    between atoms: _5  and  _6
REMARK    5  A    between atoms: _5  and  _11
REMARK    6  A    between atoms: _11  and  _13
REMARK    7  A    between atoms: _12  and  _17
REMARK    8  A    between atoms: _13  and  _16
REMARK    9  A    between atoms: _21  and  _31
REMARK   10  A    between atoms: _23  and  _24
REMARK   11  A    between atoms: _25  and  _27
REMARK   12  A    between atoms: _27  and  _29
REMARK   13  A    between atoms: _29  and  _31
REMARK                            x       y       z     vdW  Elec       q    Type
REMARK                         _______ _______ _______ _____ _____    ______ ____
ROOT
ATOM      1  C   UNL     1      29.053  15.117  -0.318  0.00  0.00    +0.152 C 
ENDROOT
BRANCH   1   3
ATOM      2  C   UNL     1      27.880  17.483  -1.005  0.00  0.00    +0.400 C 
ATOM      3  N   UNL     1      28.514  16.474  -0.318  0.00  0.00    -0.278 N 
ATOM      4  H   UNL     1      28.660  16.891   0.655  0.00  0.00    +0.152 HD
ATOM      5  O   UNL     1      27.488  18.458  -0.370  0.00  0.00    -0.226 OA
BRANCH   2   6
ATOM      6  O   UNL     1      27.784  17.315  -2.283  0.00  0.00    -0.450 OA
BRANCH   6   7
ATOM      7  C   UNL     1      26.801  17.335  -3.292  0.00  0.00    +0.240 C 
BRANCH   7   8
ATOM      8  C   UNL     1      26.606  16.050  -4.120  0.00  0.00    +0.100 C 
BRANCH   8  10
ATOM      9  N   UNL     1      26.941  13.759  -3.241  0.00  0.00    -0.134 NA
ATOM     10  C   UNL     1      26.226  14.926  -3.245  0.00  0.00    +0.086 A 
ATOM     11  C   UNL     1      25.188  14.820  -2.346  0.00  0.00    +0.134 A 
ATOM     12  N   UNL     1      25.282  13.545  -1.876  0.00  0.00    -0.241 N 
ATOM     13  N   UNL     1      26.367  12.926  -2.383  0.00  0.00    -0.065 NA
BRANCH  12  14
ATOM     14  C   UNL     1      24.520  12.867  -0.849  0.00  0.00    +0.265 C 
BRANCH  14  15
ATOM     15  C   UNL     1      25.337  12.133   0.180  0.00  0.00    +0.326 C 
ATOM     16  O   UNL     1      25.142  11.002   0.598  0.00  0.00    -0.249 OA
BRANCH  15  17
ATOM     17  O   UNL     1      26.370  12.881   0.653  0.00  0.00    -0.479 OA
ATOM     18  H   UNL     1      27.174  12.388   0.906  0.00  0.00    +0.295 HD
ENDBRANCH  15  17
ENDBRANCH  14  15
ENDBRANCH  12  14
ENDBRANCH   8  10
ENDBRANCH   7   8
ENDBRANCH   6   7
ENDBRANCH   2   6
ENDBRANCH   1   3
BRANCH   1  19
ATOM     19  C   UNL     1      30.584  14.993  -0.174  0.00  0.00    +0.193 C 
ATOM     20  O   UNL     1      31.115  16.336  -0.217  0.00  0.00    -0.219 OA
BRANCH  19  21
ATOM     21  C   UNL     1      31.133  14.403   1.144  0.00  0.00    +0.212 C 
ATOM     22  O   UNL     1      31.266  15.433   2.137  0.00  0.00    -0.218 OA
BRANCH  21  23
ATOM     23  C   UNL     1      30.235  13.249   1.733  0.00  0.00    +0.171 C 
ATOM     24  O   UNL     1      30.013  13.388   3.133  0.00  0.00    -0.343 OA
ATOM     25  C   UNL     1      29.467  12.393   3.947  0.00  0.00    +0.220 C 
ATOM     26  C   UNL     1      30.184  11.044   3.758  0.00  0.00    +0.076 C 
ATOM     27  C   UNL     1      30.180  10.725   2.254  0.00  0.00    +0.177 C 
ATOM     28  O   UNL     1      30.797   9.466   2.028  0.00  0.00    -0.221 OA
ATOM     29  C   UNL     1      30.900  11.860   1.462  0.00  0.00    +0.155 C 
BRANCH  29  30
ATOM     30  N   UNL     1      30.905  11.557   0.033  0.00  0.00    -0.202 NA
ATOM     31  C   UNL     1      29.870  11.483  -0.842  0.00  0.00    +0.242 C 
ATOM     32  C   UNL     1      30.180  11.444  -2.316  0.00  0.00    +0.096 C 
ATOM     33  O   UNL     1      28.716  11.452  -0.417  0.00  0.00    -0.273 OA
ENDBRANCH  29  30
BRANCH  25  34
ATOM     34  C   UNL     1      27.857  12.240   3.791  0.00  0.00    +0.391 C 
ATOM     35  O   UNL     1      27.577  11.011   4.267  0.00  0.00    -0.243 OA
ATOM     36  O   UNL     1      27.392  13.470   3.540  0.00  0.00    -0.243 OA
ENDBRANCH  25  34
ENDBRANCH  21  23
ENDBRANCH  19  21
ENDBRANCH   1  19
TORSDOF 13
