REMARK VINA RESULT:    -7.256      3.030      8.732
REMARK INTER + INTRA:         -13.849
REMARK INTER:                 -11.839
REMARK INTRA:                  -2.010
REMARK UNBOUND:                -1.503
REMARK  Name = lig_assembled_89.pdb
REMARK  14 active torsions:
REMARK  status: ('A' for Active; 'I' for Inactive)
REMARK    1  A    between atoms: _2  and  _11
REMARK    2  A    between atoms: _5  and  _19
REMARK    3  A    between atoms: _8  and  _9
REMARK    4  A    between atoms: _8  and  _24
REMARK    5  A    between atoms: _19  and  _20
REMARK    6  A    between atoms: _19  and  _21
REMARK    7  A    between atoms: _24  and  _26
REMARK    8  A    between atoms: _25  and  _30
REMARK    9  A    between atoms: _26  and  _29
REMARK   10  A    between atoms: _34  and  _44
REMARK   11  A    between atoms: _36  and  _37
REMARK   12  A    between atoms: _38  and  _40
REMARK   13  A    between atoms: _40  and  _42
REMARK   14  A    between atoms: _42  and  _44
REMARK                            x       y       z     vdW  Elec       q    Type
REMARK                         _______ _______ _______ _____ _____    ______ ____
ROOT
ATOM      1  C   UNL     1      26.642  16.520  -3.730  0.00  0.00    +0.240 C 
ENDROOT
BRANCH   1   2
ATOM      2  C   UNL     1      27.103  17.169  -2.411  0.00  0.00    +0.100 C 
BRANCH   2   4
ATOM      3  N   UNL     1      27.797  14.863  -1.885  0.00  0.00    -0.134 NA
ATOM      4  C   UNL     1      27.849  16.194  -1.598  0.00  0.00    +0.087 A 
ATOM      5  C   UNL     1      28.678  16.387  -0.519  0.00  0.00    +0.141 A 
ATOM      6  N   UNL     1      29.141  15.129  -0.188  0.00  0.00    -0.200 N 
ATOM      7  N   UNL     1      28.587  14.227  -1.032  0.00  0.00    -0.059 NA
BRANCH   6   8
ATOM      8  C   UNL     1      30.116  14.837   0.811  0.00  0.00    +0.186 A 
ATOM      9  C   UNL     1      30.022  14.025   1.924  0.00  0.00    +0.158 A 
ATOM     10  C   UNL     1      28.937  13.321   2.534  0.00  0.00    +0.280 A 
ATOM     11  O   UNL     1      27.767  13.610   2.324  0.00  0.00    -0.265 OA
ATOM     12  N   UNL     1      29.312  12.292   3.422  0.00  0.00    -0.302 N 
ATOM     13  C   UNL     1      30.635  12.283   4.006  0.00  0.00    +0.069 A 
ATOM     14  C   UNL     1      30.979  11.463   5.090  0.00  0.00    +0.028 A 
ATOM     15  C   UNL     1      32.257  11.517   5.665  0.00  0.00    +0.002 A 
ATOM     16  C   UNL     1      33.222  12.382   5.161  0.00  0.00    +0.002 A 
ATOM     17  C   UNL     1      32.919  13.201   4.077  0.00  0.00    +0.028 A 
ATOM     18  C   UNL     1      31.634  13.153   3.516  0.00  0.00    +0.072 A 
ATOM     19  N   UNL     1      31.294  13.971   2.426  0.00  0.00    -0.291 N 
ATOM     20  C   UNL     1      32.067  14.823   1.680  0.00  0.00    +0.207 A 
ATOM     21  N   UNL     1      31.390  15.357   0.686  0.00  0.00    -0.216 NA
BRANCH  12  22
ATOM     22  C   UNL     1      28.259  11.360   3.888  0.00  0.00    +0.085 C 
ATOM     23  C   UNL     1      28.228  11.173   5.417  0.00  0.00    +0.030 C 
ATOM     24  C   UNL     1      28.349  10.005   3.184  0.00  0.00    +0.030 C 
ENDBRANCH  12  22
ENDBRANCH   6   8
ENDBRANCH   2   4
ENDBRANCH   1   2
BRANCH   1  25
ATOM     25  O   UNL     1      25.283  16.165  -3.840  0.00  0.00    -0.450 OA
BRANCH  25  26
ATOM     26  C   UNL     1      24.423  15.389  -3.265  0.00  0.00    +0.400 C 
ATOM     27  N   UNL     1      24.784  14.065  -3.174  0.00  0.00    -0.278 N 
ATOM     28  H   UNL     1      24.052  13.654  -2.512  0.00  0.00    +0.152 HD
ATOM     29  O   UNL     1      23.349  15.731  -2.779  0.00  0.00    -0.226 OA
BRANCH  27  30
ATOM     30  C   UNL     1      25.688  12.991  -3.577  0.00  0.00    +0.152 C 
BRANCH  30  31
ATOM     31  C   UNL     1      25.629  11.701  -2.734  0.00  0.00    +0.193 C 
ATOM     32  O   UNL     1      26.990  11.237  -2.589  0.00  0.00    -0.219 OA
BRANCH  31  33
ATOM     33  C   UNL     1      25.106  11.816  -1.285  0.00  0.00    +0.212 C 
ATOM     34  O   UNL     1      25.422  13.107  -0.739  0.00  0.00    -0.218 OA
BRANCH  33  35
ATOM     35  C   UNL     1      23.551  11.585  -1.163  0.00  0.00    +0.171 C 
ATOM     36  O   UNL     1      22.797  12.505  -1.946  0.00  0.00    -0.343 OA
ATOM     37  C   UNL     1      21.416  12.684  -1.838  0.00  0.00    +0.220 C 
ATOM     38  C   UNL     1      20.982  12.907  -0.379  0.00  0.00    +0.076 C 
ATOM     39  C   UNL     1      21.551  11.747   0.455  0.00  0.00    +0.177 C 
ATOM     40  O   UNL     1      21.144  11.882   1.809  0.00  0.00    -0.221 OA
ATOM     41  C   UNL     1      23.106  11.708   0.331  0.00  0.00    +0.155 C 
BRANCH  41  42
ATOM     42  N   UNL     1      23.651  10.611   1.127  0.00  0.00    -0.202 NA
ATOM     43  C   UNL     1      24.454  10.649   2.221  0.00  0.00    +0.242 C 
ATOM     44  C   UNL     1      24.628   9.386   3.024  0.00  0.00    +0.096 C 
ATOM     45  O   UNL     1      25.013  11.700   2.528  0.00  0.00    -0.273 OA
ENDBRANCH  41  42
BRANCH  37  46
ATOM     46  C   UNL     1      20.553  11.503  -2.545  0.00  0.00    +0.391 C 
ATOM     47  O   UNL     1      19.597  12.143  -3.246  0.00  0.00    -0.243 OA
ATOM     48  O   UNL     1      21.280  10.386  -2.416  0.00  0.00    -0.243 OA
ENDBRANCH  37  46
ENDBRANCH  33  35
ENDBRANCH  31  33
ENDBRANCH  30  31
ENDBRANCH  27  30
ENDBRANCH  25  26
ENDBRANCH   1  25
TORSDOF 12
