REMARK VINA RESULT:    -6.230      2.746      5.750
REMARK INTER + INTRA:         -12.440
REMARK INTER:                 -10.700
REMARK INTRA:                  -1.740
REMARK UNBOUND:                -1.839
REMARK  Name = lig_assembled_61.pdb
REMARK  12 active torsions:
REMARK  status: ('A' for Active; 'I' for Inactive)
REMARK    1  A    between atoms: _2  and  _8
REMARK    2  A    between atoms: _5  and  _6
REMARK    3  A    between atoms: _5  and  _12
REMARK    4  A    between atoms: _8  and  _9
REMARK    5  A    between atoms: _12  and  _14
REMARK    6  A    between atoms: _13  and  _18
REMARK    7  A    between atoms: _14  and  _17
REMARK    8  A    between atoms: _22  and  _32
REMARK    9  A    between atoms: _24  and  _25
REMARK   10  A    between atoms: _26  and  _28
REMARK   11  A    between atoms: _28  and  _30
REMARK   12  A    between atoms: _30  and  _32
REMARK                            x       y       z     vdW  Elec       q    Type
REMARK                         _______ _______ _______ _____ _____    ______ ____
ROOT
ATOM      1  C   UNL     1      32.818  12.611   0.780  0.00  0.00    +0.152 C 
ENDROOT
BRANCH   1   3
ATOM      2  C   UNL     1      32.597  14.846  -0.770  0.00  0.00    +0.400 C 
ATOM      3  N   UNL     1      33.038  13.678  -0.193  0.00  0.00    -0.278 N 
ATOM      4  H   UNL     1      33.966  13.493  -0.689  0.00  0.00    +0.152 HD
ATOM      5  O   UNL     1      33.369  15.456  -1.506  0.00  0.00    -0.226 OA
BRANCH   2   6
ATOM      6  O   UNL     1      31.377  15.178  -0.501  0.00  0.00    -0.450 OA
BRANCH   6   7
ATOM      7  C   UNL     1      30.641  16.311  -0.104  0.00  0.00    +0.240 C 
BRANCH   7   8
ATOM      8  C   UNL     1      29.147  16.113   0.216  0.00  0.00    +0.100 C 
BRANCH   8  10
ATOM      9  N   UNL     1      27.951  18.018  -0.816  0.00  0.00    -0.134 NA
ATOM     10  C   UNL     1      28.311  16.696  -0.849  0.00  0.00    +0.086 A 
ATOM     11  C   UNL     1      27.773  16.110  -1.976  0.00  0.00    +0.134 A 
ATOM     12  N   UNL     1      27.051  17.113  -2.551  0.00  0.00    -0.247 N 
ATOM     13  N   UNL     1      27.194  18.268  -1.876  0.00  0.00    -0.065 NA
BRANCH  12  14
ATOM     14  C   UNL     1      26.240  17.060  -3.755  0.00  0.00    +0.180 C 
BRANCH  14  15
ATOM     15  C   UNL     1      25.304  15.883  -3.744  0.00  0.00    -0.019 A 
ATOM     16  C   UNL     1      24.531  15.467  -2.606  0.00  0.00    +0.013 A 
ATOM     17  C   UNL     1      23.785  14.335  -2.853  0.00  0.00    +0.045 A 
ATOM     18  S   UNL     1      23.991  13.768  -4.450  0.00  0.00    -0.105 S 
ATOM     19  C   UNL     1      25.089  15.027  -4.812  0.00  0.00    +0.050 A 
ENDBRANCH  14  15
ENDBRANCH  12  14
ENDBRANCH   8  10
ENDBRANCH   7   8
ENDBRANCH   6   7
ENDBRANCH   2   6
ENDBRANCH   1   3
BRANCH   1  20
ATOM     20  C   UNL     1      33.117  12.962   2.252  0.00  0.00    +0.193 C 
ATOM     21  O   UNL     1      34.175  13.947   2.238  0.00  0.00    -0.219 OA
BRANCH  20  22
ATOM     22  C   UNL     1      31.987  13.622   3.073  0.00  0.00    +0.212 C 
ATOM     23  O   UNL     1      31.839  15.003   2.703  0.00  0.00    -0.218 OA
BRANCH  22  24
ATOM     24  C   UNL     1      30.594  12.904   2.908  0.00  0.00    +0.171 C 
ATOM     25  O   UNL     1      29.577  13.782   2.439  0.00  0.00    -0.343 OA
ATOM     26  C   UNL     1      28.213  13.479   2.436  0.00  0.00    +0.220 C 
ATOM     27  C   UNL     1      27.739  12.967   3.808  0.00  0.00    +0.076 C 
ATOM     28  C   UNL     1      28.660  11.804   4.211  0.00  0.00    +0.177 C 
ATOM     29  O   UNL     1      28.240  11.267   5.457  0.00  0.00    -0.221 OA
ATOM     30  C   UNL     1      30.142  12.289   4.274  0.00  0.00    +0.155 C 
BRANCH  30  31
ATOM     31  N   UNL     1      31.020  11.188   4.664  0.00  0.00    -0.202 NA
ATOM     32  C   UNL     1      31.831  11.067   5.745  0.00  0.00    +0.242 C 
ATOM     33  C   UNL     1      32.402   9.709   6.062  0.00  0.00    +0.096 C 
ATOM     34  O   UNL     1      32.077  12.055   6.434  0.00  0.00    -0.273 OA
ENDBRANCH  30  31
BRANCH  26  35
ATOM     35  C   UNL     1      27.778  12.469   1.240  0.00  0.00    +0.391 C 
ATOM     36  O   UNL     1      26.490  12.165   1.493  0.00  0.00    -0.243 OA
ATOM     37  O   UNL     1      28.739  12.559   0.312  0.00  0.00    -0.243 OA
ENDBRANCH  26  35
ENDBRANCH  22  24
ENDBRANCH  20  22
ENDBRANCH   1  20
TORSDOF 12
