REMARK VINA RESULT:    -6.873      2.399      8.369
REMARK INTER + INTRA:         -13.239
REMARK INTER:                 -10.911
REMARK INTRA:                  -2.328
REMARK UNBOUND:                -1.544
REMARK  Name = lig_assembled_69.pdb
REMARK  13 active torsions:
REMARK  status: ('A' for Active; 'I' for Inactive)
REMARK    1  A    between atoms: _2  and  _8
REMARK    2  A    between atoms: _5  and  _6
REMARK    3  A    between atoms: _5  and  _16
REMARK    4  A    between atoms: _10  and  _15
REMARK    5  A    between atoms: _13  and  _14
REMARK    6  A    between atoms: _16  and  _18
REMARK    7  A    between atoms: _17  and  _22
REMARK    8  A    between atoms: _18  and  _21
REMARK    9  A    between atoms: _26  and  _36
REMARK   10  A    between atoms: _28  and  _29
REMARK   11  A    between atoms: _30  and  _32
REMARK   12  A    between atoms: _32  and  _34
REMARK   13  A    between atoms: _34  and  _36
REMARK                            x       y       z     vdW  Elec       q    Type
REMARK                         _______ _______ _______ _____ _____    ______ ____
ROOT
ATOM      1  C   UNL     1      27.849  17.365  -1.229  0.00  0.00    +0.400 C 
ATOM      2  N   UNL     1      28.119  16.220  -0.517  0.00  0.00    -0.278 N 
ATOM      3  H   UNL     1      28.353  16.585   0.460  0.00  0.00    +0.152 HD
ATOM      4  O   UNL     1      27.755  18.422  -0.611  0.00  0.00    -0.226 OA
ENDROOT
BRANCH   1   5
ATOM      5  O   UNL     1      27.749  17.218  -2.509  0.00  0.00    -0.450 OA
BRANCH   5   6
ATOM      6  C   UNL     1      26.791  17.372  -3.530  0.00  0.00    +0.240 C 
BRANCH   6   7
ATOM      7  C   UNL     1      26.383  16.113  -4.319  0.00  0.00    +0.100 C 
BRANCH   7   9
ATOM      8  N   UNL     1      24.318  15.850  -2.988  0.00  0.00    -0.134 NA
ATOM      9  C   UNL     1      25.445  15.294  -3.529  0.00  0.00    +0.086 A 
ATOM     10  C   UNL     1      25.496  13.960  -3.193  0.00  0.00    +0.134 A 
ATOM     11  N   UNL     1      24.377  13.769  -2.437  0.00  0.00    -0.248 N 
ATOM     12  N   UNL     1      23.674  14.908  -2.315  0.00  0.00    -0.065 NA
BRANCH  11  13
ATOM     13  C   UNL     1      23.947  12.548  -1.758  0.00  0.00    +0.114 C 
ATOM     14  C   UNL     1      24.479  12.486  -0.321  0.00  0.00    +0.062 C 
ATOM     15  C   UNL     1      25.896  11.931  -0.148  0.00  0.00    +0.139 C 
ATOM     16  C   UNL     1      26.073  10.459  -0.392  0.00  0.00    +0.002 C 
ATOM     17  C   UNL     1      25.294   9.626  -1.100  0.00  0.00    +0.002 C 
ATOM     18  C   UNL     1      24.116   9.977  -1.958  0.00  0.00    +0.139 C 
ATOM     19  C   UNL     1      24.221  11.330  -2.652  0.00  0.00    +0.062 C 
BRANCH  18  20
ATOM     20  O   UNL     1      22.931   9.907  -1.180  0.00  0.00    -0.388 OA
ATOM     21  H   UNL     1      23.036  10.526  -0.436  0.00  0.00    +0.210 HD
ENDBRANCH  18  20
BRANCH  15  22
ATOM     22  O   UNL     1      26.261  12.138   1.222  0.00  0.00    -0.388 OA
ATOM     23  H   UNL     1      27.049  11.597   1.397  0.00  0.00    +0.210 HD
ENDBRANCH  15  22
ENDBRANCH  11  13
ENDBRANCH   7   9
ENDBRANCH   6   7
ENDBRANCH   5   6
ENDBRANCH   1   5
BRANCH   2  24
ATOM     24  C   UNL     1      28.214  14.763  -0.493  0.00  0.00    +0.152 C 
BRANCH  24  25
ATOM     25  C   UNL     1      29.168  14.160   0.558  0.00  0.00    +0.193 C 
ATOM     26  O   UNL     1      29.179  12.732   0.339  0.00  0.00    -0.219 OA
BRANCH  25  27
ATOM     27  C   UNL     1      30.656  14.572   0.492  0.00  0.00    +0.212 C 
ATOM     28  O   UNL     1      30.831  15.903   1.003  0.00  0.00    -0.218 OA
BRANCH  27  29
ATOM     29  C   UNL     1      31.608  13.598   1.285  0.00  0.00    +0.171 C 
ATOM     30  O   UNL     1      31.505  13.759   2.696  0.00  0.00    -0.343 OA
ATOM     31  C   UNL     1      32.396  13.208   3.620  0.00  0.00    +0.220 C 
ATOM     32  C   UNL     1      33.859  13.520   3.258  0.00  0.00    +0.076 C 
ATOM     33  C   UNL     1      34.080  13.079   1.802  0.00  0.00    +0.177 C 
ATOM     34  O   UNL     1      35.431  13.310   1.429  0.00  0.00    -0.221 OA
ATOM     35  C   UNL     1      33.094  13.832   0.856  0.00  0.00    +0.155 C 
BRANCH  35  36
ATOM     36  N   UNL     1      33.306  13.421  -0.529  0.00  0.00    -0.202 NA
ATOM     37  C   UNL     1      33.579  14.173  -1.626  0.00  0.00    +0.242 C 
ATOM     38  C   UNL     1      34.043  13.472  -2.876  0.00  0.00    +0.096 C 
ATOM     39  O   UNL     1      33.446  15.394  -1.574  0.00  0.00    -0.273 OA
ENDBRANCH  35  36
BRANCH  31  40
ATOM     40  C   UNL     1      32.170  11.618   3.868  0.00  0.00    +0.391 C 
ATOM     41  O   UNL     1      33.273  11.208   4.522  0.00  0.00    -0.243 OA
ATOM     42  O   UNL     1      30.877  11.384   3.609  0.00  0.00    -0.243 OA
ENDBRANCH  31  40
ENDBRANCH  27  29
ENDBRANCH  25  27
ENDBRANCH  24  25
ENDBRANCH   2  24
TORSDOF 13
