REMARK VINA RESULT:    -7.170      3.512      5.928
REMARK INTER + INTRA:         -14.328
REMARK INTER:                 -12.238
REMARK INTRA:                  -2.091
REMARK UNBOUND:                -2.128
REMARK  Name = lig_assembled_0.pdb
REMARK  12 active torsions:
REMARK  status: ('A' for Active; 'I' for Inactive)
REMARK    1  A    between atoms: _2  and  _9
REMARK    2  A    between atoms: _6  and  _7
REMARK    3  A    between atoms: _6  and  _16
REMARK    4  A    between atoms: _10  and  _11
REMARK    5  A    between atoms: _16  and  _18
REMARK    6  A    between atoms: _17  and  _22
REMARK    7  A    between atoms: _18  and  _21
REMARK    8  A    between atoms: _26  and  _36
REMARK    9  A    between atoms: _28  and  _29
REMARK   10  A    between atoms: _30  and  _32
REMARK   11  A    between atoms: _32  and  _34
REMARK   12  A    between atoms: _34  and  _36
REMARK                            x       y       z     vdW  Elec       q    Type
REMARK                         _______ _______ _______ _____ _____    ______ ____
ROOT
ATOM      1  C   UNL     1      28.081  17.160  -0.722  0.00  0.00    +0.400 C 
ATOM      2  N   UNL     1      28.588  16.049  -0.090  0.00  0.00    -0.278 N 
ATOM      3  H   UNL     1      28.831  16.410   0.886  0.00  0.00    +0.152 HD
ATOM      4  O   UNL     1      27.861  18.162  -0.046  0.00  0.00    -0.226 OA
ENDROOT
BRANCH   2   5
ATOM      5  C   UNL     1      28.921  14.628  -0.148  0.00  0.00    +0.152 C 
BRANCH   5   6
ATOM      6  C   UNL     1      27.731  13.655  -0.269  0.00  0.00    +0.193 C 
ATOM      7  O   UNL     1      26.993  14.047  -1.448  0.00  0.00    -0.219 OA
BRANCH   6   8
ATOM      8  C   UNL     1      28.049  12.160  -0.493  0.00  0.00    +0.212 C 
ATOM      9  O   UNL     1      29.234  11.786   0.230  0.00  0.00    -0.218 OA
BRANCH   8  10
ATOM     10  C   UNL     1      26.874  11.201  -0.065  0.00  0.00    +0.171 C 
ATOM     11  O   UNL     1      25.814  11.176  -1.016  0.00  0.00    -0.343 OA
ATOM     12  C   UNL     1      24.558  10.611  -0.781  0.00  0.00    +0.220 C 
ATOM     13  C   UNL     1      23.942  11.116   0.535  0.00  0.00    +0.076 C 
ATOM     14  C   UNL     1      24.975  10.882   1.649  0.00  0.00    +0.177 C 
ATOM     15  O   UNL     1      24.439  11.296   2.898  0.00  0.00    -0.221 OA
ATOM     16  C   UNL     1      26.300  11.639   1.322  0.00  0.00    +0.155 C 
BRANCH  16  17
ATOM     17  N   UNL     1      27.282  11.425   2.381  0.00  0.00    -0.202 NA
ATOM     18  C   UNL     1      27.665  12.251   3.388  0.00  0.00    +0.242 C 
ATOM     19  C   UNL     1      28.480  11.673   4.516  0.00  0.00    +0.096 C 
ATOM     20  O   UNL     1      27.342  13.437   3.359  0.00  0.00    -0.273 OA
ENDBRANCH  16  17
BRANCH  12  21
ATOM     21  C   UNL     1      24.555   8.988  -0.858  0.00  0.00    +0.391 C 
ATOM     22  O   UNL     1      23.304   8.626  -0.510  0.00  0.00    -0.243 OA
ATOM     23  O   UNL     1      25.671   8.646  -1.514  0.00  0.00    -0.243 OA
ENDBRANCH  12  21
ENDBRANCH   8  10
ENDBRANCH   6   8
ENDBRANCH   5   6
ENDBRANCH   2   5
BRANCH   1  24
ATOM     24  O   UNL     1      27.910  17.048  -1.999  0.00  0.00    -0.450 OA
BRANCH  24  25
ATOM     25  C   UNL     1      27.032  17.501  -3.003  0.00  0.00    +0.240 C 
BRANCH  25  26
ATOM     26  C   UNL     1      26.803  16.579  -4.216  0.00  0.00    +0.100 C 
BRANCH  26  28
ATOM     27  N   UNL     1      25.167  14.902  -4.987  0.00  0.00    -0.134 NA
ATOM     28  C   UNL     1      25.557  15.809  -4.047  0.00  0.00    +0.086 A 
ATOM     29  C   UNL     1      24.641  15.817  -3.019  0.00  0.00    +0.139 A 
ATOM     30  N   UNL     1      23.645  14.958  -3.420  0.00  0.00    -0.219 N 
ATOM     31  N   UNL     1      24.034  14.353  -4.577  0.00  0.00    -0.061 NA
BRANCH  30  32
ATOM     32  C   UNL     1      22.436  14.569  -2.776  0.00  0.00    +0.079 A 
ATOM     33  C   UNL     1      21.154  15.047  -3.116  0.00  0.00    +0.062 A 
ATOM     34  C   UNL     1      20.042  14.607  -2.365  0.00  0.00    +0.015 A 
ATOM     35  C   UNL     1      20.192  13.725  -1.293  0.00  0.00    +0.001 A 
ATOM     36  C   UNL     1      21.451  13.243  -0.969  0.00  0.00    +0.002 A 
ATOM     37  C   UNL     1      22.561  13.650  -1.709  0.00  0.00    +0.028 A 
BRANCH  33  38
ATOM     38  C   UNL     1      20.858  15.848  -4.338  0.00  0.00    +0.244 C 
ATOM     39  O   UNL     1      20.380  16.970  -4.282  0.00  0.00    -0.270 OA
ATOM     40  N   UNL     1      21.178  15.297  -5.550  0.00  0.00    -0.325 N 
ATOM     41  H   UNL     1      21.021  15.869  -6.371  0.00  0.00    +0.145 HD
ATOM     42  H   UNL     1      21.588  14.384  -5.679  0.00  0.00    +0.145 HD
ENDBRANCH  33  38
ENDBRANCH  30  32
ENDBRANCH  26  28
ENDBRANCH  25  26
ENDBRANCH  24  25
ENDBRANCH   1  24
TORSDOF 12
