REMARK VINA RESULT:    -5.945      1.888      2.760
REMARK INTER + INTRA:         -13.344
REMARK INTER:                 -11.506
REMARK INTRA:                  -1.837
REMARK UNBOUND:                -1.837
REMARK  Name = lig_assembled_45.pdb
REMARK  19 active torsions:
REMARK  status: ('A' for Active; 'I' for Inactive)
REMARK    1  A    between atoms: _2  and  _9
REMARK    2  A    between atoms: _3  and  _11
REMARK    3  A    between atoms: _3  and  _12
REMARK    4  A    between atoms: _3  and  _13
REMARK    5  A    between atoms: _3  and  _15
REMARK    6  A    between atoms: _5  and  _15
REMARK    7  A    between atoms: _6  and  _7
REMARK    8  A    between atoms: _6  and  _16
REMARK    9  A    between atoms: _9  and  _10
REMARK   10  A    between atoms: _10  and  _11
REMARK   11  A    between atoms: _13  and  _14
REMARK   12  A    between atoms: _16  and  _18
REMARK   13  A    between atoms: _17  and  _22
REMARK   14  A    between atoms: _18  and  _21
REMARK   15  A    between atoms: _26  and  _36
REMARK   16  A    between atoms: _28  and  _29
REMARK   17  A    between atoms: _30  and  _32
REMARK   18  A    between atoms: _32  and  _34
REMARK   19  A    between atoms: _34  and  _36
REMARK                            x       y       z     vdW  Elec       q    Type
REMARK                         _______ _______ _______ _____ _____    ______ ____
ROOT
ATOM      1  C   UNL     1      29.111  17.182  -0.452  0.00  0.00    +0.400 C 
ATOM      2  N   UNL     1      29.179  15.996   0.240  0.00  0.00    -0.278 N 
ATOM      3  H   UNL     1      29.925  16.185   0.983  0.00  0.00    +0.152 HD
ATOM      4  O   UNL     1      29.711  18.153   0.002  0.00  0.00    -0.226 OA
ENDROOT
BRANCH   2   5
ATOM      5  C   UNL     1      28.692  14.631   0.421  0.00  0.00    +0.152 C 
BRANCH   5   6
ATOM      6  C   UNL     1      29.133  13.918   1.716  0.00  0.00    +0.193 C 
ATOM      7  O   UNL     1      27.979  13.882   2.585  0.00  0.00    -0.219 OA
BRANCH   6   8
ATOM      8  C   UNL     1      29.577  12.442   1.604  0.00  0.00    +0.212 C 
ATOM      9  O   UNL     1      29.541  12.010   0.234  0.00  0.00    -0.218 OA
BRANCH   8  10
ATOM     10  C   UNL     1      31.022  12.179   2.177  0.00  0.00    +0.171 C 
ATOM     11  O   UNL     1      31.065  12.237   3.599  0.00  0.00    -0.343 OA
ATOM     12  C   UNL     1      32.242  12.284   4.350  0.00  0.00    +0.220 C 
ATOM     13  C   UNL     1      33.197  13.381   3.847  0.00  0.00    +0.076 C 
ATOM     14  C   UNL     1      33.400  13.161   2.338  0.00  0.00    +0.177 C 
ATOM     15  O   UNL     1      34.308  14.127   1.829  0.00  0.00    -0.221 OA
ATOM     16  C   UNL     1      32.028  13.226   1.597  0.00  0.00    +0.155 C 
BRANCH  16  17
ATOM     17  N   UNL     1      32.218  13.025   0.162  0.00  0.00    -0.202 NA
ATOM     18  C   UNL     1      32.307  13.938  -0.838  0.00  0.00    +0.242 C 
ATOM     19  C   UNL     1      32.797  13.478  -2.186  0.00  0.00    +0.096 C 
ATOM     20  O   UNL     1      31.991  15.107  -0.623  0.00  0.00    -0.273 OA
ENDBRANCH  16  17
BRANCH  12  21
ATOM     21  C   UNL     1      32.992  10.848   4.467  0.00  0.00    +0.391 C 
ATOM     22  O   UNL     1      32.141   9.964   3.911  0.00  0.00    -0.243 OA
ATOM     23  O   UNL     1      34.264  11.119   4.785  0.00  0.00    -0.243 OA
ENDBRANCH  12  21
ENDBRANCH   8  10
ENDBRANCH   6   8
ENDBRANCH   5   6
ENDBRANCH   2   5
BRANCH   1  24
ATOM     24  O   UNL     1      28.434  17.149  -1.552  0.00  0.00    -0.450 OA
BRANCH  24  25
ATOM     25  C   UNL     1      27.210  17.618  -2.067  0.00  0.00    +0.240 C 
BRANCH  25  26
ATOM     26  C   UNL     1      26.627  16.888  -3.293  0.00  0.00    +0.100 C 
BRANCH  26  28
ATOM     27  N   UNL     1      24.538  15.588  -2.990  0.00  0.00    -0.134 NA
ATOM     28  C   UNL     1      25.898  15.680  -2.868  0.00  0.00    +0.086 A 
ATOM     29  C   UNL     1      26.379  14.514  -2.315  0.00  0.00    +0.133 A 
ATOM     30  N   UNL     1      25.257  13.765  -2.131  0.00  0.00    -0.251 N 
ATOM     31  N   UNL     1      24.154  14.406  -2.527  0.00  0.00    -0.065 NA
BRANCH  30  32
ATOM     32  C   UNL     1      25.173  12.439  -1.557  0.00  0.00    +0.150 C 
BRANCH  32  33
ATOM     33  C   UNL     1      25.285  12.442  -0.037  0.00  0.00    +0.074 C 
BRANCH  33  34
ATOM     34  C   UNL     1      25.289  11.076   0.661  0.00  0.00    +0.134 C 
BRANCH  34  35
ATOM     35  N   UNL     1      23.945  10.560   1.272  0.00  0.00    +0.241 N 
ATOM     36  C   UNL     1      24.055  10.594   2.806  0.00  0.00    +0.192 C 
BRANCH  35  37
ATOM     37  C   UNL     1      23.807   9.069   0.817  0.00  0.00    +0.129 C 
ATOM     38  C   UNL     1      24.877   8.621  -0.171  0.00  0.00    +0.060 C 
ENDBRANCH  35  37
BRANCH  35  39
ATOM     39  C   UNL     1      22.695  11.351   0.845  0.00  0.00    +0.129 C 
ATOM     40  C   UNL     1      21.744  11.680   1.985  0.00  0.00    +0.060 C 
ENDBRANCH  35  39
ENDBRANCH  34  35
ENDBRANCH  33  34
ENDBRANCH  32  33
ENDBRANCH  30  32
ENDBRANCH  26  28
ENDBRANCH  25  26
ENDBRANCH  24  25
ENDBRANCH   1  24
TORSDOF 16
