REMARK VINA RESULT:    -5.491      3.131      4.776
REMARK INTER + INTRA:         -11.926
REMARK INTER:                  -9.504
REMARK INTRA:                  -2.422
REMARK UNBOUND:                -2.422
REMARK  Name = lig_assembled_53.pdb
REMARK  13 active torsions:
REMARK  status: ('A' for Active; 'I' for Inactive)
REMARK    1  A    between atoms: _2  and  _8
REMARK    2  A    between atoms: _4  and  _8
REMARK    3  A    between atoms: _4  and  _9
REMARK    4  A    between atoms: _5  and  _6
REMARK    5  A    between atoms: _5  and  _11
REMARK    6  A    between atoms: _11  and  _13
REMARK    7  A    between atoms: _12  and  _17
REMARK    8  A    between atoms: _13  and  _16
REMARK    9  A    between atoms: _21  and  _31
REMARK   10  A    between atoms: _23  and  _24
REMARK   11  A    between atoms: _25  and  _27
REMARK   12  A    between atoms: _27  and  _29
REMARK   13  A    between atoms: _29  and  _31
REMARK                            x       y       z     vdW  Elec       q    Type
REMARK                         _______ _______ _______ _____ _____    ______ ____
ROOT
ATOM      1  C   UNL     1      27.686  12.202   0.209  0.00  0.00    +0.152 C 
ENDROOT
BRANCH   1   3
ATOM      2  C   UNL     1      25.693  11.390   1.886  0.00  0.00    +0.400 C 
ATOM      3  N   UNL     1      26.916  11.719   1.353  0.00  0.00    -0.278 N 
ATOM      4  H   UNL     1      27.598  11.510   2.150  0.00  0.00    +0.152 HD
ATOM      5  O   UNL     1      25.670  10.810   2.969  0.00  0.00    -0.226 OA
BRANCH   2   6
ATOM      6  O   UNL     1      24.664  11.758   1.196  0.00  0.00    -0.450 OA
BRANCH   6   7
ATOM      7  C   UNL     1      23.926  11.338   0.072  0.00  0.00    +0.240 C 
BRANCH   7   8
ATOM      8  C   UNL     1      22.962  12.357  -0.566  0.00  0.00    +0.100 C 
BRANCH   8  10
ATOM      9  N   UNL     1      23.151  14.572  -1.657  0.00  0.00    -0.134 NA
ATOM     10  C   UNL     1      23.713  13.366  -1.335  0.00  0.00    +0.086 A 
ATOM     11  C   UNL     1      24.993  13.318  -1.837  0.00  0.00    +0.134 A 
ATOM     12  N   UNL     1      25.132  14.494  -2.512  0.00  0.00    -0.241 N 
ATOM     13  N   UNL     1      24.037  15.265  -2.360  0.00  0.00    -0.065 NA
BRANCH  12  14
ATOM     14  C   UNL     1      26.283  15.057  -3.186  0.00  0.00    +0.265 C 
BRANCH  14  15
ATOM     15  C   UNL     1      26.482  16.537  -2.991  0.00  0.00    +0.326 C 
ATOM     16  O   UNL     1      26.593  17.381  -3.867  0.00  0.00    -0.249 OA
BRANCH  15  17
ATOM     17  O   UNL     1      26.549  16.884  -1.677  0.00  0.00    -0.479 OA
ATOM     18  H   UNL     1      27.241  16.438  -1.153  0.00  0.00    +0.295 HD
ENDBRANCH  15  17
ENDBRANCH  14  15
ENDBRANCH  12  14
ENDBRANCH   8  10
ENDBRANCH   7   8
ENDBRANCH   6   7
ENDBRANCH   2   6
ENDBRANCH   1   3
BRANCH   1  19
ATOM     19  C   UNL     1      28.279  13.620   0.339  0.00  0.00    +0.193 C 
ATOM     20  O   UNL     1      29.215  13.580   1.439  0.00  0.00    -0.219 OA
BRANCH  19  21
ATOM     21  C   UNL     1      29.105  14.160  -0.850  0.00  0.00    +0.212 C 
ATOM     22  O   UNL     1      29.092  15.597  -0.857  0.00  0.00    -0.218 OA
BRANCH  21  23
ATOM     23  C   UNL     1      30.603  13.669  -0.844  0.00  0.00    +0.171 C 
ATOM     24  O   UNL     1      31.529  14.739  -0.687  0.00  0.00    -0.343 OA
ATOM     25  C   UNL     1      32.907  14.625  -0.888  0.00  0.00    +0.220 C 
ATOM     26  C   UNL     1      33.233  13.971  -2.242  0.00  0.00    +0.076 C 
ATOM     27  C   UNL     1      32.456  12.646  -2.315  0.00  0.00    +0.177 C 
ATOM     28  O   UNL     1      32.754  11.980  -3.534  0.00  0.00    -0.221 OA
ATOM     29  C   UNL     1      30.925  12.913  -2.174  0.00  0.00    +0.155 C 
BRANCH  29  30
ATOM     30  N   UNL     1      30.183  11.657  -2.250  0.00  0.00    -0.202 NA
ATOM     31  C   UNL     1      29.204  11.278  -3.112  0.00  0.00    +0.242 C 
ATOM     32  C   UNL     1      28.815   9.823  -3.157  0.00  0.00    +0.096 C 
ATOM     33  O   UNL     1      28.665  12.120  -3.827  0.00  0.00    -0.273 OA
ENDBRANCH  29  30
BRANCH  25  34
ATOM     34  C   UNL     1      33.680  13.885   0.334  0.00  0.00    +0.391 C 
ATOM     35  O   UNL     1      34.954  13.760  -0.086  0.00  0.00    -0.243 OA
ATOM     36  O   UNL     1      32.857  13.952   1.388  0.00  0.00    -0.243 OA
ENDBRANCH  25  34
ENDBRANCH  21  23
ENDBRANCH  19  21
ENDBRANCH   1  19
TORSDOF 13
