REMARK VINA RESULT:    -6.586     24.136     27.614
REMARK INTER + INTRA:         -16.063
REMARK INTER:                 -12.207
REMARK INTRA:                  -3.856
REMARK UNBOUND:                -3.125
REMARK  Name = lig_assembled_47.pdb
REMARK  17 active torsions:
REMARK  status: ('A' for Active; 'I' for Inactive)
REMARK    1  A    between atoms: _2  and  _8
REMARK    2  A    between atoms: _5  and  _6
REMARK    3  A    between atoms: _5  and  _25
REMARK    4  A    between atoms: _8  and  _9
REMARK    5  A    between atoms: _9  and  _10
REMARK    6  A    between atoms: _9  and  _11
REMARK    7  A    between atoms: _10  and  _23
REMARK    8  A    between atoms: _11  and  _12
REMARK    9  A    between atoms: _11  and  _18
REMARK   10  A    between atoms: _25  and  _27
REMARK   11  A    between atoms: _26  and  _31
REMARK   12  A    between atoms: _27  and  _30
REMARK   13  A    between atoms: _35  and  _45
REMARK   14  A    between atoms: _37  and  _38
REMARK   15  A    between atoms: _39  and  _41
REMARK   16  A    between atoms: _41  and  _43
REMARK   17  A    between atoms: _43  and  _45
REMARK                            x       y       z     vdW  Elec       q    Type
REMARK                         _______ _______ _______ _____ _____    ______ ____
ROOT
ATOM      1  C   UNL     1      31.144  42.695   9.879  0.00  0.00    +0.100 C 
ENDROOT
BRANCH   1   3
ATOM      2  N   UNL     1      31.330  40.288  10.458  0.00  0.00    -0.134 NA
ATOM      3  C   UNL     1      30.897  41.266   9.601  0.00  0.00    +0.086 A 
ATOM      4  C   UNL     1      30.274  40.672   8.525  0.00  0.00    +0.133 A 
ATOM      5  N   UNL     1      30.405  39.335   8.763  0.00  0.00    -0.251 N 
ATOM      6  N   UNL     1      31.022  39.108   9.934  0.00  0.00    -0.065 NA
BRANCH   5   7
ATOM      7  C   UNL     1      30.111  38.231   7.862  0.00  0.00    +0.160 C 
BRANCH   7   8
ATOM      8  C   UNL     1      28.859  38.446   7.006  0.00  0.00    +0.131 C 
BRANCH   8   9
ATOM      9  C   UNL     1      29.273  38.315   5.547  0.00  0.00    +0.311 C 
ATOM     10  O   UNL     1      28.552  37.823   4.694  0.00  0.00    -0.251 OA
BRANCH   9  11
ATOM     11  O   UNL     1      30.452  38.872   5.197  0.00  0.00    -0.480 OA
ATOM     12  H   UNL     1      31.199  38.289   4.983  0.00  0.00    +0.295 HD
ENDBRANCH   9  11
ENDBRANCH   8   9
BRANCH   8  13
ATOM     13  C   UNL     1      27.660  37.510   7.359  0.00  0.00    +0.064 C 
BRANCH  13  14
ATOM     14  C   UNL     1      27.956  36.403   8.372  0.00  0.00    -0.039 A 
ATOM     15  C   UNL     1      28.399  35.144   7.921  0.00  0.00    +0.004 A 
ATOM     16  C   UNL     1      28.679  34.110   8.821  0.00  0.00    +0.000 A 
ATOM     17  C   UNL     1      28.507  34.308  10.187  0.00  0.00    +0.000 A 
ATOM     18  C   UNL     1      28.051  35.538  10.651  0.00  0.00    +0.000 A 
ATOM     19  C   UNL     1      27.788  36.579   9.753  0.00  0.00    +0.004 A 
ENDBRANCH  13  14
BRANCH  13  20
ATOM     20  C   UNL     1      26.427  38.345   7.729  0.00  0.00    -0.039 A 
ATOM     21  C   UNL     1      26.573  39.674   8.163  0.00  0.00    +0.004 A 
ATOM     22  C   UNL     1      25.476  40.382   8.663  0.00  0.00    +0.000 A 
ATOM     23  C   UNL     1      24.218  39.786   8.712  0.00  0.00    +0.000 A 
ATOM     24  C   UNL     1      24.049  38.487   8.249  0.00  0.00    +0.000 A 
ATOM     25  C   UNL     1      25.143  37.774   7.762  0.00  0.00    +0.004 A 
ENDBRANCH  13  20
ENDBRANCH   8  13
ENDBRANCH   7   8
ENDBRANCH   5   7
ENDBRANCH   1   3
BRANCH   1  26
ATOM     26  C   UNL     1      31.760  43.398   8.654  0.00  0.00    +0.240 C 
BRANCH  26  27
ATOM     27  O   UNL     1      33.109  43.122   8.356  0.00  0.00    -0.450 OA
BRANCH  27  28
ATOM     28  C   UNL     1      33.889  42.104   8.196  0.00  0.00    +0.400 C 
ATOM     29  N   UNL     1      33.718  41.402   7.026  0.00  0.00    -0.278 N 
ATOM     30  H   UNL     1      34.565  40.750   7.004  0.00  0.00    +0.152 HD
ATOM     31  O   UNL     1      34.771  41.737   8.969  0.00  0.00    -0.226 OA
BRANCH  29  32
ATOM     32  C   UNL     1      32.911  41.143   5.837  0.00  0.00    +0.152 C 
BRANCH  32  33
ATOM     33  C   UNL     1      33.632  40.446   4.665  0.00  0.00    +0.193 C 
ATOM     34  O   UNL     1      32.626  40.165   3.666  0.00  0.00    -0.219 OA
BRANCH  33  35
ATOM     35  C   UNL     1      34.711  41.252   3.908  0.00  0.00    +0.212 C 
ATOM     36  O   UNL     1      35.346  42.191   4.791  0.00  0.00    -0.218 OA
BRANCH  35  37
ATOM     37  C   UNL     1      35.821  40.347   3.252  0.00  0.00    +0.171 C 
ATOM     38  O   UNL     1      35.402  39.775   2.017  0.00  0.00    -0.343 OA
ATOM     39  C   UNL     1      36.082  38.752   1.351  0.00  0.00    +0.220 C 
ATOM     40  C   UNL     1      36.395  37.571   2.287  0.00  0.00    +0.076 C 
ATOM     41  C   UNL     1      37.121  38.136   3.518  0.00  0.00    +0.177 C 
ATOM     42  O   UNL     1      37.469  37.078   4.400  0.00  0.00    -0.221 OA
ATOM     43  C   UNL     1      36.225  39.197   4.231  0.00  0.00    +0.155 C 
BRANCH  43  44
ATOM     44  N   UNL     1      36.909  39.731   5.406  0.00  0.00    -0.202 NA
ATOM     45  C   UNL     1      36.648  39.539   6.724  0.00  0.00    +0.242 C 
ATOM     46  C   UNL     1      37.686  39.968   7.729  0.00  0.00    +0.096 C 
ATOM     47  O   UNL     1      35.585  39.024   7.065  0.00  0.00    -0.273 OA
ENDBRANCH  43  44
BRANCH  39  48
ATOM     48  C   UNL     1      37.412  39.262   0.569  0.00  0.00    +0.391 C 
ATOM     49  O   UNL     1      38.002  38.138   0.117  0.00  0.00    -0.243 OA
ATOM     50  O   UNL     1      37.263  40.582   0.408  0.00  0.00    -0.243 OA
ENDBRANCH  39  48
ENDBRANCH  35  37
ENDBRANCH  33  35
ENDBRANCH  32  33
ENDBRANCH  29  32
ENDBRANCH  27  28
ENDBRANCH  26  27
ENDBRANCH   1  26
TORSDOF 17
