REMARK VINA RESULT:    -5.667      2.532      3.292
REMARK INTER + INTRA:         -12.258
REMARK INTER:                 -10.510
REMARK INTRA:                  -1.748
REMARK UNBOUND:                -1.953
REMARK  Name = lig_assembled_13.pdb
REMARK  15 active torsions:
REMARK  status: ('A' for Active; 'I' for Inactive)
REMARK    1  A    between atoms: _2  and  _8
REMARK    2  A    between atoms: _4  and  _10
REMARK    3  A    between atoms: _5  and  _6
REMARK    4  A    between atoms: _5  and  _13
REMARK    5  A    between atoms: _8  and  _9
REMARK    6  A    between atoms: _9  and  _11
REMARK    7  A    between atoms: _10  and  _11
REMARK    8  A    between atoms: _13  and  _15
REMARK    9  A    between atoms: _14  and  _19
REMARK   10  A    between atoms: _15  and  _18
REMARK   11  A    between atoms: _23  and  _33
REMARK   12  A    between atoms: _25  and  _26
REMARK   13  A    between atoms: _27  and  _29
REMARK   14  A    between atoms: _29  and  _31
REMARK   15  A    between atoms: _31  and  _33
REMARK                            x       y       z     vdW  Elec       q    Type
REMARK                         _______ _______ _______ _____ _____    ______ ____
ROOT
ATOM      1  C   UNL     1      29.062  15.597  -0.095  0.00  0.00    +0.152 C 
ENDROOT
BRANCH   1   3
ATOM      2  C   UNL     1      27.646  17.509  -1.430  0.00  0.00    +0.400 C 
ATOM      3  N   UNL     1      28.496  16.857  -0.567  0.00  0.00    -0.278 N 
ATOM      4  H   UNL     1      28.909  17.650   0.019  0.00  0.00    +0.152 HD
ATOM      5  O   UNL     1      27.424  18.701  -1.234  0.00  0.00    -0.226 OA
BRANCH   2   6
ATOM      6  O   UNL     1      27.180  16.796  -2.402  0.00  0.00    -0.450 OA
BRANCH   6   7
ATOM      7  C   UNL     1      26.837  16.936  -3.761  0.00  0.00    +0.240 C 
BRANCH   7   8
ATOM      8  C   UNL     1      25.600  16.167  -4.265  0.00  0.00    +0.100 C 
BRANCH   8  10
ATOM      9  N   UNL     1      23.933  15.452  -2.581  0.00  0.00    -0.134 NA
ATOM     10  C   UNL     1      25.118  15.236  -3.230  0.00  0.00    +0.086 A 
ATOM     11  C   UNL     1      25.694  14.086  -2.744  0.00  0.00    +0.134 A 
ATOM     12  N   UNL     1      24.844  13.686  -1.755  0.00  0.00    -0.241 N 
ATOM     13  N   UNL     1      23.764  14.482  -1.691  0.00  0.00    -0.065 NA
BRANCH  12  14
ATOM     14  C   UNL     1      24.939  12.518  -0.909  0.00  0.00    +0.265 C 
BRANCH  14  15
ATOM     15  C   UNL     1      23.628  11.791  -0.803  0.00  0.00    +0.329 C 
ATOM     16  O   UNL     1      23.075  11.156  -1.689  0.00  0.00    -0.249 OA
BRANCH  15  17
ATOM     17  O   UNL     1      23.082  12.039   0.426  0.00  0.00    -0.464 OA
BRANCH  17  18
ATOM     18  C   UNL     1      23.385  11.057   1.430  0.00  0.00    +0.229 C 
ATOM     19  C   UNL     1      22.077  10.648   2.087  0.00  0.00    +0.048 C 
ENDBRANCH  17  18
ENDBRANCH  15  17
ENDBRANCH  14  15
ENDBRANCH  12  14
ENDBRANCH   8  10
ENDBRANCH   7   8
ENDBRANCH   6   7
ENDBRANCH   2   6
ENDBRANCH   1   3
BRANCH   1  20
ATOM     20  C   UNL     1      30.566  15.614   0.250  0.00  0.00    +0.193 C 
ATOM     21  O   UNL     1      30.842  16.903   0.840  0.00  0.00    -0.219 OA
BRANCH  20  22
ATOM     22  C   UNL     1      31.072  14.596   1.295  0.00  0.00    +0.212 C 
ATOM     23  O   UNL     1      31.447  15.267   2.509  0.00  0.00    -0.218 OA
BRANCH  22  24
ATOM     24  C   UNL     1      30.014  13.480   1.643  0.00  0.00    +0.171 C 
ATOM     25  O   UNL     1      29.886  13.265   3.045  0.00  0.00    -0.343 OA
ATOM     26  C   UNL     1      29.211  12.184   3.618  0.00  0.00    +0.220 C 
ATOM     27  C   UNL     1      29.670  10.843   3.018  0.00  0.00    +0.076 C 
ATOM     28  C   UNL     1      29.539  10.951   1.490  0.00  0.00    +0.177 C 
ATOM     29  O   UNL     1      29.913   9.720   0.886  0.00  0.00    -0.221 OA
ATOM     30  C   UNL     1      30.410  12.131   0.958  0.00  0.00    +0.155 C 
BRANCH  30  31
ATOM     31  N   UNL     1      30.294  12.233  -0.495  0.00  0.00    -0.202 NA
ATOM     32  C   UNL     1      31.263  12.230  -1.445  0.00  0.00    +0.242 C 
ATOM     33  C   UNL     1      30.854  12.050  -2.884  0.00  0.00    +0.096 C 
ATOM     34  O   UNL     1      32.439  12.371  -1.114  0.00  0.00    -0.273 OA
ENDBRANCH  30  31
BRANCH  26  35
ATOM     35  C   UNL     1      27.594  12.334   3.577  0.00  0.00    +0.391 C 
ATOM     36  O   UNL     1      27.125  11.080   3.720  0.00  0.00    -0.243 OA
ATOM     37  O   UNL     1      27.341  13.641   3.719  0.00  0.00    -0.243 OA
ENDBRANCH  26  35
ENDBRANCH  22  24
ENDBRANCH  20  22
ENDBRANCH   1  20
TORSDOF 14
