REMARK VINA RESULT:    -6.571      2.337      3.427
REMARK INTER + INTRA:         -12.604
REMARK INTER:                 -11.097
REMARK INTRA:                  -1.507
REMARK UNBOUND:                -1.808
REMARK  Name = lig_assembled_8.pdb
REMARK  11 active torsions:
REMARK  status: ('A' for Active; 'I' for Inactive)
REMARK    1  A    between atoms: _2  and  _8
REMARK    2  A    between atoms: _5  and  _6
REMARK    3  A    between atoms: _5  and  _13
REMARK    4  A    between atoms: _13  and  _15
REMARK    5  A    between atoms: _14  and  _19
REMARK    6  A    between atoms: _15  and  _18
REMARK    7  A    between atoms: _23  and  _33
REMARK    8  A    between atoms: _25  and  _26
REMARK    9  A    between atoms: _27  and  _29
REMARK   10  A    between atoms: _29  and  _31
REMARK   11  A    between atoms: _31  and  _33
REMARK                            x       y       z     vdW  Elec       q    Type
REMARK                         _______ _______ _______ _____ _____    ______ ____
ROOT
ATOM      1  C   UNL     1      28.120  13.408   2.643  0.00  0.00    +0.400 C 
ATOM      2  N   UNL     1      28.212  14.336   1.633  0.00  0.00    -0.278 N 
ATOM      3  H   UNL     1      27.537  15.105   1.941  0.00  0.00    +0.152 HD
ATOM      4  O   UNL     1      27.502  13.717   3.659  0.00  0.00    -0.226 OA
ENDROOT
BRANCH   1   5
ATOM      5  O   UNL     1      28.678  12.266   2.407  0.00  0.00    -0.450 OA
BRANCH   5   6
ATOM      6  C   UNL     1      28.528  11.161   1.547  0.00  0.00    +0.240 C 
BRANCH   6   7
ATOM      7  C   UNL     1      27.131  10.518   1.454  0.00  0.00    +0.100 C 
BRANCH   7   9
ATOM      8  N   UNL     1      26.718  12.102  -0.393  0.00  0.00    -0.134 NA
ATOM      9  C   UNL     1      26.236  11.355   0.636  0.00  0.00    +0.086 A 
ATOM     10  C   UNL     1      24.874  11.537   0.717  0.00  0.00    +0.139 A 
ATOM     11  N   UNL     1      24.554  12.404  -0.315  0.00  0.00    -0.219 N 
ATOM     12  N   UNL     1      25.698  12.734  -0.954  0.00  0.00    -0.061 NA
BRANCH  11  13
ATOM     13  C   UNL     1      23.262  12.884  -0.693  0.00  0.00    +0.081 A 
ATOM     14  C   UNL     1      23.194  13.925  -1.646  0.00  0.00    +0.029 A 
ATOM     15  C   UNL     1      21.970  14.466  -2.051  0.00  0.00    +0.002 A 
ATOM     16  C   UNL     1      20.787  13.982  -1.518  0.00  0.00    +0.001 A 
ATOM     17  C   UNL     1      20.828  12.950  -0.583  0.00  0.00    +0.017 A 
ATOM     18  C   UNL     1      22.052  12.392  -0.164  0.00  0.00    +0.043 A 
ATOM     19 BR   UNL     1      21.852  10.994   1.114  0.00  0.00    -0.048 Br
ENDBRANCH  11  13
ENDBRANCH   7   9
ENDBRANCH   6   7
ENDBRANCH   5   6
ENDBRANCH   1   5
BRANCH   2  20
ATOM     20  C   UNL     1      28.814  14.739   0.365  0.00  0.00    +0.152 C 
BRANCH  20  21
ATOM     21  C   UNL     1      30.201  14.140   0.050  0.00  0.00    +0.193 C 
ATOM     22  O   UNL     1      30.345  14.160  -1.387  0.00  0.00    -0.219 OA
BRANCH  21  23
ATOM     23  C   UNL     1      31.442  14.896   0.573  0.00  0.00    +0.212 C 
ATOM     24  O   UNL     1      31.044  16.055   1.323  0.00  0.00    -0.218 OA
BRANCH  23  25
ATOM     25  C   UNL     1      32.379  14.008   1.477  0.00  0.00    +0.171 C 
ATOM     26  O   UNL     1      32.625  14.592   2.752  0.00  0.00    -0.343 OA
ATOM     27  C   UNL     1      33.600  14.148   3.648  0.00  0.00    +0.220 C 
ATOM     28  C   UNL     1      34.974  14.005   2.970  0.00  0.00    +0.076 C 
ATOM     29  C   UNL     1      34.786  13.120   1.726  0.00  0.00    +0.177 C 
ATOM     30  O   UNL     1      36.037  12.922   1.083  0.00  0.00    -0.221 OA
ATOM     31  C   UNL     1      33.747  13.767   0.759  0.00  0.00    +0.155 C 
BRANCH  31  32
ATOM     32  N   UNL     1      33.571  12.932  -0.427  0.00  0.00    -0.202 NA
ATOM     33  C   UNL     1      33.668  13.260  -1.741  0.00  0.00    +0.242 C 
ATOM     34  C   UNL     1      33.730  12.146  -2.753  0.00  0.00    +0.096 C 
ATOM     35  O   UNL     1      33.703  14.444  -2.071  0.00  0.00    -0.273 OA
ENDBRANCH  31  32
BRANCH  27  36
ATOM     36  C   UNL     1      33.182  12.794   4.441  0.00  0.00    +0.391 C 
ATOM     37  O   UNL     1      34.306  12.398   5.070  0.00  0.00    -0.243 OA
ATOM     38  O   UNL     1      31.844  12.752   4.421  0.00  0.00    -0.243 OA
ENDBRANCH  27  36
ENDBRANCH  23  25
ENDBRANCH  21  23
ENDBRANCH  20  21
ENDBRANCH   2  20
TORSDOF 11
