REMARK VINA RESULT:    -6.296      1.999      3.802
REMARK INTER + INTRA:         -15.325
REMARK INTER:                 -13.405
REMARK INTRA:                  -1.921
REMARK UNBOUND:                -2.957
REMARK  Name = lig_assembled_74.pdb
REMARK  19 active torsions:
REMARK  status: ('A' for Active; 'I' for Inactive)
REMARK    1  A    between atoms: _2  and  _8
REMARK    2  A    between atoms: _4  and  _13
REMARK    3  A    between atoms: _5  and  _6
REMARK    4  A    between atoms: _5  and  _17
REMARK    5  A    between atoms: _8  and  _9
REMARK    6  A    between atoms: _9  and  _10
REMARK    7  A    between atoms: _9  and  _12
REMARK    8  A    between atoms: _10  and  _11
REMARK    9  A    between atoms: _11  and  _15
REMARK   10  A    between atoms: _12  and  _13
REMARK   11  A    between atoms: _13  and  _14
REMARK   12  A    between atoms: _17  and  _19
REMARK   13  A    between atoms: _18  and  _23
REMARK   14  A    between atoms: _19  and  _22
REMARK   15  A    between atoms: _27  and  _37
REMARK   16  A    between atoms: _29  and  _30
REMARK   17  A    between atoms: _31  and  _33
REMARK   18  A    between atoms: _33  and  _35
REMARK   19  A    between atoms: _35  and  _37
REMARK                            x       y       z     vdW  Elec       q    Type
REMARK                         _______ _______ _______ _____ _____    ______ ____
ROOT
ATOM      1  C   UNL     1      27.936  17.335  -0.915  0.00  0.00    +0.400 C 
ATOM      2  N   UNL     1      28.333  16.221  -0.214  0.00  0.00    -0.278 N 
ATOM      3  H   UNL     1      28.625  16.617   0.735  0.00  0.00    +0.152 HD
ATOM      4  O   UNL     1      27.831  18.396  -0.305  0.00  0.00    -0.226 OA
ENDROOT
BRANCH   1   5
ATOM      5  O   UNL     1      27.739  17.159  -2.180  0.00  0.00    -0.450 OA
BRANCH   5   6
ATOM      6  C   UNL     1      26.719  17.331  -3.137  0.00  0.00    +0.240 C 
BRANCH   6   7
ATOM      7  C   UNL     1      26.512  16.205  -4.167  0.00  0.00    +0.100 C 
BRANCH   7   9
ATOM      8  N   UNL     1      25.431  13.972  -4.042  0.00  0.00    -0.134 NA
ATOM      9  C   UNL     1      25.416  15.310  -3.748  0.00  0.00    +0.086 A 
ATOM     10  C   UNL     1      24.307  15.587  -2.976  0.00  0.00    +0.133 A 
ATOM     11  N   UNL     1      23.801  14.351  -2.689  0.00  0.00    -0.251 N 
ATOM     12  N   UNL     1      24.420  13.396  -3.409  0.00  0.00    -0.065 NA
BRANCH  11  13
ATOM     13  C   UNL     1      22.991  13.987  -1.543  0.00  0.00    +0.149 C 
BRANCH  13  14
ATOM     14  C   UNL     1      21.468  14.185  -1.713  0.00  0.00    +0.021 C 
BRANCH  14  15
ATOM     15  C   UNL     1      20.636  13.549  -0.581  0.00  0.00    +0.125 C 
BRANCH  15  16
ATOM     16  C   UNL     1      21.099  12.173  -0.150  0.00  0.00    +0.305 C 
ATOM     17  O   UNL     1      21.267  11.226  -0.901  0.00  0.00    -0.251 OA
BRANCH  16  18
ATOM     18  O   UNL     1      21.380  12.100   1.164  0.00  0.00    -0.481 OA
ATOM     19  H   UNL     1      20.670  11.738   1.725  0.00  0.00    +0.295 HD
ENDBRANCH  16  18
ENDBRANCH  15  16
ENDBRANCH  14  15
BRANCH  14  20
ATOM     20  C   UNL     1      21.046  13.694  -3.128  0.00  0.00    +0.009 C 
BRANCH  20  21
ATOM     21  C   UNL     1      20.572  14.788  -4.109  0.00  0.00    -0.017 C 
ATOM     22  C   UNL     1      20.663  16.189  -3.501  0.00  0.00    +0.007 C 
ATOM     23  C   UNL     1      21.400  14.749  -5.399  0.00  0.00    +0.007 C 
ENDBRANCH  20  21
ENDBRANCH  14  20
ENDBRANCH  13  14
ENDBRANCH  11  13
ENDBRANCH   7   9
ENDBRANCH   6   7
ENDBRANCH   5   6
ENDBRANCH   1   5
BRANCH   2  24
ATOM     24  C   UNL     1      28.516  14.772  -0.179  0.00  0.00    +0.152 C 
BRANCH  24  25
ATOM     25  C   UNL     1      29.584  14.245   0.802  0.00  0.00    +0.193 C 
ATOM     26  O   UNL     1      29.784  12.849   0.487  0.00  0.00    -0.219 OA
BRANCH  25  27
ATOM     27  C   UNL     1      30.996  14.865   0.722  0.00  0.00    +0.212 C 
ATOM     28  O   UNL     1      30.995  16.189   1.279  0.00  0.00    -0.218 OA
BRANCH  27  29
ATOM     29  C   UNL     1      32.096  14.009   1.459  0.00  0.00    +0.171 C 
ATOM     30  O   UNL     1      32.487  14.576   2.705  0.00  0.00    -0.343 OA
ATOM     31  C   UNL     1      33.600  14.166   3.442  0.00  0.00    +0.220 C 
ATOM     32  C   UNL     1      34.871  14.117   2.577  0.00  0.00    +0.076 C 
ATOM     33  C   UNL     1      34.558  13.253   1.343  0.00  0.00    +0.177 C 
ATOM     34  O   UNL     1      35.715  13.142   0.527  0.00  0.00    -0.221 OA
ATOM     35  C   UNL     1      33.361  13.863   0.550  0.00  0.00    +0.155 C 
BRANCH  35  36
ATOM     36  N   UNL     1      33.064  13.049  -0.626  0.00  0.00    -0.202 NA
ATOM     37  C   UNL     1      33.102  13.380  -1.942  0.00  0.00    +0.242 C 
ATOM     38  C   UNL     1      33.037  12.271  -2.960  0.00  0.00    +0.096 C 
ATOM     39  O   UNL     1      33.189  14.562  -2.269  0.00  0.00    -0.273 OA
ENDBRANCH  35  36
BRANCH  31  40
ATOM     40  C   UNL     1      33.369  12.771   4.243  0.00  0.00    +0.391 C 
ATOM     41  O   UNL     1      34.602  12.373   4.611  0.00  0.00    -0.243 OA
ATOM     42  O   UNL     1      32.056  12.702   4.493  0.00  0.00    -0.243 OA
ENDBRANCH  31  40
ENDBRANCH  27  29
ENDBRANCH  25  27
ENDBRANCH  24  25
ENDBRANCH   2  24
TORSDOF 17
