REMARK VINA RESULT:    -7.730      1.677      3.464
REMARK INTER + INTRA:         -13.765
REMARK INTER:                 -12.760
REMARK INTRA:                  -1.005
REMARK UNBOUND:                -1.064
REMARK  Name = lig_assembled_27.pdb
REMARK  11 active torsions:
REMARK  status: ('A' for Active; 'I' for Inactive)
REMARK    1  A    between atoms: _2  and  _8
REMARK    2  A    between atoms: _5  and  _6
REMARK    3  A    between atoms: _5  and  _13
REMARK    4  A    between atoms: _13  and  _15
REMARK    5  A    between atoms: _14  and  _19
REMARK    6  A    between atoms: _15  and  _18
REMARK    7  A    between atoms: _23  and  _33
REMARK    8  A    between atoms: _25  and  _26
REMARK    9  A    between atoms: _27  and  _29
REMARK   10  A    between atoms: _29  and  _31
REMARK   11  A    between atoms: _31  and  _33
REMARK                            x       y       z     vdW  Elec       q    Type
REMARK                         _______ _______ _______ _____ _____    ______ ____
ROOT
ATOM      1  C   UNL     1      28.508  16.988  -0.527  0.00  0.00    +0.400 C 
ATOM      2  N   UNL     1      28.769  15.869   0.229  0.00  0.00    -0.278 N 
ATOM      3  H   UNL     1      29.390  16.242   1.015  0.00  0.00    +0.152 HD
ATOM      4  O   UNL     1      28.845  18.081  -0.080  0.00  0.00    -0.226 OA
ENDROOT
BRANCH   1   5
ATOM      5  O   UNL     1      27.949  16.771  -1.673  0.00  0.00    -0.450 OA
BRANCH   5   6
ATOM      6  C   UNL     1      27.051  17.397  -2.559  0.00  0.00    +0.240 C 
BRANCH   6   7
ATOM      7  C   UNL     1      26.783  16.703  -3.907  0.00  0.00    +0.100 C 
BRANCH   7   9
ATOM      8  N   UNL     1      25.142  15.123  -4.877  0.00  0.00    -0.134 NA
ATOM      9  C   UNL     1      25.528  15.932  -3.847  0.00  0.00    +0.086 A 
ATOM     10  C   UNL     1      24.583  15.866  -2.848  0.00  0.00    +0.139 A 
ATOM     11  N   UNL     1      23.630  14.989  -3.314  0.00  0.00    -0.220 N 
ATOM     12  N   UNL     1      23.990  14.555  -4.547  0.00  0.00    -0.061 NA
BRANCH  11  13
ATOM     13  C   UNL     1      22.440  14.551  -2.678  0.00  0.00    +0.068 A 
ATOM     14  C   UNL     1      21.197  15.020  -3.133  0.00  0.00    +0.028 A 
ATOM     15  C   UNL     1      20.017  14.598  -2.514  0.00  0.00    +0.003 A 
ATOM     16  C   UNL     1      20.071  13.710  -1.440  0.00  0.00    +0.020 A 
ATOM     17  C   UNL     1      21.304  13.243  -0.991  0.00  0.00    +0.043 A 
ATOM     18 CL   UNL     1      21.369  12.145   0.333  0.00  0.00    -0.083 Cl
ATOM     19  C   UNL     1      22.490  13.655  -1.602  0.00  0.00    +0.047 A 
ENDBRANCH  11  13
ENDBRANCH   7   9
ENDBRANCH   6   7
ENDBRANCH   5   6
ENDBRANCH   1   5
BRANCH   2  20
ATOM     20  C   UNL     1      28.570  14.438   0.444  0.00  0.00    +0.152 C 
BRANCH  20  21
ATOM     21  C   UNL     1      28.588  13.962   1.911  0.00  0.00    +0.193 C 
ATOM     22  O   UNL     1      27.549  12.966   2.036  0.00  0.00    -0.219 OA
BRANCH  21  23
ATOM     23  C   UNL     1      29.863  13.254   2.418  0.00  0.00    +0.212 C 
ATOM     24  O   UNL     1      29.735  11.830   2.281  0.00  0.00    -0.218 OA
BRANCH  23  25
ATOM     25  C   UNL     1      31.172  13.716   1.671  0.00  0.00    +0.171 C 
ATOM     26  O   UNL     1      31.081  13.561   0.258  0.00  0.00    -0.343 OA
ATOM     27  C   UNL     1      32.164  13.660  -0.617  0.00  0.00    +0.220 C 
ATOM     28  C   UNL     1      33.345  12.782  -0.166  0.00  0.00    +0.076 C 
ATOM     29  C   UNL     1      33.658  13.144   1.295  0.00  0.00    +0.177 C 
ATOM     30  O   UNL     1      34.770  12.388   1.751  0.00  0.00    -0.221 OA
ATOM     31  C   UNL     1      32.403  12.902   2.190  0.00  0.00    +0.155 C 
BRANCH  31  32
ATOM     32  N   UNL     1      32.698  13.239   3.581  0.00  0.00    -0.202 NA
ATOM     33  C   UNL     1      32.823  12.428   4.662  0.00  0.00    +0.242 C 
ATOM     34  C   UNL     1      33.422  13.000   5.920  0.00  0.00    +0.096 C 
ATOM     35  O   UNL     1      32.450  11.259   4.591  0.00  0.00    -0.273 OA
ENDBRANCH  31  32
BRANCH  27  36
ATOM     36  C   UNL     1      32.632  15.190  -0.898  0.00  0.00    +0.391 C 
ATOM     37  O   UNL     1      33.747  15.081  -1.647  0.00  0.00    -0.243 OA
ATOM     38  O   UNL     1      31.596  15.963  -0.551  0.00  0.00    -0.243 OA
ENDBRANCH  27  36
ENDBRANCH  23  25
ENDBRANCH  21  23
ENDBRANCH  20  21
ENDBRANCH   2  20
TORSDOF 11
