REMARK VINA RESULT:    -6.226      1.732      2.780
REMARK INTER + INTRA:         -14.200
REMARK INTER:                 -11.584
REMARK INTRA:                  -2.616
REMARK UNBOUND:                -2.880
REMARK  Name = lig_assembled_21.pdb
REMARK  15 active torsions:
REMARK  status: ('A' for Active; 'I' for Inactive)
REMARK    1  A    between atoms: _2  and  _8
REMARK    2  A    between atoms: _5  and  _6
REMARK    3  A    between atoms: _5  and  _18
REMARK    4  A    between atoms: _8  and  _9
REMARK    5  A    between atoms: _10  and  _17
REMARK    6  A    between atoms: _11  and  _12
REMARK    7  A    between atoms: _11  and  _17
REMARK    8  A    between atoms: _18  and  _20
REMARK    9  A    between atoms: _19  and  _24
REMARK   10  A    between atoms: _20  and  _23
REMARK   11  A    between atoms: _28  and  _38
REMARK   12  A    between atoms: _30  and  _31
REMARK   13  A    between atoms: _32  and  _34
REMARK   14  A    between atoms: _34  and  _36
REMARK   15  A    between atoms: _36  and  _38
REMARK                            x       y       z     vdW  Elec       q    Type
REMARK                         _______ _______ _______ _____ _____    ______ ____
ROOT
ATOM      1  C   UNL     1      28.581  17.054  -0.630  0.00  0.00    +0.400 C 
ATOM      2  N   UNL     1      28.689  15.891   0.096  0.00  0.00    -0.278 N 
ATOM      3  H   UNL     1      29.286  16.177   0.934  0.00  0.00    +0.152 HD
ATOM      4  O   UNL     1      28.984  18.095  -0.118  0.00  0.00    -0.226 OA
ENDROOT
BRANCH   2   5
ATOM      5  C   UNL     1      28.349  14.477   0.239  0.00  0.00    +0.152 C 
BRANCH   5   6
ATOM      6  C   UNL     1      28.945  13.756   1.465  0.00  0.00    +0.193 C 
ATOM      7  O   UNL     1      27.885  13.650   2.440  0.00  0.00    -0.219 OA
BRANCH   6   8
ATOM      8  C   UNL     1      29.437  12.305   1.271  0.00  0.00    +0.212 C 
ATOM      9  O   UNL     1      29.560  11.999  -0.128  0.00  0.00    -0.218 OA
BRANCH   8  10
ATOM     10  C   UNL     1      30.818  12.015   1.973  0.00  0.00    +0.171 C 
ATOM     11  O   UNL     1      30.700  11.896   3.387  0.00  0.00    -0.343 OA
ATOM     12  C   UNL     1      31.782  11.883   4.271  0.00  0.00    +0.220 C 
ATOM     13  C   UNL     1      32.738  13.061   4.018  0.00  0.00    +0.076 C 
ATOM     14  C   UNL     1      33.118  13.038   2.528  0.00  0.00    +0.177 C 
ATOM     15  O   UNL     1      34.036  14.086   2.249  0.00  0.00    -0.221 OA
ATOM     16  C   UNL     1      31.838  13.154   1.645  0.00  0.00    +0.155 C 
BRANCH  16  17
ATOM     17  N   UNL     1      32.195  13.139   0.229  0.00  0.00    -0.202 NA
ATOM     18  C   UNL     1      32.202  14.151  -0.676  0.00  0.00    +0.242 C 
ATOM     19  C   UNL     1      32.895  13.927  -1.995  0.00  0.00    +0.096 C 
ATOM     20  O   UNL     1      31.651  15.215  -0.401  0.00  0.00    -0.273 OA
ENDBRANCH  16  17
BRANCH  12  21
ATOM     21  C   UNL     1      32.575  10.466   4.301  0.00  0.00    +0.391 C 
ATOM     22  O   UNL     1      31.781   9.608   3.631  0.00  0.00    -0.243 OA
ATOM     23  O   UNL     1      33.821  10.748   4.702  0.00  0.00    -0.243 OA
ENDBRANCH  12  21
ENDBRANCH   8  10
ENDBRANCH   6   8
ENDBRANCH   5   6
ENDBRANCH   2   5
BRANCH   1  24
ATOM     24  O   UNL     1      28.085  16.929  -1.817  0.00  0.00    -0.450 OA
BRANCH  24  25
ATOM     25  C   UNL     1      26.911  17.254  -2.524  0.00  0.00    +0.240 C 
BRANCH  25  26
ATOM     26  C   UNL     1      26.726  16.632  -3.921  0.00  0.00    +0.100 C 
BRANCH  26  28
ATOM     27  N   UNL     1      24.895  15.145  -4.660  0.00  0.00    -0.134 NA
ATOM     28  C   UNL     1      25.951  15.381  -3.823  0.00  0.00    +0.086 A 
ATOM     29  C   UNL     1      26.121  14.293  -2.996  0.00  0.00    +0.134 A 
ATOM     30  N   UNL     1      25.194  13.390  -3.441  0.00  0.00    -0.247 N 
ATOM     31  N   UNL     1      24.438  13.926  -4.415  0.00  0.00    -0.065 NA
BRANCH  30  32
ATOM     32  C   UNL     1      25.074  12.001  -3.008  0.00  0.00    +0.184 C 
BRANCH  32  33
ATOM     33  C   UNL     1      24.950  11.787  -1.519  0.00  0.00    +0.016 A 
ATOM     34  C   UNL     1      23.722  11.926  -0.848  0.00  0.00    +0.137 A 
ATOM     35  C   UNL     1      23.626  11.719   0.528  0.00  0.00    +0.047 A 
ATOM     36  C   UNL     1      24.762  11.354   1.252  0.00  0.00    +0.004 A 
ATOM     37  C   UNL     1      25.990  11.225   0.609  0.00  0.00    +0.001 A 
ATOM     38  C   UNL     1      26.084  11.437  -0.768  0.00  0.00    +0.009 A 
BRANCH  34  39
ATOM     39  O   UNL     1      22.618  12.364  -1.619  0.00  0.00    -0.426 OA
BRANCH  39  40
ATOM     40  C   UNL     1      22.044  13.627  -1.458  0.00  0.00    +0.309 C 
ATOM     41  O   UNL     1      22.543  14.709  -1.739  0.00  0.00    -0.251 OA
ATOM     42  C   UNL     1      20.644  13.463  -0.944  0.00  0.00    +0.136 C 
ENDBRANCH  39  40
ENDBRANCH  34  39
ENDBRANCH  32  33
ENDBRANCH  30  32
ENDBRANCH  26  28
ENDBRANCH  25  26
ENDBRANCH  24  25
ENDBRANCH   1  24
TORSDOF 14
