REMARK VINA RESULT:    -7.312      3.041      5.738
REMARK INTER + INTRA:         -15.058
REMARK INTER:                 -12.938
REMARK INTRA:                  -2.120
REMARK UNBOUND:                -1.120
REMARK  Name = lig_assembled_76.pdb
REMARK  16 active torsions:
REMARK  status: ('A' for Active; 'I' for Inactive)
REMARK    1  A    between atoms: _2  and  _8
REMARK    2  A    between atoms: _5  and  _6
REMARK    3  A    between atoms: _5  and  _18
REMARK    4  A    between atoms: _8  and  _9
REMARK    5  A    between atoms: _9  and  _10
REMARK    6  A    between atoms: _9  and  _17
REMARK    7  A    between atoms: _10  and  _11
REMARK    8  A    between atoms: _11  and  _12
REMARK    9  A    between atoms: _18  and  _20
REMARK   10  A    between atoms: _19  and  _24
REMARK   11  A    between atoms: _20  and  _23
REMARK   12  A    between atoms: _28  and  _38
REMARK   13  A    between atoms: _30  and  _31
REMARK   14  A    between atoms: _32  and  _34
REMARK   15  A    between atoms: _34  and  _36
REMARK   16  A    between atoms: _36  and  _38
REMARK                            x       y       z     vdW  Elec       q    Type
REMARK                         _______ _______ _______ _____ _____    ______ ____
ROOT
ATOM      1  C   UNL     1      31.777  14.970  -0.519  0.00  0.00    +0.400 C 
ATOM      2  N   UNL     1      32.765  14.439   0.277  0.00  0.00    -0.278 N 
ATOM      3  H   UNL     1      33.295  15.301   0.621  0.00  0.00    +0.152 HD
ATOM      4  O   UNL     1      31.615  16.187  -0.507  0.00  0.00    -0.226 OA
ENDROOT
BRANCH   1   5
ATOM      5  O   UNL     1      31.122  14.120  -1.239  0.00  0.00    -0.450 OA
BRANCH   5   6
ATOM      6  C   UNL     1      29.938  13.359  -1.182  0.00  0.00    +0.240 C 
BRANCH   6   7
ATOM      7  C   UNL     1      28.743  13.960  -0.417  0.00  0.00    +0.100 C 
BRANCH   7   9
ATOM      8  N   UNL     1      28.259  16.237  -1.269  0.00  0.00    -0.134 NA
ATOM      9  C   UNL     1      27.997  14.891  -1.279  0.00  0.00    +0.086 A 
ATOM     10  C   UNL     1      26.978  14.635  -2.168  0.00  0.00    +0.133 A 
ATOM     11  N   UNL     1      26.669  15.863  -2.670  0.00  0.00    -0.249 N 
ATOM     12  N   UNL     1      27.429  16.825  -2.123  0.00  0.00    -0.065 NA
BRANCH  11  13
ATOM     13  C   UNL     1      25.583  16.206  -3.560  0.00  0.00    +0.176 C 
BRANCH  13  14
ATOM     14  C   UNL     1      24.219  15.734  -3.048  0.00  0.00    +0.136 C 
BRANCH  14  15
ATOM     15  O   UNL     1      23.256  16.793  -3.156  0.00  0.00    -0.390 OA
ATOM     16  H   UNL     1      23.557  17.550  -2.625  0.00  0.00    +0.210 HD
ENDBRANCH  14  15
BRANCH  14  17
ATOM     17  C   UNL     1      23.675  14.537  -3.844  0.00  0.00    +0.038 C 
BRANCH  17  18
ATOM     18  C   UNL     1      22.166  14.342  -3.696  0.00  0.00    +0.038 C 
BRANCH  18  19
ATOM     19  C   UNL     1      21.807  13.628  -2.419  0.00  0.00    -0.047 A 
ATOM     20  C   UNL     1      22.519  12.488  -2.023  0.00  0.00    +0.003 A 
ATOM     21  C   UNL     1      22.202  11.835  -0.831  0.00  0.00    +0.000 A 
ATOM     22  C   UNL     1      21.168  12.313  -0.029  0.00  0.00    +0.000 A 
ATOM     23  C   UNL     1      20.447  13.440  -0.420  0.00  0.00    +0.000 A 
ATOM     24  C   UNL     1      20.762  14.094  -1.612  0.00  0.00    +0.003 A 
ENDBRANCH  18  19
ENDBRANCH  17  18
ENDBRANCH  14  17
ENDBRANCH  13  14
ENDBRANCH  11  13
ENDBRANCH   7   9
ENDBRANCH   6   7
ENDBRANCH   5   6
ENDBRANCH   1   5
BRANCH   2  25
ATOM     25  C   UNL     1      33.391  13.256   0.860  0.00  0.00    +0.152 C 
BRANCH  25  26
ATOM     26  C   UNL     1      33.659  13.307   2.378  0.00  0.00    +0.193 C 
ATOM     27  O   UNL     1      34.636  14.350   2.593  0.00  0.00    -0.219 OA
BRANCH  26  28
ATOM     28  C   UNL     1      32.480  13.688   3.300  0.00  0.00    +0.212 C 
ATOM     29  O   UNL     1      31.903  14.937   2.886  0.00  0.00    -0.218 OA
BRANCH  28  30
ATOM     30  C   UNL     1      31.343  12.597   3.343  0.00  0.00    +0.171 C 
ATOM     31  O   UNL     1      30.130  13.047   2.749  0.00  0.00    -0.343 OA
ATOM     32  C   UNL     1      28.904  12.387   2.864  0.00  0.00    +0.220 C 
ATOM     33  C   UNL     1      28.568  12.060   4.329  0.00  0.00    +0.076 C 
ATOM     34  C   UNL     1      29.768  11.304   4.922  0.00  0.00    +0.177 C 
ATOM     35  O   UNL     1      29.493  10.941   6.267  0.00  0.00    -0.221 OA
ATOM     36  C   UNL     1      31.057  12.178   4.822  0.00  0.00    +0.155 C 
BRANCH  36  37
ATOM     37  N   UNL     1      32.198  11.466   5.391  0.00  0.00    -0.202 NA
ATOM     38  C   UNL     1      32.817  11.632   6.587  0.00  0.00    +0.242 C 
ATOM     39  C   UNL     1      33.781  10.570   7.048  0.00  0.00    +0.096 C 
ATOM     40  O   UNL     1      32.579  12.633   7.260  0.00  0.00    -0.273 OA
ENDBRANCH  36  37
BRANCH  32  41
ATOM     41  C   UNL     1      28.785  11.073   1.916  0.00  0.00    +0.391 C 
ATOM     42  O   UNL     1      30.001  10.941   1.350  0.00  0.00    -0.243 OA
ATOM     43  O   UNL     1      27.653  10.457   2.279  0.00  0.00    -0.243 OA
ENDBRANCH  32  41
ENDBRANCH  28  30
ENDBRANCH  26  28
ENDBRANCH  25  26
ENDBRANCH   2  25
TORSDOF 16
