REMARK VINA RESULT:    -8.038      2.108      3.306
REMARK INTER + INTRA:         -16.442
REMARK INTER:                 -14.612
REMARK INTRA:                  -1.830
REMARK UNBOUND:                -1.120
REMARK  Name = lig_assembled_76.pdb
REMARK  16 active torsions:
REMARK  status: ('A' for Active; 'I' for Inactive)
REMARK    1  A    between atoms: _2  and  _8
REMARK    2  A    between atoms: _5  and  _6
REMARK    3  A    between atoms: _5  and  _18
REMARK    4  A    between atoms: _8  and  _9
REMARK    5  A    between atoms: _9  and  _10
REMARK    6  A    between atoms: _9  and  _17
REMARK    7  A    between atoms: _10  and  _11
REMARK    8  A    between atoms: _11  and  _12
REMARK    9  A    between atoms: _18  and  _20
REMARK   10  A    between atoms: _19  and  _24
REMARK   11  A    between atoms: _20  and  _23
REMARK   12  A    between atoms: _28  and  _38
REMARK   13  A    between atoms: _30  and  _31
REMARK   14  A    between atoms: _32  and  _34
REMARK   15  A    between atoms: _34  and  _36
REMARK   16  A    between atoms: _36  and  _38
REMARK                            x       y       z     vdW  Elec       q    Type
REMARK                         _______ _______ _______ _____ _____    ______ ____
ROOT
ATOM      1  C   UNL     1      28.288  17.684  -0.552  0.00  0.00    +0.400 C 
ATOM      2  N   UNL     1      29.432  17.725   0.211  0.00  0.00    -0.278 N 
ATOM      3  H   UNL     1      29.318  18.623   0.779  0.00  0.00    +0.152 HD
ATOM      4  O   UNL     1      27.396  18.492  -0.302  0.00  0.00    -0.226 OA
ENDROOT
BRANCH   1   5
ATOM      5  O   UNL     1      28.276  16.802  -1.496  0.00  0.00    -0.450 OA
BRANCH   5   6
ATOM      6  C   UNL     1      27.361  15.966  -2.165  0.00  0.00    +0.240 C 
BRANCH   6   7
ATOM      7  C   UNL     1      26.592  16.563  -3.359  0.00  0.00    +0.100 C 
BRANCH   7   9
ATOM      8  N   UNL     1      25.198  15.268  -4.948  0.00  0.00    -0.134 NA
ATOM      9  C   UNL     1      25.416  15.736  -3.678  0.00  0.00    +0.086 A 
ATOM     10  C   UNL     1      24.391  15.319  -2.860  0.00  0.00    +0.133 A 
ATOM     11  N   UNL     1      23.587  14.597  -3.689  0.00  0.00    -0.249 N 
ATOM     12  N   UNL     1      24.065  14.575  -4.944  0.00  0.00    -0.065 NA
BRANCH  11  13
ATOM     13  C   UNL     1      22.296  14.022  -3.388  0.00  0.00    +0.176 C 
BRANCH  13  14
ATOM     14  C   UNL     1      21.552  14.774  -2.280  0.00  0.00    +0.136 C 
BRANCH  14  15
ATOM     15  O   UNL     1      20.910  15.940  -2.817  0.00  0.00    -0.390 OA
ATOM     16  H   UNL     1      20.346  15.676  -3.564  0.00  0.00    +0.210 HD
ENDBRANCH  14  15
BRANCH  14  17
ATOM     17  C   UNL     1      20.463  13.915  -1.617  0.00  0.00    +0.038 C 
BRANCH  17  18
ATOM     18  C   UNL     1      20.739  12.413  -1.696  0.00  0.00    +0.038 C 
BRANCH  18  19
ATOM     19  C   UNL     1      21.218  11.854  -0.382  0.00  0.00    -0.047 A 
ATOM     20  C   UNL     1      20.984  12.552   0.811  0.00  0.00    +0.003 A 
ATOM     21  C   UNL     1      21.411  12.027   2.031  0.00  0.00    +0.000 A 
ATOM     22  C   UNL     1      22.079  10.806   2.069  0.00  0.00    +0.000 A 
ATOM     23  C   UNL     1      22.326  10.109   0.887  0.00  0.00    +0.000 A 
ATOM     24  C   UNL     1      21.901  10.632  -0.335  0.00  0.00    +0.003 A 
ENDBRANCH  18  19
ENDBRANCH  17  18
ENDBRANCH  14  17
ENDBRANCH  13  14
ENDBRANCH  11  13
ENDBRANCH   7   9
ENDBRANCH   6   7
ENDBRANCH   5   6
ENDBRANCH   1   5
BRANCH   2  25
ATOM     25  C   UNL     1      30.695  17.099   0.593  0.00  0.00    +0.152 C 
BRANCH  25  26
ATOM     26  C   UNL     1      30.879  15.627   0.169  0.00  0.00    +0.193 C 
ATOM     27  O   UNL     1      31.968  15.602  -0.781  0.00  0.00    -0.219 OA
BRANCH  26  28
ATOM     28  C   UNL     1      31.297  14.616   1.259  0.00  0.00    +0.212 C 
ATOM     29  O   UNL     1      31.626  15.300   2.479  0.00  0.00    -0.218 OA
BRANCH  28  30
ATOM     30  C   UNL     1      30.188  13.539   1.570  0.00  0.00    +0.171 C 
ATOM     31  O   UNL     1      30.071  13.259   2.961  0.00  0.00    -0.343 OA
ATOM     32  C   UNL     1      29.350  12.186   3.490  0.00  0.00    +0.220 C 
ATOM     33  C   UNL     1      29.730  10.856   2.816  0.00  0.00    +0.076 C 
ATOM     34  C   UNL     1      29.581  11.048   1.297  0.00  0.00    +0.177 C 
ATOM     35  O   UNL     1      29.882   9.833   0.626  0.00  0.00    -0.221 OA
ATOM     36  C   UNL     1      30.504  12.209   0.810  0.00  0.00    +0.155 C 
BRANCH  36  37
ATOM     37  N   UNL     1      30.371  12.391  -0.633  0.00  0.00    -0.202 NA
ATOM     38  C   UNL     1      31.296  12.244  -1.615  0.00  0.00    +0.242 C 
ATOM     39  C   UNL     1      30.822  12.205  -3.045  0.00  0.00    +0.096 C 
ATOM     40  O   UNL     1      32.486  12.147  -1.319  0.00  0.00    -0.273 OA
ENDBRANCH  36  37
BRANCH  32  41
ATOM     41  C   UNL     1      27.743  12.420   3.486  0.00  0.00    +0.391 C 
ATOM     42  O   UNL     1      27.214  11.203   3.720  0.00  0.00    -0.243 OA
ATOM     43  O   UNL     1      27.562  13.745   3.556  0.00  0.00    -0.243 OA
ENDBRANCH  32  41
ENDBRANCH  28  30
ENDBRANCH  26  28
ENDBRANCH  25  26
ENDBRANCH   2  25
TORSDOF 16
