REMARK VINA RESULT:    -7.467     24.054     27.137
REMARK INTER + INTRA:         -14.621
REMARK INTER:                 -12.105
REMARK INTRA:                  -2.516
REMARK UNBOUND:                -1.480
REMARK  Name = lig_assembled_58.pdb
REMARK  13 active torsions:
REMARK  status: ('A' for Active; 'I' for Inactive)
REMARK    1  A    between atoms: _2  and  _8
REMARK    2  A    between atoms: _5  and  _6
REMARK    3  A    between atoms: _5  and  _20
REMARK    4  A    between atoms: _8  and  _9
REMARK    5  A    between atoms: _8  and  _15
REMARK    6  A    between atoms: _20  and  _22
REMARK    7  A    between atoms: _21  and  _26
REMARK    8  A    between atoms: _22  and  _25
REMARK    9  A    between atoms: _30  and  _40
REMARK   10  A    between atoms: _32  and  _33
REMARK   11  A    between atoms: _34  and  _36
REMARK   12  A    between atoms: _36  and  _38
REMARK   13  A    between atoms: _38  and  _40
REMARK                            x       y       z     vdW  Elec       q    Type
REMARK                         _______ _______ _______ _____ _____    ______ ____
ROOT
ATOM      1  C   UNL     1      29.968  42.569   4.768  0.00  0.00    +0.400 C 
ATOM      2  N   UNL     1      31.171  42.419   5.417  0.00  0.00    -0.278 N 
ATOM      3  H   UNL     1      31.844  43.006   4.829  0.00  0.00    +0.152 HD
ATOM      4  O   UNL     1      29.894  43.405   3.870  0.00  0.00    -0.226 OA
ENDROOT
BRANCH   2   5
ATOM      5  C   UNL     1      31.920  41.844   6.531  0.00  0.00    +0.152 C 
BRANCH   5   6
ATOM      6  C   UNL     1      33.330  41.313   6.199  0.00  0.00    +0.193 C 
ATOM      7  O   UNL     1      34.052  41.244   7.449  0.00  0.00    -0.219 OA
BRANCH   6   8
ATOM      8  C   UNL     1      33.438  39.889   5.612  0.00  0.00    +0.212 C 
ATOM      9  O   UNL     1      32.211  39.520   4.962  0.00  0.00    -0.218 OA
BRANCH   8  10
ATOM     10  C   UNL     1      34.622  39.726   4.583  0.00  0.00    +0.171 C 
ATOM     11  O   UNL     1      34.165  39.541   3.248  0.00  0.00    -0.343 OA
ATOM     12  C   UNL     1      34.977  39.133   2.187  0.00  0.00    +0.220 C 
ATOM     13  C   UNL     1      35.789  37.874   2.541  0.00  0.00    +0.076 C 
ATOM     14  C   UNL     1      36.535  38.160   3.854  0.00  0.00    +0.177 C 
ATOM     15  O   UNL     1      37.335  37.040   4.207  0.00  0.00    -0.221 OA
ATOM     16  C   UNL     1      35.518  38.509   4.985  0.00  0.00    +0.155 C 
BRANCH  16  17
ATOM     17  N   UNL     1      36.223  38.774   6.237  0.00  0.00    -0.202 NA
ATOM     18  C   UNL     1      37.091  39.770   6.550  0.00  0.00    +0.242 C 
ATOM     19  C   UNL     1      37.444  39.981   7.999  0.00  0.00    +0.096 C 
ATOM     20  O   UNL     1      37.561  40.470   5.655  0.00  0.00    -0.273 OA
ENDBRANCH  16  17
BRANCH  12  21
ATOM     21  C   UNL     1      35.930  40.315   1.609  0.00  0.00    +0.391 C 
ATOM     22  O   UNL     1      36.906  39.677   0.935  0.00  0.00    -0.243 OA
ATOM     23  O   UNL     1      35.238  41.452   1.756  0.00  0.00    -0.243 OA
ENDBRANCH  12  21
ENDBRANCH   8  10
ENDBRANCH   6   8
ENDBRANCH   5   6
ENDBRANCH   2   5
BRANCH   1  24
ATOM     24  O   UNL     1      29.021  41.779   5.154  0.00  0.00    -0.450 OA
BRANCH  24  25
ATOM     25  C   UNL     1      27.614  41.746   5.212  0.00  0.00    +0.240 C 
BRANCH  25  26
ATOM     26  C   UNL     1      26.914  40.445   4.774  0.00  0.00    +0.100 C 
BRANCH  26  28
ATOM     27  N   UNL     1      28.374  38.463   4.436  0.00  0.00    -0.134 NA
ATOM     28  C   UNL     1      27.658  39.273   5.274  0.00  0.00    +0.086 A 
ATOM     29  C   UNL     1      27.801  38.820   6.564  0.00  0.00    +0.134 A 
ATOM     30  N   UNL     1      28.739  37.828   6.472  0.00  0.00    -0.240 N 
ATOM     31  N   UNL     1      29.018  37.567   5.175  0.00  0.00    -0.065 NA
BRANCH  30  32
ATOM     32  C   UNL     1      29.447  37.106   7.545  0.00  0.00    +0.169 C 
BRANCH  32  33
ATOM     33  C   UNL     1      28.621  35.950   8.128  0.00  0.00    -0.019 A 
ATOM     34  C   UNL     1      29.236  34.900   8.834  0.00  0.00    +0.006 A 
ATOM     35  C   UNL     1      28.479  33.848   9.360  0.00  0.00    +0.000 A 
ATOM     36  C   UNL     1      27.096  33.839   9.212  0.00  0.00    +0.000 A 
ATOM     37  C   UNL     1      26.463  34.893   8.567  0.00  0.00    +0.000 A 
ATOM     38  C   UNL     1      27.215  35.945   8.047  0.00  0.00    +0.006 A 
ENDBRANCH  32  33
BRANCH  32  39
ATOM     39  C   UNL     1      29.983  38.103   8.582  0.00  0.00    -0.019 A 
ATOM     40  C   UNL     1      31.287  38.615   8.461  0.00  0.00    +0.006 A 
ATOM     41  C   UNL     1      31.805  39.478   9.430  0.00  0.00    +0.000 A 
ATOM     42  C   UNL     1      31.029  39.855  10.524  0.00  0.00    +0.000 A 
ATOM     43  C   UNL     1      29.739  39.358  10.663  0.00  0.00    +0.000 A 
ATOM     44  C   UNL     1      29.226  38.482   9.708  0.00  0.00    +0.006 A 
ENDBRANCH  32  39
ENDBRANCH  30  32
ENDBRANCH  26  28
ENDBRANCH  25  26
ENDBRANCH  24  25
ENDBRANCH   1  24
TORSDOF 13
