REMARK VINA RESULT:    -6.535      1.750      2.332
REMARK INTER + INTRA:         -14.221
REMARK INTER:                 -11.974
REMARK INTRA:                  -2.247
REMARK UNBOUND:                -2.911
REMARK  Name = lig_assembled_23.pdb
REMARK  13 active torsions:
REMARK  status: ('A' for Active; 'I' for Inactive)
REMARK    1  A    between atoms: _2  and  _9
REMARK    2  A    between atoms: _3  and  _44
REMARK    3  A    between atoms: _6  and  _7
REMARK    4  A    between atoms: _6  and  _16
REMARK    5  A    between atoms: _11  and  _44
REMARK    6  A    between atoms: _16  and  _18
REMARK    7  A    between atoms: _17  and  _22
REMARK    8  A    between atoms: _18  and  _21
REMARK    9  A    between atoms: _26  and  _36
REMARK   10  A    between atoms: _28  and  _29
REMARK   11  A    between atoms: _30  and  _32
REMARK   12  A    between atoms: _32  and  _34
REMARK   13  A    between atoms: _34  and  _36
REMARK                            x       y       z     vdW  Elec       q    Type
REMARK                         _______ _______ _______ _____ _____    ______ ____
ROOT
ATOM      1  C   UNL     1      28.041  17.193  -0.893  0.00  0.00    +0.400 C 
ATOM      2  N   UNL     1      28.433  16.314   0.089  0.00  0.00    -0.278 N 
ATOM      3  H   UNL     1      28.740  16.955   0.887  0.00  0.00    +0.152 HD
ATOM      4  O   UNL     1      27.953  18.384  -0.603  0.00  0.00    -0.226 OA
ENDROOT
BRANCH   2   5
ATOM      5  C   UNL     1      28.602  14.930   0.525  0.00  0.00    +0.152 C 
BRANCH   5   6
ATOM      6  C   UNL     1      29.929  14.250   0.131  0.00  0.00    +0.193 C 
ATOM      7  O   UNL     1      29.950  14.185  -1.312  0.00  0.00    -0.219 OA
BRANCH   6   8
ATOM      8  C   UNL     1      31.242  14.975   0.502  0.00  0.00    +0.212 C 
ATOM      9  O   UNL     1      30.964  16.139   1.297  0.00  0.00    -0.218 OA
BRANCH   8  10
ATOM     10  C   UNL     1      32.259  14.061   1.286  0.00  0.00    +0.171 C 
ATOM     11  O   UNL     1      32.600  14.591   2.563  0.00  0.00    -0.343 OA
ATOM     12  C   UNL     1      33.650  14.122   3.356  0.00  0.00    +0.220 C 
ATOM     13  C   UNL     1      34.966  14.030   2.564  0.00  0.00    +0.076 C 
ATOM     14  C   UNL     1      34.689  13.199   1.300  0.00  0.00    +0.177 C 
ATOM     15  O   UNL     1      35.886  13.050   0.550  0.00  0.00    -0.221 OA
ATOM     16  C   UNL     1      33.567  13.873   0.450  0.00  0.00    +0.155 C 
BRANCH  16  17
ATOM     17  N   UNL     1      33.305  13.091  -0.755  0.00  0.00    -0.202 NA
ATOM     18  C   UNL     1      33.331  13.469  -2.058  0.00  0.00    +0.242 C 
ATOM     19  C   UNL     1      33.312  12.396  -3.116  0.00  0.00    +0.096 C 
ATOM     20  O   UNL     1      33.370  14.665  -2.343  0.00  0.00    -0.273 OA
ENDBRANCH  16  17
BRANCH  12  21
ATOM     21  C   UNL     1      33.313  12.727   4.117  0.00  0.00    +0.391 C 
ATOM     22  O   UNL     1      31.991  12.541   3.933  0.00  0.00    -0.243 OA
ATOM     23  O   UNL     1      34.494  12.149   4.371  0.00  0.00    -0.243 OA
ENDBRANCH  12  21
ENDBRANCH   8  10
ENDBRANCH   6   8
ENDBRANCH   5   6
ENDBRANCH   2   5
BRANCH   1  24
ATOM     24  O   UNL     1      27.827  16.673  -2.057  0.00  0.00    -0.450 OA
BRANCH  24  25
ATOM     25  C   UNL     1      26.748  16.361  -2.906  0.00  0.00    +0.240 C 
BRANCH  25  26
ATOM     26  C   UNL     1      26.751  14.976  -3.581  0.00  0.00    +0.100 C 
BRANCH  26  28
ATOM     27  N   UNL     1      27.327  12.747  -2.680  0.00  0.00    -0.134 NA
ATOM     28  C   UNL     1      26.629  13.913  -2.566  0.00  0.00    +0.086 A 
ATOM     29  C   UNL     1      25.871  13.874  -1.418  0.00  0.00    +0.139 A 
ATOM     30  N   UNL     1      26.151  12.651  -0.849  0.00  0.00    -0.220 N 
ATOM     31  N   UNL     1      27.029  11.984  -1.637  0.00  0.00    -0.061 NA
BRANCH  30  32
ATOM     32  C   UNL     1      25.645  12.089   0.350  0.00  0.00    +0.069 A 
ATOM     33  C   UNL     1      24.296  11.713   0.420  0.00  0.00    +0.056 A 
ATOM     34  C   UNL     1      23.786  11.191   1.614  0.00  0.00    +0.107 A 
ATOM     35  C   UNL     1      24.606  11.014   2.729  0.00  0.00    +0.028 A 
ATOM     36  C   UNL     1      25.951  11.375   2.653  0.00  0.00    +0.004 A 
ATOM     37  C   UNL     1      26.470  11.915   1.472  0.00  0.00    +0.028 A 
BRANCH  34  38
ATOM     38  S   UNL     1      22.069  10.777   1.702  0.00  0.00    +0.056 S 
ATOM     39  O   UNL     1      21.924   9.558   2.462  0.00  0.00    -0.153 OA
ATOM     40  O   UNL     1      21.305  11.969   1.985  0.00  0.00    -0.153 OA
BRANCH  38  41
ATOM     41  N   UNL     1      21.720  10.393   0.106  0.00  0.00    -0.204 NA
ATOM     42  H   UNL     1      21.578   9.387   0.011  0.00  0.00    +0.144 HD
ATOM     43  H   UNL     1      22.440  10.771  -0.511  0.00  0.00    +0.144 HD
ENDBRANCH  38  41
ENDBRANCH  34  38
ENDBRANCH  30  32
ENDBRANCH  26  28
ENDBRANCH  25  26
ENDBRANCH  24  25
ENDBRANCH   1  24
TORSDOF 13
