REMARK VINA RESULT:    -7.789      1.972      3.976
REMARK INTER + INTRA:         -15.521
REMARK INTER:                 -13.994
REMARK INTRA:                  -1.527
REMARK UNBOUND:                -1.585
REMARK  Name = lig_assembled_16.pdb
REMARK  14 active torsions:
REMARK  status: ('A' for Active; 'I' for Inactive)
REMARK    1  A    between atoms: _2  and  _8
REMARK    2  A    between atoms: _5  and  _6
REMARK    3  A    between atoms: _5  and  _17
REMARK    4  A    between atoms: _8  and  _9
REMARK    5  A    between atoms: _12  and  _13
REMARK    6  A    between atoms: _13  and  _15
REMARK    7  A    between atoms: _17  and  _19
REMARK    8  A    between atoms: _18  and  _23
REMARK    9  A    between atoms: _19  and  _22
REMARK   10  A    between atoms: _27  and  _37
REMARK   11  A    between atoms: _29  and  _30
REMARK   12  A    between atoms: _31  and  _33
REMARK   13  A    between atoms: _33  and  _35
REMARK   14  A    between atoms: _35  and  _37
REMARK                            x       y       z     vdW  Elec       q    Type
REMARK                         _______ _______ _______ _____ _____    ______ ____
ROOT
ATOM      1  C   UNL     1      28.073  17.081  -0.862  0.00  0.00    +0.400 C 
ATOM      2  N   UNL     1      28.492  16.227   0.131  0.00  0.00    -0.278 N 
ATOM      3  H   UNL     1      28.802  16.889   0.912  0.00  0.00    +0.152 HD
ATOM      4  O   UNL     1      27.973  18.276  -0.595  0.00  0.00    -0.226 OA
ENDROOT
BRANCH   2   5
ATOM      5  C   UNL     1      28.686  14.855   0.593  0.00  0.00    +0.152 C 
BRANCH   5   6
ATOM      6  C   UNL     1      30.014  14.183   0.189  0.00  0.00    +0.193 C 
ATOM      7  O   UNL     1      30.027  14.122  -1.255  0.00  0.00    -0.219 OA
BRANCH   6   8
ATOM      8  C   UNL     1      31.325  14.914   0.555  0.00  0.00    +0.212 C 
ATOM      9  O   UNL     1      31.044  16.088   1.334  0.00  0.00    -0.218 OA
BRANCH   8  10
ATOM     10  C   UNL     1      32.342  14.011   1.353  0.00  0.00    +0.171 C 
ATOM     11  O   UNL     1      32.650  14.539   2.638  0.00  0.00    -0.343 OA
ATOM     12  C   UNL     1      33.692  14.081   3.449  0.00  0.00    +0.220 C 
ATOM     13  C   UNL     1      35.024  14.014   2.681  0.00  0.00    +0.076 C 
ATOM     14  C   UNL     1      34.784  13.187   1.408  0.00  0.00    +0.177 C 
ATOM     15  O   UNL     1      35.996  13.060   0.679  0.00  0.00    -0.221 OA
ATOM     16  C   UNL     1      33.668  13.848   0.540  0.00  0.00    +0.155 C 
BRANCH  16  17
ATOM     17  N   UNL     1      33.441  13.069  -0.674  0.00  0.00    -0.202 NA
ATOM     18  C   UNL     1      33.420  13.469  -1.971  0.00  0.00    +0.242 C 
ATOM     19  C   UNL     1      33.458  12.415  -3.046  0.00  0.00    +0.096 C 
ATOM     20  O   UNL     1      33.374  14.669  -2.236  0.00  0.00    -0.273 OA
ENDBRANCH  16  17
BRANCH  12  21
ATOM     21  C   UNL     1      33.362  12.676   4.195  0.00  0.00    +0.391 C 
ATOM     22  O   UNL     1      34.542  12.266   4.700  0.00  0.00    -0.243 OA
ATOM     23  O   UNL     1      32.028  12.612   4.289  0.00  0.00    -0.243 OA
ENDBRANCH  12  21
ENDBRANCH   8  10
ENDBRANCH   6   8
ENDBRANCH   5   6
ENDBRANCH   2   5
BRANCH   1  24
ATOM     24  O   UNL     1      27.849  16.535  -2.012  0.00  0.00    -0.450 OA
BRANCH  24  25
ATOM     25  C   UNL     1      26.999  15.573  -2.590  0.00  0.00    +0.240 C 
BRANCH  25  26
ATOM     26  C   UNL     1      26.281  15.954  -3.899  0.00  0.00    +0.100 C 
BRANCH  26  28
ATOM     27  N   UNL     1      24.340  14.738  -4.845  0.00  0.00    -0.134 NA
ATOM     28  C   UNL     1      24.873  15.521  -3.853  0.00  0.00    +0.086 A 
ATOM     29  C   UNL     1      23.908  15.757  -2.900  0.00  0.00    +0.134 A 
ATOM     30  N   UNL     1      22.846  15.015  -3.322  0.00  0.00    -0.247 N 
ATOM     31  N   UNL     1      23.089  14.446  -4.517  0.00  0.00    -0.065 NA
BRANCH  30  32
ATOM     32  C   UNL     1      21.592  14.783  -2.635  0.00  0.00    +0.180 C 
BRANCH  32  33
ATOM     33  C   UNL     1      21.745  13.751  -1.542  0.00  0.00    -0.026 A 
ATOM     34  C   UNL     1      22.961  13.076  -1.360  0.00  0.00    +0.006 A 
ATOM     35  C   UNL     1      23.109  12.150  -0.324  0.00  0.00    +0.015 A 
ATOM     36  C   UNL     1      22.043  11.876   0.536  0.00  0.00    +0.059 A 
ATOM     37  C   UNL     1      20.815  12.530   0.352  0.00  0.00    +0.015 A 
ATOM     38  C   UNL     1      20.669  13.451  -0.690  0.00  0.00    +0.006 A 
BRANCH  36  39
ATOM     39  C   UNL     1      22.278  10.939   1.667  0.00  0.00    +0.337 C 
ATOM     40  O   UNL     1      21.818   9.810   1.689  0.00  0.00    -0.245 OA
BRANCH  39  41
ATOM     41  O   UNL     1      23.009  11.459   2.671  0.00  0.00    -0.477 OA
ATOM     42  H   UNL     1      23.890  11.790   2.416  0.00  0.00    +0.295 HD
ENDBRANCH  39  41
ENDBRANCH  36  39
ENDBRANCH  32  33
ENDBRANCH  30  32
ENDBRANCH  26  28
ENDBRANCH  25  26
ENDBRANCH  24  25
ENDBRANCH   1  24
TORSDOF 14
