REMARK VINA RESULT:    -7.213      1.155      1.426
REMARK INTER + INTRA:         -14.388
REMARK INTER:                 -12.290
REMARK INTRA:                  -2.098
REMARK UNBOUND:                -1.904
REMARK  Name = lig_assembled_73.pdb
REMARK  13 active torsions:
REMARK  status: ('A' for Active; 'I' for Inactive)
REMARK    1  A    between atoms: _2  and  _9
REMARK    2  A    between atoms: _3  and  _13
REMARK    3  A    between atoms: _6  and  _7
REMARK    4  A    between atoms: _6  and  _17
REMARK    5  A    between atoms: _12  and  _15
REMARK    6  A    between atoms: _17  and  _19
REMARK    7  A    between atoms: _18  and  _23
REMARK    8  A    between atoms: _19  and  _22
REMARK    9  A    between atoms: _27  and  _37
REMARK   10  A    between atoms: _29  and  _30
REMARK   11  A    between atoms: _31  and  _33
REMARK   12  A    between atoms: _33  and  _35
REMARK   13  A    between atoms: _35  and  _37
REMARK                            x       y       z     vdW  Elec       q    Type
REMARK                         _______ _______ _______ _____ _____    ______ ____
ROOT
ATOM      1  C   UNL     1      27.542  16.838  -1.695  0.00  0.00    +0.400 C 
ATOM      2  N   UNL     1      27.840  15.598  -1.181  0.00  0.00    -0.278 N 
ATOM      3  H   UNL     1      28.193  15.817  -0.197  0.00  0.00    +0.152 HD
ATOM      4  O   UNL     1      27.560  17.801  -0.933  0.00  0.00    -0.226 OA
ENDROOT
BRANCH   2   5
ATOM      5  C   UNL     1      27.875  14.150  -1.368  0.00  0.00    +0.152 C 
BRANCH   5   6
ATOM      6  C   UNL     1      28.932  13.384  -0.545  0.00  0.00    +0.193 C 
ATOM      7  O   UNL     1      29.952  12.956  -1.474  0.00  0.00    -0.219 OA
BRANCH   6   8
ATOM      8  C   UNL     1      29.703  14.171   0.538  0.00  0.00    +0.212 C 
ATOM      9  O   UNL     1      28.788  14.774   1.467  0.00  0.00    -0.218 OA
BRANCH   8  10
ATOM     10  C   UNL     1      30.728  13.285   1.343  0.00  0.00    +0.171 C 
ATOM     11  O   UNL     1      30.394  13.177   2.723  0.00  0.00    -0.343 OA
ATOM     12  C   UNL     1      31.247  12.664   3.702  0.00  0.00    +0.220 C 
ATOM     13  C   UNL     1      32.638  13.319   3.649  0.00  0.00    +0.076 C 
ATOM     14  C   UNL     1      33.155  13.188   2.207  0.00  0.00    +0.177 C 
ATOM     15  O   UNL     1      34.459  13.744   2.111  0.00  0.00    -0.221 OA
ATOM     16  C   UNL     1      32.169  13.881   1.216  0.00  0.00    +0.155 C 
BRANCH  16  17
ATOM     17  N   UNL     1      32.660  13.765  -0.154  0.00  0.00    -0.202 NA
ATOM     18  C   UNL     1      32.839  14.726  -1.096  0.00  0.00    +0.242 C 
ATOM     19  C   UNL     1      33.637  14.381  -2.327  0.00  0.00    +0.096 C 
ATOM     20  O   UNL     1      32.354  15.842  -0.925  0.00  0.00    -0.273 OA
ENDBRANCH  16  17
BRANCH  12  21
ATOM     21  C   UNL     1      31.349  11.042   3.686  0.00  0.00    +0.391 C 
ATOM     22  O   UNL     1      32.441  10.756   4.421  0.00  0.00    -0.243 OA
ATOM     23  O   UNL     1      30.175  10.602   3.219  0.00  0.00    -0.243 OA
ENDBRANCH  12  21
ENDBRANCH   8  10
ENDBRANCH   6   8
ENDBRANCH   5   6
ENDBRANCH   2   5
BRANCH   1  24
ATOM     24  O   UNL     1      27.297  16.874  -2.964  0.00  0.00    -0.450 OA
BRANCH  24  25
ATOM     25  C   UNL     1      26.196  16.966  -3.838  0.00  0.00    +0.240 C 
BRANCH  25  26
ATOM     26  C   UNL     1      25.607  15.650  -4.379  0.00  0.00    +0.100 C 
BRANCH  26  28
ATOM     27  N   UNL     1      23.390  15.671  -3.280  0.00  0.00    -0.134 NA
ATOM     28  C   UNL     1      24.620  15.101  -3.430  0.00  0.00    +0.086 A 
ATOM     29  C   UNL     1      24.719  14.018  -2.587  0.00  0.00    +0.139 A 
ATOM     30  N   UNL     1      23.507  13.959  -1.940  0.00  0.00    -0.220 N 
ATOM     31  N   UNL     1      22.719  14.971  -2.374  0.00  0.00    -0.061 NA
BRANCH  30  32
ATOM     32  C   UNL     1      23.065  13.032  -0.961  0.00  0.00    +0.074 A 
ATOM     33  C   UNL     1      21.687  12.852  -0.743  0.00  0.00    +0.032 A 
ATOM     34  C   UNL     1      21.228  11.948   0.225  0.00  0.00    +0.054 A 
ATOM     35  C   UNL     1      22.140  11.220   0.987  0.00  0.00    +0.195 A 
ATOM     36  C   UNL     1      23.504  11.403   0.766  0.00  0.00    +0.316 A 
ATOM     37  C   UNL     1      23.985  12.295  -0.203  0.00  0.00    +0.116 A 
BRANCH  36  38
ATOM     38  N   UNL     1      24.477  10.668   1.549  0.00  0.00    +0.083 N 
ATOM     39  O   UNL     1      24.402   9.432   1.544  0.00  0.00    +0.042 OA
ATOM     40  O   UNL     1      25.256  11.341   2.241  0.00  0.00    -0.576 OA
ENDBRANCH  36  38
BRANCH  35  41
ATOM     41  O   UNL     1      21.692  10.327   1.914  0.00  0.00    -0.501 OA
ATOM     42  H   UNL     1      22.405   9.709   2.154  0.00  0.00    +0.292 HD
ENDBRANCH  35  41
ENDBRANCH  30  32
ENDBRANCH  26  28
ENDBRANCH  25  26
ENDBRANCH  24  25
ENDBRANCH   1  24
TORSDOF 13
