REMARK VINA RESULT:    -7.971      2.250      3.860
REMARK INTER + INTRA:         -14.859
REMARK INTER:                 -12.662
REMARK INTRA:                  -2.197
REMARK UNBOUND:                -1.762
REMARK  Name = lig_assembled_25.pdb
REMARK  11 active torsions:
REMARK  status: ('A' for Active; 'I' for Inactive)
REMARK    1  A    between atoms: _2  and  _8
REMARK    2  A    between atoms: _5  and  _6
REMARK    3  A    between atoms: _5  and  _20
REMARK    4  A    between atoms: _20  and  _22
REMARK    5  A    between atoms: _21  and  _26
REMARK    6  A    between atoms: _22  and  _25
REMARK    7  A    between atoms: _30  and  _40
REMARK    8  A    between atoms: _32  and  _33
REMARK    9  A    between atoms: _34  and  _36
REMARK   10  A    between atoms: _36  and  _38
REMARK   11  A    between atoms: _38  and  _40
REMARK                            x       y       z     vdW  Elec       q    Type
REMARK                         _______ _______ _______ _____ _____    ______ ____
ROOT
ATOM      1  C   UNL     1      28.555  15.661  -0.563  0.00  0.00    +0.400 C 
ATOM      2  N   UNL     1      28.353  14.417  -0.012  0.00  0.00    -0.278 N 
ATOM      3  H   UNL     1      29.157  14.324   0.687  0.00  0.00    +0.152 HD
ATOM      4  O   UNL     1      29.402  16.390  -0.053  0.00  0.00    -0.226 OA
ENDROOT
BRANCH   1   5
ATOM      5  O   UNL     1      27.840  15.934  -1.605  0.00  0.00    -0.450 OA
BRANCH   5   6
ATOM      6  C   UNL     1      26.999  16.956  -2.085  0.00  0.00    +0.240 C 
BRANCH   6   7
ATOM      7  C   UNL     1      26.174  16.662  -3.353  0.00  0.00    +0.100 C 
BRANCH   7   9
ATOM      8  N   UNL     1      26.101  14.210  -3.645  0.00  0.00    -0.134 NA
ATOM      9  C   UNL     1      25.488  15.362  -3.230  0.00  0.00    +0.086 A 
ATOM     10  C   UNL     1      24.231  15.059  -2.755  0.00  0.00    +0.134 A 
ATOM     11  N   UNL     1      24.128  13.706  -2.922  0.00  0.00    -0.240 N 
ATOM     12  N   UNL     1      25.265  13.201  -3.450  0.00  0.00    -0.065 NA
BRANCH  11  13
ATOM     13  C   UNL     1      22.995  12.822  -2.701  0.00  0.00    +0.170 C 
ATOM     14  C   UNL     1      21.663  13.498  -2.997  0.00  0.00    -0.011 A 
ATOM     15  C   UNL     1      20.822  13.418  -1.866  0.00  0.00    -0.012 A 
ATOM     16  C   UNL     1      21.527  12.735  -0.801  0.00  0.00    -0.012 A 
ATOM     17  C   UNL     1      21.109  12.389   0.473  0.00  0.00    +0.009 A 
ATOM     18  C   UNL     1      21.997  11.693   1.298  0.00  0.00    +0.001 A 
ATOM     19  C   UNL     1      23.284  11.355   0.849  0.00  0.00    +0.000 A 
ATOM     20  C   UNL     1      23.710  11.704  -0.435  0.00  0.00    +0.006 A 
ATOM     21  C   UNL     1      19.542  13.947  -1.905  0.00  0.00    +0.009 A 
ATOM     22  C   UNL     1      19.109  14.554  -3.088  0.00  0.00    +0.001 A 
ATOM     23  C   UNL     1      19.949  14.628  -4.211  0.00  0.00    +0.000 A 
ATOM     24  C   UNL     1      21.238  14.094  -4.176  0.00  0.00    +0.006 A 
ATOM     25  C   UNL     1      22.824  12.395  -1.250  0.00  0.00    -0.011 A 
ENDBRANCH  11  13
ENDBRANCH   7   9
ENDBRANCH   6   7
ENDBRANCH   5   6
ENDBRANCH   1   5
BRANCH   2  26
ATOM     26  C   UNL     1      27.545  13.202   0.056  0.00  0.00    +0.152 C 
BRANCH  26  27
ATOM     27  C   UNL     1      27.216  12.683   1.471  0.00  0.00    +0.193 C 
ATOM     28  O   UNL     1      27.551  11.278   1.486  0.00  0.00    -0.219 OA
BRANCH  27  29
ATOM     29  C   UNL     1      28.009  13.281   2.654  0.00  0.00    +0.212 C 
ATOM     30  O   UNL     1      27.119  13.647   3.721  0.00  0.00    -0.218 OA
BRANCH  29  31
ATOM     31  C   UNL     1      29.107  12.306   3.226  0.00  0.00    +0.171 C 
ATOM     32  O   UNL     1      28.781  11.813   4.521  0.00  0.00    -0.343 OA
ATOM     33  C   UNL     1      29.674  11.135   5.355  0.00  0.00    +0.220 C 
ATOM     34  C   UNL     1      31.001  11.897   5.509  0.00  0.00    +0.076 C 
ATOM     35  C   UNL     1      31.531  12.193   4.096  0.00  0.00    +0.177 C 
ATOM     36  O   UNL     1      32.781  12.863   4.180  0.00  0.00    -0.221 OA
ATOM     37  C   UNL     1      30.489  13.034   3.296  0.00  0.00    +0.155 C 
BRANCH  37  38
ATOM     38  N   UNL     1      30.992  13.323   1.955  0.00  0.00    -0.202 NA
ATOM     39  C   UNL     1      31.606  14.436   1.479  0.00  0.00    +0.242 C 
ATOM     40  C   UNL     1      32.288  14.359   0.138  0.00  0.00    +0.096 C 
ATOM     41  O   UNL     1      31.594  15.468   2.146  0.00  0.00    -0.273 OA
ENDBRANCH  37  38
BRANCH  33  42
ATOM     42  C   UNL     1      29.920   9.589   4.919  0.00  0.00    +0.391 C 
ATOM     43  O   UNL     1      30.996   9.196   5.628  0.00  0.00    -0.243 OA
ATOM     44  O   UNL     1      28.812   9.207   4.272  0.00  0.00    -0.243 OA
ENDBRANCH  33  42
ENDBRANCH  29  31
ENDBRANCH  27  29
ENDBRANCH  26  27
ENDBRANCH   2  26
TORSDOF 11
