REMARK VINA RESULT:    -7.123      2.792     10.239
REMARK INTER + INTRA:         -14.248
REMARK INTER:                 -12.362
REMARK INTRA:                  -1.886
REMARK UNBOUND:                -2.128
REMARK  Name = lig_assembled_0.pdb
REMARK  12 active torsions:
REMARK  status: ('A' for Active; 'I' for Inactive)
REMARK    1  A    between atoms: _2  and  _9
REMARK    2  A    between atoms: _6  and  _7
REMARK    3  A    between atoms: _6  and  _16
REMARK    4  A    between atoms: _10  and  _11
REMARK    5  A    between atoms: _16  and  _18
REMARK    6  A    between atoms: _17  and  _22
REMARK    7  A    between atoms: _18  and  _21
REMARK    8  A    between atoms: _26  and  _36
REMARK    9  A    between atoms: _28  and  _29
REMARK   10  A    between atoms: _30  and  _32
REMARK   11  A    between atoms: _32  and  _34
REMARK   12  A    between atoms: _34  and  _36
REMARK                            x       y       z     vdW  Elec       q    Type
REMARK                         _______ _______ _______ _____ _____    ______ ____
ROOT
ATOM      1  C   UNL     1      27.977  17.709  -0.774  0.00  0.00    +0.400 C 
ATOM      2  N   UNL     1      27.186  17.559  -1.889  0.00  0.00    -0.278 N 
ATOM      3  H   UNL     1      26.217  17.851  -1.545  0.00  0.00    +0.152 HD
ATOM      4  O   UNL     1      27.494  18.268   0.208  0.00  0.00    -0.226 OA
ENDROOT
BRANCH   2   5
ATOM      5  C   UNL     1      27.081  17.202  -3.301  0.00  0.00    +0.152 C 
BRANCH   5   6
ATOM      6  C   UNL     1      25.981  16.183  -3.665  0.00  0.00    +0.193 C 
ATOM      7  O   UNL     1      25.990  16.058  -5.104  0.00  0.00    -0.219 OA
BRANCH   6   8
ATOM      8  C   UNL     1      26.150  14.736  -3.151  0.00  0.00    +0.212 C 
ATOM      9  O   UNL     1      26.885  14.723  -1.917  0.00  0.00    -0.218 OA
BRANCH   8  10
ATOM     10  C   UNL     1      24.780  13.988  -2.929  0.00  0.00    +0.171 C 
ATOM     11  O   UNL     1      23.891  14.713  -2.086  0.00  0.00    -0.343 OA
ATOM     12  C   UNL     1      22.723  14.184  -1.531  0.00  0.00    +0.220 C 
ATOM     13  C   UNL     1      22.984  12.841  -0.826  0.00  0.00    +0.076 C 
ATOM     14  C   UNL     1      23.698  11.922  -1.831  0.00  0.00    +0.177 C 
ATOM     15  O   UNL     1      23.928  10.650  -1.241  0.00  0.00    -0.221 OA
ATOM     16  C   UNL     1      25.033  12.577  -2.305  0.00  0.00    +0.155 C 
BRANCH  16  17
ATOM     17  N   UNL     1      25.717  11.704  -3.254  0.00  0.00    -0.202 NA
ATOM     18  C   UNL     1      26.919  11.082  -3.151  0.00  0.00    +0.242 C 
ATOM     19  C   UNL     1      27.256  10.004  -4.148  0.00  0.00    +0.096 C 
ATOM     20  O   UNL     1      27.697  11.408  -2.256  0.00  0.00    -0.273 OA
ENDBRANCH  16  17
BRANCH  12  21
ATOM     21  C   UNL     1      21.496  14.073  -2.590  0.00  0.00    +0.391 C 
ATOM     22  O   UNL     1      20.609  13.243  -2.008  0.00  0.00    -0.243 OA
ATOM     23  O   UNL     1      21.683  15.059  -3.476  0.00  0.00    -0.243 OA
ENDBRANCH  12  21
ENDBRANCH   8  10
ENDBRANCH   6   8
ENDBRANCH   5   6
ENDBRANCH   2   5
BRANCH   1  24
ATOM     24  O   UNL     1      29.166  17.210  -0.861  0.00  0.00    -0.450 OA
BRANCH  24  25
ATOM     25  C   UNL     1      30.028  16.371  -0.128  0.00  0.00    +0.240 C 
BRANCH  25  26
ATOM     26  C   UNL     1      29.767  14.854  -0.192  0.00  0.00    +0.100 C 
BRANCH  26  28
ATOM     27  N   UNL     1      31.384  13.092   0.416  0.00  0.00    -0.134 NA
ATOM     28  C   UNL     1      30.607  14.146   0.793  0.00  0.00    +0.086 A 
ATOM     29  C   UNL     1      30.787  14.382   2.137  0.00  0.00    +0.139 A 
ATOM     30  N   UNL     1      31.621  13.377   2.569  0.00  0.00    -0.219 N 
ATOM     31  N   UNL     1      32.035  12.663   1.486  0.00  0.00    -0.061 NA
BRANCH  30  32
ATOM     32  C   UNL     1      32.151  13.097   3.861  0.00  0.00    +0.079 A 
ATOM     33  C   UNL     1      33.410  13.530   4.324  0.00  0.00    +0.062 A 
ATOM     34  C   UNL     1      33.828  13.143   5.617  0.00  0.00    +0.015 A 
ATOM     35  C   UNL     1      33.029  12.337   6.429  0.00  0.00    +0.001 A 
ATOM     36  C   UNL     1      31.785  11.925   5.978  0.00  0.00    +0.002 A 
ATOM     37  C   UNL     1      31.343  12.309   4.713  0.00  0.00    +0.028 A 
BRANCH  33  38
ATOM     38  C   UNL     1      34.263  14.527   3.618  0.00  0.00    +0.244 C 
ATOM     39  O   UNL     1      35.209  14.197   2.919  0.00  0.00    -0.270 OA
ATOM     40  N   UNL     1      33.930  15.849   3.743  0.00  0.00    -0.325 N 
ATOM     41  H   UNL     1      34.483  16.514   3.218  0.00  0.00    +0.145 HD
ATOM     42  H   UNL     1      33.157  16.200   4.289  0.00  0.00    +0.145 HD
ENDBRANCH  33  38
ENDBRANCH  30  32
ENDBRANCH  26  28
ENDBRANCH  25  26
ENDBRANCH  24  25
ENDBRANCH   1  24
TORSDOF 12
