REMARK VINA RESULT:    -6.130      3.866      8.558
REMARK INTER + INTRA:         -12.305
REMARK INTER:                 -10.002
REMARK INTRA:                  -2.303
REMARK UNBOUND:                -1.696
REMARK  Name = lig_assembled_72.pdb
REMARK  15 active torsions:
REMARK  status: ('A' for Active; 'I' for Inactive)
REMARK    1  A    between atoms: _2  and  _8
REMARK    2  A    between atoms: _4  and  _8
REMARK    3  A    between atoms: _4  and  _11
REMARK    4  A    between atoms: _5  and  _6
REMARK    5  A    between atoms: _5  and  _12
REMARK    6  A    between atoms: _8  and  _9
REMARK    7  A    between atoms: _8  and  _10
REMARK    8  A    between atoms: _12  and  _14
REMARK    9  A    between atoms: _13  and  _18
REMARK   10  A    between atoms: _14  and  _17
REMARK   11  A    between atoms: _22  and  _32
REMARK   12  A    between atoms: _24  and  _25
REMARK   13  A    between atoms: _26  and  _28
REMARK   14  A    between atoms: _28  and  _30
REMARK   15  A    between atoms: _30  and  _32
REMARK                            x       y       z     vdW  Elec       q    Type
REMARK                         _______ _______ _______ _____ _____    ______ ____
ROOT
ATOM      1  C   UNL     1      26.573  14.326  -2.024  0.00  0.00    +0.152 C 
ENDROOT
BRANCH   1   3
ATOM      2  C   UNL     1      27.004  16.861  -2.937  0.00  0.00    +0.400 C 
ATOM      3  N   UNL     1      26.480  15.609  -2.716  0.00  0.00    -0.278 N 
ATOM      4  H   UNL     1      25.627  15.581  -3.359  0.00  0.00    +0.152 HD
ATOM      5  O   UNL     1      26.544  17.526  -3.862  0.00  0.00    -0.226 OA
BRANCH   2   6
ATOM      6  O   UNL     1      27.926  17.236  -2.113  0.00  0.00    -0.450 OA
BRANCH   6   7
ATOM      7  C   UNL     1      28.056  17.660  -0.776  0.00  0.00    +0.240 C 
BRANCH   7   8
ATOM      8  C   UNL     1      29.476  17.702  -0.178  0.00  0.00    +0.100 C 
BRANCH   8  10
ATOM      9  N   UNL     1      31.396  16.183  -0.524  0.00  0.00    -0.134 NA
ATOM     10  C   UNL     1      30.080  16.357  -0.197  0.00  0.00    +0.086 A 
ATOM     11  C   UNL     1      29.519  15.130   0.080  0.00  0.00    +0.134 A 
ATOM     12  N   UNL     1      30.545  14.243  -0.096  0.00  0.00    -0.244 N 
ATOM     13  N   UNL     1      31.672  14.889  -0.460  0.00  0.00    -0.065 NA
BRANCH  12  14
ATOM     14  C   UNL     1      30.524  12.783   0.069  0.00  0.00    +0.083 C 
ATOM     15  C   UNL     1      31.905  12.309   0.562  0.00  0.00    +0.038 C 
ATOM     16  C   UNL     1      30.206  12.113  -1.283  0.00  0.00    +0.038 C 
BRANCH  14  17
ATOM     17  C   UNL     1      29.469  12.339   1.118  0.00  0.00    +0.185 C 
BRANCH  17  18
ATOM     18  O   UNL     1      28.234  11.940   0.523  0.00  0.00    -0.393 OA
ATOM     19  H   UNL     1      28.476  11.444  -0.288  0.00  0.00    +0.209 HD
ENDBRANCH  17  18
ENDBRANCH  14  17
ENDBRANCH  12  14
ENDBRANCH   8  10
ENDBRANCH   7   8
ENDBRANCH   6   7
ENDBRANCH   2   6
ENDBRANCH   1   3
BRANCH   1  20
ATOM     20  C   UNL     1      25.240  13.714  -1.547  0.00  0.00    +0.193 C 
ATOM     21  O   UNL     1      24.243  14.073  -2.529  0.00  0.00    -0.219 OA
BRANCH  20  22
ATOM     22  C   UNL     1      25.153  12.174  -1.455  0.00  0.00    +0.212 C 
ATOM     23  O   UNL     1      26.377  11.574  -1.909  0.00  0.00    -0.218 OA
BRANCH  22  24
ATOM     24  C   UNL     1      24.846  11.652   0.001  0.00  0.00    +0.171 C 
ATOM     25  O   UNL     1      25.711  10.594   0.397  0.00  0.00    -0.343 OA
ATOM     26  C   UNL     1      25.511   9.791   1.522  0.00  0.00    +0.220 C 
ATOM     27  C   UNL     1      24.084   9.217   1.567  0.00  0.00    +0.076 C 
ATOM     28  C   UNL     1      23.107  10.397   1.430  0.00  0.00    +0.177 C 
ATOM     29  O   UNL     1      21.769   9.925   1.506  0.00  0.00    -0.221 OA
ATOM     30  C   UNL     1      23.365  11.157   0.093  0.00  0.00    +0.155 C 
BRANCH  30  31
ATOM     31  N   UNL     1      22.434  12.274  -0.044  0.00  0.00    -0.202 NA
ATOM     32  C   UNL     1      21.419  12.455  -0.927  0.00  0.00    +0.242 C 
ATOM     33  C   UNL     1      20.428  13.558  -0.662  0.00  0.00    +0.096 C 
ATOM     34  O   UNL     1      21.331  11.722  -1.910  0.00  0.00    -0.273 OA
ENDBRANCH  30  31
BRANCH  26  35
ATOM     35  C   UNL     1      25.903  10.524   2.918  0.00  0.00    +0.391 C 
ATOM     36  O   UNL     1      26.164   9.519   3.777  0.00  0.00    -0.243 OA
ATOM     37  O   UNL     1      26.112  11.811   2.615  0.00  0.00    -0.243 OA
ENDBRANCH  26  35
ENDBRANCH  22  24
ENDBRANCH  20  22
ENDBRANCH   1  20
TORSDOF 13
