REMARK VINA RESULT:    -6.267      3.770      7.640
REMARK INTER + INTRA:         -12.296
REMARK INTER:                 -10.788
REMARK INTRA:                  -1.508
REMARK UNBOUND:                -1.999
REMARK  Name = lig_assembled_57.pdb
REMARK  12 active torsions:
REMARK  status: ('A' for Active; 'I' for Inactive)
REMARK    1  A    between atoms: _2  and  _9
REMARK    2  A    between atoms: _3  and  _12
REMARK    3  A    between atoms: _6  and  _7
REMARK    4  A    between atoms: _6  and  _14
REMARK    5  A    between atoms: _14  and  _16
REMARK    6  A    between atoms: _15  and  _20
REMARK    7  A    between atoms: _16  and  _19
REMARK    8  A    between atoms: _24  and  _34
REMARK    9  A    between atoms: _26  and  _27
REMARK   10  A    between atoms: _28  and  _30
REMARK   11  A    between atoms: _30  and  _32
REMARK   12  A    between atoms: _32  and  _34
REMARK                            x       y       z     vdW  Elec       q    Type
REMARK                         _______ _______ _______ _____ _____    ______ ____
ROOT
ATOM      1  C   UNL     1      28.527  17.031  -0.466  0.00  0.00    +0.400 C 
ATOM      2  N   UNL     1      28.782  15.885   0.249  0.00  0.00    -0.278 N 
ATOM      3  H   UNL     1      29.315  16.241   1.105  0.00  0.00    +0.152 HD
ATOM      4  O   UNL     1      28.766  18.111   0.067  0.00  0.00    -0.226 OA
ENDROOT
BRANCH   1   5
ATOM      5  O   UNL     1      28.079  16.853  -1.666  0.00  0.00    -0.450 OA
BRANCH   5   6
ATOM      6  C   UNL     1      27.095  17.378  -2.527  0.00  0.00    +0.240 C 
BRANCH   6   7
ATOM      7  C   UNL     1      27.055  16.841  -3.970  0.00  0.00    +0.100 C 
BRANCH   7   9
ATOM      8  N   UNL     1      25.633  15.365  -5.347  0.00  0.00    -0.134 NA
ATOM      9  C   UNL     1      25.842  16.029  -4.172  0.00  0.00    +0.086 A 
ATOM     10  C   UNL     1      24.792  15.772  -3.316  0.00  0.00    +0.134 A 
ATOM     11  N   UNL     1      24.022  14.874  -3.993  0.00  0.00    -0.248 N 
ATOM     12  N   UNL     1      24.498  14.691  -5.242  0.00  0.00    -0.065 NA
BRANCH  11  13
ATOM     13  C   UNL     1      22.874  14.083  -3.565  0.00  0.00    +0.111 C 
ATOM     14  C   UNL     1      23.034  12.617  -3.992  0.00  0.00    +0.042 C 
ATOM     15  C   UNL     1      24.064  11.913  -3.111  0.00  0.00    +0.086 C 
ATOM     16  N   UNL     1      23.713  11.936  -1.688  0.00  0.00    -0.305 NA
ATOM     17  C   UNL     1      23.465  13.292  -1.193  0.00  0.00    +0.086 C 
ATOM     18  C   UNL     1      22.632  11.010  -1.368  0.00  0.00    +0.104 C 
ATOM     19  C   UNL     1      22.530  14.140  -2.068  0.00  0.00    +0.042 C 
ENDBRANCH  11  13
ENDBRANCH   7   9
ENDBRANCH   6   7
ENDBRANCH   5   6
ENDBRANCH   1   5
BRANCH   2  20
ATOM     20  C   UNL     1      28.644  14.435   0.369  0.00  0.00    +0.152 C 
BRANCH  20  21
ATOM     21  C   UNL     1      29.900  13.603   0.040  0.00  0.00    +0.193 C 
ATOM     22  O   UNL     1      30.288  13.951  -1.307  0.00  0.00    -0.219 OA
BRANCH  21  23
ATOM     23  C   UNL     1      31.168  13.858   0.885  0.00  0.00    +0.212 C 
ATOM     24  O   UNL     1      31.126  15.170   1.470  0.00  0.00    -0.218 OA
BRANCH  23  25
ATOM     25  C   UNL     1      31.376  12.801   2.035  0.00  0.00    +0.171 C 
ATOM     26  O   UNL     1      30.645  13.123   3.214  0.00  0.00    -0.343 OA
ATOM     27  C   UNL     1      30.832  12.502   4.451  0.00  0.00    +0.220 C 
ATOM     28  C   UNL     1      32.316  12.478   4.859  0.00  0.00    +0.076 C 
ATOM     29  C   UNL     1      33.105  11.855   3.696  0.00  0.00    +0.177 C 
ATOM     30  O   UNL     1      34.482  11.772   4.038  0.00  0.00    -0.221 OA
ATOM     31  C   UNL     1      32.894  12.689   2.395  0.00  0.00    +0.155 C 
BRANCH  31  32
ATOM     32  N   UNL     1      33.648  12.104   1.289  0.00  0.00    -0.202 NA
ATOM     33  C   UNL     1      34.658  12.632   0.552  0.00  0.00    +0.242 C 
ATOM     34  C   UNL     1      35.457  11.710  -0.331  0.00  0.00    +0.096 C 
ATOM     35  O   UNL     1      34.896  13.836   0.622  0.00  0.00    -0.273 OA
ENDBRANCH  31  32
BRANCH  27  36
ATOM     36  C   UNL     1      30.165  11.024   4.541  0.00  0.00    +0.391 C 
ATOM     37  O   UNL     1      30.721  10.457   5.629  0.00  0.00    -0.243 OA
ATOM     38  O   UNL     1      29.120  11.038   3.705  0.00  0.00    -0.243 OA
ENDBRANCH  27  36
ENDBRANCH  23  25
ENDBRANCH  21  23
ENDBRANCH  20  21
ENDBRANCH   2  20
TORSDOF 11
