REMARK VINA RESULT:    -6.004      3.031      5.752
REMARK INTER + INTRA:         -13.426
REMARK INTER:                 -10.873
REMARK INTRA:                  -2.553
REMARK UNBOUND:                -3.035
REMARK  Name = lig_assembled_22.pdb
REMARK  15 active torsions:
REMARK  status: ('A' for Active; 'I' for Inactive)
REMARK    1  A    between atoms: _2  and  _8
REMARK    2  A    between atoms: _4  and  _8
REMARK    3  A    between atoms: _4  and  _11
REMARK    4  A    between atoms: _5  and  _6
REMARK    5  A    between atoms: _5  and  _13
REMARK    6  A    between atoms: _8  and  _9
REMARK    7  A    between atoms: _8  and  _10
REMARK    8  A    between atoms: _13  and  _15
REMARK    9  A    between atoms: _14  and  _19
REMARK   10  A    between atoms: _15  and  _18
REMARK   11  A    between atoms: _23  and  _33
REMARK   12  A    between atoms: _25  and  _26
REMARK   13  A    between atoms: _27  and  _29
REMARK   14  A    between atoms: _29  and  _31
REMARK   15  A    between atoms: _31  and  _33
REMARK                            x       y       z     vdW  Elec       q    Type
REMARK                         _______ _______ _______ _____ _____    ______ ____
ROOT
ATOM      1  C   UNL     1      28.382  17.312  -0.504  0.00  0.00    +0.400 C 
ATOM      2  N   UNL     1      29.374  16.651   0.180  0.00  0.00    -0.278 N 
ATOM      3  H   UNL     1      29.480  17.223   1.076  0.00  0.00    +0.152 HD
ATOM      4  O   UNL     1      27.768  18.201   0.081  0.00  0.00    -0.226 OA
ENDROOT
BRANCH   1   5
ATOM      5  O   UNL     1      28.210  16.947  -1.732  0.00  0.00    -0.450 OA
BRANCH   5   6
ATOM      6  C   UNL     1      27.391  16.083  -2.485  0.00  0.00    +0.240 C 
BRANCH   6   7
ATOM      7  C   UNL     1      26.544  16.707  -3.611  0.00  0.00    +0.100 C 
BRANCH   7   9
ATOM      8  N   UNL     1      25.220  15.114  -4.956  0.00  0.00    -0.134 NA
ATOM      9  C   UNL     1      25.331  15.901  -3.843  0.00  0.00    +0.086 A 
ATOM     10  C   UNL     1      24.184  15.777  -3.090  0.00  0.00    +0.135 A 
ATOM     11  N   UNL     1      23.410  14.900  -3.796  0.00  0.00    -0.235 N 
ATOM     12  N   UNL     1      24.043  14.510  -4.919  0.00  0.00    -0.064 NA
BRANCH  11  13
ATOM     13  C   UNL     1      22.067  14.397  -3.499  0.00  0.00    +0.155 C 
ATOM     14  C   UNL     1      21.836  14.215  -1.983  0.00  0.00    +0.048 C 
ATOM     15  C   UNL     1      21.889  13.030  -4.187  0.00  0.00    +0.048 C 
BRANCH  13  16
ATOM     16  C   UNL     1      21.008  15.375  -4.014  0.00  0.00    +0.332 C 
ATOM     17  O   UNL     1      20.108  15.839  -3.324  0.00  0.00    -0.248 OA
BRANCH  16  18
ATOM     18  O   UNL     1      21.120  15.716  -5.320  0.00  0.00    -0.479 OA
ATOM     19  H   UNL     1      21.987  15.550  -5.740  0.00  0.00    +0.295 HD
ENDBRANCH  16  18
ENDBRANCH  13  16
ENDBRANCH  11  13
ENDBRANCH   7   9
ENDBRANCH   6   7
ENDBRANCH   5   6
ENDBRANCH   1   5
BRANCH   2  20
ATOM     20  C   UNL     1      30.315  15.535   0.238  0.00  0.00    +0.152 C 
BRANCH  20  21
ATOM     21  C   UNL     1      29.757  14.154  -0.163  0.00  0.00    +0.193 C 
ATOM     22  O   UNL     1      30.892  13.272  -0.302  0.00  0.00    -0.219 OA
BRANCH  21  23
ATOM     23  C   UNL     1      28.832  13.436   0.845  0.00  0.00    +0.212 C 
ATOM     24  O   UNL     1      28.245  14.384   1.750  0.00  0.00    -0.218 OA
BRANCH  23  25
ATOM     25  C   UNL     1      27.677  12.614   0.156  0.00  0.00    +0.171 C 
ATOM     26  O   UNL     1      26.979  13.369  -0.828  0.00  0.00    -0.343 OA
ATOM     27  C   UNL     1      25.772  12.977  -1.412  0.00  0.00    +0.220 C 
ATOM     28  C   UNL     1      24.727  12.583  -0.354  0.00  0.00    +0.076 C 
ATOM     29  C   UNL     1      25.373  11.532   0.565  0.00  0.00    +0.177 C 
ATOM     30  O   UNL     1      24.434  11.103   1.540  0.00  0.00    -0.221 OA
ATOM     31  C   UNL     1      26.656  12.118   1.232  0.00  0.00    +0.155 C 
BRANCH  31  32
ATOM     32  N   UNL     1      27.269  11.124   2.111  0.00  0.00    -0.202 NA
ATOM     33  C   UNL     1      27.544  11.192   3.438  0.00  0.00    +0.242 C 
ATOM     34  C   UNL     1      27.906   9.920   4.159  0.00  0.00    +0.096 C 
ATOM     35  O   UNL     1      27.490  12.276   4.015  0.00  0.00    -0.273 OA
ENDBRANCH  31  32
BRANCH  27  36
ATOM     36  C   UNL     1      25.944  11.821  -2.541  0.00  0.00    +0.391 C 
ATOM     37  O   UNL     1      24.688  11.526  -2.930  0.00  0.00    -0.243 OA
ATOM     38  O   UNL     1      27.242  11.815  -2.868  0.00  0.00    -0.243 OA
ENDBRANCH  27  36
ENDBRANCH  23  25
ENDBRANCH  21  23
ENDBRANCH  20  21
ENDBRANCH   2  20
TORSDOF 13
