REMARK VINA RESULT:    -6.546      1.802      3.459
REMARK INTER + INTRA:         -13.282
REMARK INTER:                 -11.946
REMARK INTRA:                  -1.336
REMARK UNBOUND:                -2.144
REMARK  Name = lig_assembled_63.pdb
REMARK  12 active torsions:
REMARK  status: ('A' for Active; 'I' for Inactive)
REMARK    1  A    between atoms: _2  and  _10
REMARK    2  A    between atoms: _6  and  _14
REMARK    3  A    between atoms: _7  and  _8
REMARK    4  A    between atoms: _7  and  _15
REMARK    5  A    between atoms: _15  and  _17
REMARK    6  A    between atoms: _16  and  _21
REMARK    7  A    between atoms: _17  and  _20
REMARK    8  A    between atoms: _25  and  _35
REMARK    9  A    between atoms: _27  and  _28
REMARK   10  A    between atoms: _29  and  _31
REMARK   11  A    between atoms: _31  and  _33
REMARK   12  A    between atoms: _33  and  _35
REMARK                            x       y       z     vdW  Elec       q    Type
REMARK                         _______ _______ _______ _____ _____    ______ ____
ROOT
ATOM      1  C   UNL     1      27.802  17.444  -0.883  0.00  0.00    +0.400 C 
ATOM      2  N   UNL     1      28.422  16.533  -0.061  0.00  0.00    -0.278 N 
ATOM      3  H   UNL     1      28.691  17.114   0.795  0.00  0.00    +0.152 HD
ATOM      4  O   UNL     1      27.547  18.556  -0.427  0.00  0.00    -0.226 OA
ENDROOT
BRANCH   2   5
ATOM      5  C   UNL     1      28.855  15.156   0.167  0.00  0.00    +0.152 C 
BRANCH   5   6
ATOM      6  C   UNL     1      30.287  14.809  -0.289  0.00  0.00    +0.193 C 
ATOM      7  O   UNL     1      31.148  15.855   0.213  0.00  0.00    -0.219 OA
BRANCH   6   8
ATOM      8  C   UNL     1      30.912  13.503   0.248  0.00  0.00    +0.212 C 
ATOM      9  O   UNL     1      32.008  13.092  -0.585  0.00  0.00    -0.218 OA
BRANCH   8  10
ATOM     10  C   UNL     1      31.425  13.622   1.734  0.00  0.00    +0.171 C 
ATOM     11  O   UNL     1      32.833  13.443   1.843  0.00  0.00    -0.343 OA
ATOM     12  C   UNL     1      33.513  13.257   3.049  0.00  0.00    +0.220 C 
ATOM     13  C   UNL     1      32.873  12.146   3.899  0.00  0.00    +0.076 C 
ATOM     14  C   UNL     1      31.378  12.476   4.043  0.00  0.00    +0.177 C 
ATOM     15  O   UNL     1      30.744  11.499   4.856  0.00  0.00    -0.221 OA
ATOM     16  C   UNL     1      30.709  12.564   2.636  0.00  0.00    +0.155 C 
BRANCH  16  17
ATOM     17  N   UNL     1      29.287  12.871   2.768  0.00  0.00    -0.202 NA
ATOM     18  C   UNL     1      28.208  12.060   2.630  0.00  0.00    +0.242 C 
ATOM     19  C   UNL     1      26.870  12.561   3.110  0.00  0.00    +0.096 C 
ATOM     20  O   UNL     1      28.344  10.948   2.124  0.00  0.00    -0.273 OA
ENDBRANCH  16  17
BRANCH  12  21
ATOM     21  C   UNL     1      33.704  14.626   3.903  0.00  0.00    +0.391 C 
ATOM     22  O   UNL     1      32.968  15.547   3.251  0.00  0.00    -0.243 OA
ATOM     23  O   UNL     1      34.256  14.262   5.067  0.00  0.00    -0.243 OA
ENDBRANCH  12  21
ENDBRANCH   8  10
ENDBRANCH   6   8
ENDBRANCH   5   6
ENDBRANCH   2   5
BRANCH   1  24
ATOM     24  O   UNL     1      27.572  17.044  -2.090  0.00  0.00    -0.450 OA
BRANCH  24  25
ATOM     25  C   UNL     1      26.735  17.358  -3.179  0.00  0.00    +0.240 C 
BRANCH  25  26
ATOM     26  C   UNL     1      26.527  16.273  -4.252  0.00  0.00    +0.100 C 
BRANCH  26  28
ATOM     27  N   UNL     1      24.748  14.659  -4.835  0.00  0.00    -0.134 NA
ATOM     28  C   UNL     1      25.396  15.400  -3.888  0.00  0.00    +0.087 A 
ATOM     29  C   UNL     1      24.804  15.178  -2.668  0.00  0.00    +0.141 A 
ATOM     30  N   UNL     1      23.761  14.312  -2.928  0.00  0.00    -0.201 N 
ATOM     31  N   UNL     1      23.764  13.998  -4.241  0.00  0.00    -0.059 NA
BRANCH  30  32
ATOM     32  C   UNL     1      22.784  13.856  -1.993  0.00  0.00    +0.173 A 
ATOM     33  C   UNL     1      23.069  12.886  -1.029  0.00  0.00    +0.096 A 
ATOM     34  C   UNL     1      22.008  12.440  -0.223  0.00  0.00    +0.024 A 
ATOM     35  C   UNL     1      20.732  12.972  -0.373  0.00  0.00    +0.021 A 
ATOM     36  C   UNL     1      20.547  13.955  -1.324  0.00  0.00    +0.113 A 
ATOM     37  N   UNL     1      21.533  14.401  -2.131  0.00  0.00    -0.235 NA
BRANCH  33  38
ATOM     38  C   UNL     1      24.359  12.316  -0.775  0.00  0.00    +0.103 C 
ATOM     39  N   UNL     1      25.444  11.925  -0.637  0.00  0.00    -0.191 NA
ENDBRANCH  33  38
ENDBRANCH  30  32
ENDBRANCH  26  28
ENDBRANCH  25  26
ENDBRANCH  24  25
ENDBRANCH   1  24
TORSDOF 12
