REMARK VINA RESULT:    -6.710      4.107      9.046
REMARK INTER + INTRA:         -13.271
REMARK INTER:                 -11.165
REMARK INTRA:                  -2.106
REMARK UNBOUND:                -1.658
REMARK  Name = lig_assembled_60.pdb
REMARK  13 active torsions:
REMARK  status: ('A' for Active; 'I' for Inactive)
REMARK    1  A    between atoms: _2  and  _9
REMARK    2  A    between atoms: _3  and  _44
REMARK    3  A    between atoms: _6  and  _7
REMARK    4  A    between atoms: _6  and  _16
REMARK    5  A    between atoms: _12  and  _44
REMARK    6  A    between atoms: _16  and  _18
REMARK    7  A    between atoms: _17  and  _22
REMARK    8  A    between atoms: _18  and  _21
REMARK    9  A    between atoms: _26  and  _36
REMARK   10  A    between atoms: _28  and  _29
REMARK   11  A    between atoms: _30  and  _32
REMARK   12  A    between atoms: _32  and  _34
REMARK   13  A    between atoms: _34  and  _36
REMARK                            x       y       z     vdW  Elec       q    Type
REMARK                         _______ _______ _______ _____ _____    ______ ____
ROOT
ATOM      1  C   UNL     1      31.421  14.309   2.046  0.00  0.00    +0.400 C 
ATOM      2  N   UNL     1      30.693  15.372   1.566  0.00  0.00    -0.278 N 
ATOM      3  H   UNL     1      29.926  15.497   2.300  0.00  0.00    +0.152 HD
ATOM      4  O   UNL     1      31.178  13.905   3.181  0.00  0.00    -0.226 OA
ENDROOT
BRANCH   2   5
ATOM      5  C   UNL     1      30.511  16.391   0.536  0.00  0.00    +0.152 C 
BRANCH   5   6
ATOM      6  C   UNL     1      29.178  16.343  -0.239  0.00  0.00    +0.193 C 
ATOM      7  O   UNL     1      29.282  17.313  -1.304  0.00  0.00    -0.219 OA
BRANCH   6   8
ATOM      8  C   UNL     1      28.815  15.023  -0.955  0.00  0.00    +0.212 C 
ATOM      9  O   UNL     1      30.001  14.265  -1.244  0.00  0.00    -0.218 OA
BRANCH   8  10
ATOM     10  C   UNL     1      27.826  14.115  -0.127  0.00  0.00    +0.171 C 
ATOM     11  O   UNL     1      28.506  13.229   0.756  0.00  0.00    -0.343 OA
ATOM     12  C   UNL     1      27.900  12.160   1.420  0.00  0.00    +0.220 C 
ATOM     13  C   UNL     1      27.096  11.271   0.455  0.00  0.00    +0.076 C 
ATOM     14  C   UNL     1      26.130  12.183  -0.319  0.00  0.00    +0.177 C 
ATOM     15  O   UNL     1      25.333  11.404  -1.199  0.00  0.00    -0.221 OA
ATOM     16  C   UNL     1      26.929  13.276  -1.095  0.00  0.00    +0.155 C 
BRANCH  16  17
ATOM     17  N   UNL     1      26.015  14.141  -1.837  0.00  0.00    -0.202 NA
ATOM     18  C   UNL     1      25.982  14.435  -3.162  0.00  0.00    +0.242 C 
ATOM     19  C   UNL     1      24.758  15.120  -3.712  0.00  0.00    +0.096 C 
ATOM     20  O   UNL     1      26.939  14.138  -3.874  0.00  0.00    -0.273 OA
ENDBRANCH  16  17
BRANCH  12  21
ATOM     21  C   UNL     1      27.006  12.615   2.698  0.00  0.00    +0.391 C 
ATOM     22  O   UNL     1      26.151  11.594   2.904  0.00  0.00    -0.243 OA
ATOM     23  O   UNL     1      27.639  13.663   3.238  0.00  0.00    -0.243 OA
ENDBRANCH  12  21
ENDBRANCH   8  10
ENDBRANCH   6   8
ENDBRANCH   5   6
ENDBRANCH   2   5
BRANCH   1  24
ATOM     24  O   UNL     1      32.288  13.808   1.227  0.00  0.00    -0.450 OA
BRANCH  24  25
ATOM     25  C   UNL     1      33.678  13.822   1.004  0.00  0.00    +0.240 C 
BRANCH  25  26
ATOM     26  C   UNL     1      34.536  12.823   1.805  0.00  0.00    +0.100 C 
BRANCH  26  28
ATOM     27  N   UNL     1      34.583  14.060   3.949  0.00  0.00    -0.134 NA
ATOM     28  C   UNL     1      34.246  12.940   3.246  0.00  0.00    +0.086 A 
ATOM     29  C   UNL     1      33.631  12.047   4.091  0.00  0.00    +0.139 A 
ATOM     30  N   UNL     1      33.578  12.687   5.308  0.00  0.00    -0.220 N 
ATOM     31  N   UNL     1      34.183  13.895   5.204  0.00  0.00    -0.061 NA
BRANCH  30  32
ATOM     32  C   UNL     1      32.971  12.248   6.514  0.00  0.00    +0.067 A 
ATOM     33  C   UNL     1      31.579  12.320   6.680  0.00  0.00    +0.030 A 
ATOM     34  C   UNL     1      30.999  11.951   7.895  0.00  0.00    +0.030 A 
ATOM     35  C   UNL     1      31.806  11.498   8.941  0.00  0.00    +0.105 A 
ATOM     36  C   UNL     1      33.193  11.407   8.782  0.00  0.00    +0.030 A 
ATOM     37  C   UNL     1      33.773  11.775   7.565  0.00  0.00    +0.030 A 
BRANCH  35  38
ATOM     38  S   UNL     1      31.068  11.109  10.500  0.00  0.00    +0.056 S 
ATOM     39  O   UNL     1      30.313   9.886  10.380  0.00  0.00    -0.153 OA
ATOM     40  O   UNL     1      32.041  11.322  11.548  0.00  0.00    -0.153 OA
BRANCH  38  41
ATOM     41  N   UNL     1      29.939  12.340  10.659  0.00  0.00    -0.204 NA
ATOM     42  H   UNL     1      29.050  11.954  10.976  0.00  0.00    +0.144 HD
ATOM     43  H   UNL     1      29.874  12.861   9.784  0.00  0.00    +0.144 HD
ENDBRANCH  38  41
ENDBRANCH  35  38
ENDBRANCH  30  32
ENDBRANCH  26  28
ENDBRANCH  25  26
ENDBRANCH  24  25
ENDBRANCH   1  24
TORSDOF 13
