REMARK VINA RESULT:    -6.531      2.933      6.041
REMARK INTER + INTRA:         -12.864
REMARK INTER:                 -11.301
REMARK INTRA:                  -1.563
REMARK UNBOUND:                -2.133
REMARK  Name = lig_assembled_7.pdb
REMARK  14 active torsions:
REMARK  status: ('A' for Active; 'I' for Inactive)
REMARK    1  A    between atoms: _2  and  _8
REMARK    2  A    between atoms: _4  and  _15
REMARK    3  A    between atoms: _5  and  _6
REMARK    4  A    between atoms: _5  and  _16
REMARK    5  A    between atoms: _9  and  _10
REMARK    6  A    between atoms: _12  and  _13
REMARK    7  A    between atoms: _16  and  _18
REMARK    8  A    between atoms: _17  and  _22
REMARK    9  A    between atoms: _18  and  _21
REMARK   10  A    between atoms: _26  and  _36
REMARK   11  A    between atoms: _28  and  _29
REMARK   12  A    between atoms: _30  and  _32
REMARK   13  A    between atoms: _32  and  _34
REMARK   14  A    between atoms: _34  and  _36
REMARK                            x       y       z     vdW  Elec       q    Type
REMARK                         _______ _______ _______ _____ _____    ______ ____
ROOT
ATOM      1  C   UNL     1      24.298  10.479   1.965  0.00  0.00    +0.400 C 
ATOM      2  N   UNL     1      25.020  11.391   1.232  0.00  0.00    -0.278 N 
ATOM      3  H   UNL     1      25.614  11.886   1.969  0.00  0.00    +0.152 HD
ATOM      4  O   UNL     1      24.600  10.315   3.145  0.00  0.00    -0.226 OA
ENDROOT
BRANCH   1   5
ATOM      5  O   UNL     1      23.333   9.893   1.336  0.00  0.00    -0.450 OA
BRANCH   5   6
ATOM      6  C   UNL     1      21.996  10.137   0.965  0.00  0.00    +0.240 C 
BRANCH   6   7
ATOM      7  C   UNL     1      21.458  11.569   1.147  0.00  0.00    +0.100 C 
BRANCH   7   9
ATOM      8  N   UNL     1      21.362  11.480  -1.315  0.00  0.00    -0.134 NA
ATOM      9  C   UNL     1      21.204  12.190  -0.166  0.00  0.00    +0.086 A 
ATOM     10  C   UNL     1      20.791  13.469  -0.487  0.00  0.00    +0.139 A 
ATOM     11  N   UNL     1      20.757  13.508  -1.865  0.00  0.00    -0.219 N 
ATOM     12  N   UNL     1      21.064  12.271  -2.332  0.00  0.00    -0.061 NA
BRANCH  11  13
ATOM     13  C   UNL     1      20.453  14.599  -2.741  0.00  0.00    +0.073 A 
ATOM     14  C   UNL     1      19.109  14.786  -3.184  0.00  0.00    -0.024 A 
ATOM     15  C   UNL     1      18.799  15.861  -4.047  0.00  0.00    +0.008 A 
ATOM     16  C   UNL     1      19.775  16.756  -4.473  0.00  0.00    -0.050 A 
ATOM     17  C   UNL     1      19.411  17.888  -5.388  0.00  0.00    +0.044 C 
ATOM     18  C   UNL     1      21.084  16.572  -4.036  0.00  0.00    +0.008 A 
ATOM     19  C   UNL     1      17.936  13.932  -2.755  0.00  0.00    +0.046 C 
ATOM     20  C   UNL     1      21.453  15.498  -3.193  0.00  0.00    -0.024 A 
ATOM     21  C   UNL     1      22.938  15.407  -2.943  0.00  0.00    +0.046 C 
ENDBRANCH  11  13
ENDBRANCH   7   9
ENDBRANCH   6   7
ENDBRANCH   5   6
ENDBRANCH   1   5
BRANCH   2  22
ATOM     22  C   UNL     1      25.341  11.963  -0.073  0.00  0.00    +0.152 C 
BRANCH  22  23
ATOM     23  C   UNL     1      26.812  12.374  -0.291  0.00  0.00    +0.193 C 
ATOM     24  O   UNL     1      26.904  12.890  -1.637  0.00  0.00    -0.219 OA
BRANCH  23  25
ATOM     25  C   UNL     1      27.376  13.507   0.595  0.00  0.00    +0.212 C 
ATOM     26  O   UNL     1      27.340  13.127   1.980  0.00  0.00    -0.218 OA
BRANCH  25  27
ATOM     27  C   UNL     1      28.853  13.915   0.222  0.00  0.00    +0.171 C 
ATOM     28  O   UNL     1      29.789  13.568   1.237  0.00  0.00    -0.343 OA
ATOM     29  C   UNL     1      31.109  14.023   1.280  0.00  0.00    +0.220 C 
ATOM     30  C   UNL     1      31.192  15.551   1.124  0.00  0.00    +0.076 C 
ATOM     31  C   UNL     1      30.418  15.929  -0.150  0.00  0.00    +0.177 C 
ATOM     32  O   UNL     1      30.496  17.331  -0.363  0.00  0.00    -0.221 OA
ATOM     33  C   UNL     1      28.935  15.454  -0.039  0.00  0.00    +0.155 C 
BRANCH  33  34
ATOM     34  N   UNL     1      28.195  15.817  -1.244  0.00  0.00    -0.202 NA
ATOM     35  C   UNL     1      27.605  16.993  -1.579  0.00  0.00    +0.242 C 
ATOM     36  C   UNL     1      27.163  17.191  -3.006  0.00  0.00    +0.096 C 
ATOM     37  O   UNL     1      27.448  17.860  -0.722  0.00  0.00    -0.273 OA
ENDBRANCH  33  34
BRANCH  29  38
ATOM     38  C   UNL     1      32.090  13.262   0.231  0.00  0.00    +0.391 C 
ATOM     39  O   UNL     1      33.241  13.960   0.263  0.00  0.00    -0.243 OA
ATOM     40  O   UNL     1      31.508  12.085  -0.032  0.00  0.00    -0.243 OA
ENDBRANCH  29  38
ENDBRANCH  25  27
ENDBRANCH  23  25
ENDBRANCH  22  23
ENDBRANCH   2  22
TORSDOF 11
