REMARK VINA RESULT:    -7.117      4.150      7.058
REMARK INTER + INTRA:         -13.311
REMARK INTER:                 -11.038
REMARK INTRA:                  -2.273
REMARK UNBOUND:                -1.202
REMARK  Name = lig_assembled_38.pdb
REMARK  12 active torsions:
REMARK  status: ('A' for Active; 'I' for Inactive)
REMARK    1  A    between atoms: _2  and  _8
REMARK    2  A    between atoms: _5  and  _6
REMARK    3  A    between atoms: _5  and  _14
REMARK    4  A    between atoms: _8  and  _9
REMARK    5  A    between atoms: _14  and  _16
REMARK    6  A    between atoms: _15  and  _20
REMARK    7  A    between atoms: _16  and  _19
REMARK    8  A    between atoms: _24  and  _34
REMARK    9  A    between atoms: _26  and  _27
REMARK   10  A    between atoms: _28  and  _30
REMARK   11  A    between atoms: _30  and  _32
REMARK   12  A    between atoms: _32  and  _34
REMARK                            x       y       z     vdW  Elec       q    Type
REMARK                         _______ _______ _______ _____ _____    ______ ____
ROOT
ATOM      1  C   UNL     1      35.771  13.118  -0.560  0.00  0.00    +0.400 C 
ATOM      2  N   UNL     1      35.598  13.530   0.740  0.00  0.00    -0.278 N 
ATOM      3  H   UNL     1      36.439  14.167   0.911  0.00  0.00    +0.152 HD
ATOM      4  O   UNL     1      36.646  13.662  -1.229  0.00  0.00    -0.226 OA
ENDROOT
BRANCH   2   5
ATOM      5  C   UNL     1      34.793  13.499   1.958  0.00  0.00    +0.152 C 
BRANCH   5   6
ATOM      6  C   UNL     1      33.283  13.248   1.769  0.00  0.00    +0.193 C 
ATOM      7  O   UNL     1      33.120  11.826   1.573  0.00  0.00    -0.219 OA
BRANCH   6   8
ATOM      8  C   UNL     1      32.348  13.583   2.952  0.00  0.00    +0.212 C 
ATOM      9  O   UNL     1      31.669  14.828   2.718  0.00  0.00    -0.218 OA
BRANCH   8  10
ATOM     10  C   UNL     1      31.272  12.467   3.233  0.00  0.00    +0.171 C 
ATOM     11  O   UNL     1      29.972  12.832   2.781  0.00  0.00    -0.343 OA
ATOM     12  C   UNL     1      28.800  12.149   3.114  0.00  0.00    +0.220 C 
ATOM     13  C   UNL     1      28.680  11.929   4.632  0.00  0.00    +0.076 C 
ATOM     14  C   UNL     1      29.979  11.256   5.107  0.00  0.00    +0.177 C 
ATOM     15  O   UNL     1      29.904  10.994   6.501  0.00  0.00    -0.221 OA
ATOM     16  C   UNL     1      31.206  12.157   4.765  0.00  0.00    +0.155 C 
BRANCH  16  17
ATOM     17  N   UNL     1      32.442  11.525   5.220  0.00  0.00    -0.202 NA
ATOM     18  C   UNL     1      33.402  11.998   6.054  0.00  0.00    +0.242 C 
ATOM     19  C   UNL     1      34.424  11.030   6.591  0.00  0.00    +0.096 C 
ATOM     20  O   UNL     1      33.416  13.192   6.350  0.00  0.00    -0.273 OA
ENDBRANCH  16  17
BRANCH  12  21
ATOM     21  C   UNL     1      28.605  10.761   2.292  0.00  0.00    +0.391 C 
ATOM     22  O   UNL     1      27.542  10.164   2.866  0.00  0.00    -0.243 OA
ATOM     23  O   UNL     1      29.360  10.873   1.192  0.00  0.00    -0.243 OA
ENDBRANCH  12  21
ENDBRANCH   8  10
ENDBRANCH   6   8
ENDBRANCH   5   6
ENDBRANCH   2   5
BRANCH   1  24
ATOM     24  O   UNL     1      35.000  12.156  -0.950  0.00  0.00    -0.450 OA
BRANCH  24  25
ATOM     25  C   UNL     1      33.995  11.914  -1.907  0.00  0.00    +0.240 C 
BRANCH  25  26
ATOM     26  C   UNL     1      33.360  13.136  -2.596  0.00  0.00    +0.100 C 
BRANCH  26  28
ATOM     27  N   UNL     1      32.571  15.066  -1.258  0.00  0.00    -0.134 NA
ATOM     28  C   UNL     1      32.382  13.783  -1.698  0.00  0.00    +0.086 A 
ATOM     29  C   UNL     1      31.191  13.306  -1.199  0.00  0.00    +0.134 A 
ATOM     30  N   UNL     1      30.674  14.366  -0.510  0.00  0.00    -0.247 N 
ATOM     31  N   UNL     1      31.515  15.416  -0.537  0.00  0.00    -0.065 NA
BRANCH  30  32
ATOM     32  C   UNL     1      29.318  14.524  -0.015  0.00  0.00    +0.180 C 
BRANCH  32  33
ATOM     33  C   UNL     1      28.561  15.645  -0.685  0.00  0.00    -0.025 A 
ATOM     34  C   UNL     1      28.727  16.975  -0.272  0.00  0.00    +0.005 A 
ATOM     35  C   UNL     1      28.093  18.017  -0.954  0.00  0.00    +0.001 A 
ATOM     36  C   UNL     1      27.284  17.743  -2.056  0.00  0.00    +0.015 A 
ATOM     37  C   UNL     1      27.105  16.424  -2.466  0.00  0.00    +0.018 A 
ATOM     38 BR   UNL     1      26.018  16.047  -3.966  0.00  0.00    -0.050 Br
ATOM     39  C   UNL     1      27.737  15.378  -1.791  0.00  0.00    +0.020 A 
ENDBRANCH  32  33
ENDBRANCH  30  32
ENDBRANCH  26  28
ENDBRANCH  25  26
ENDBRANCH  24  25
ENDBRANCH   1  24
TORSDOF 12
