REMARK VINA RESULT:    -7.636      3.328     10.540
REMARK INTER + INTRA:         -14.314
REMARK INTER:                 -12.456
REMARK INTRA:                  -1.858
REMARK UNBOUND:                -1.768
REMARK  Name = lig_assembled_91.pdb
REMARK  11 active torsions:
REMARK  status: ('A' for Active; 'I' for Inactive)
REMARK    1  A    between atoms: _2  and  _9
REMARK    2  A    between atoms: _6  and  _7
REMARK    3  A    between atoms: _6  and  _21
REMARK    4  A    between atoms: _21  and  _23
REMARK    5  A    between atoms: _22  and  _27
REMARK    6  A    between atoms: _23  and  _26
REMARK    7  A    between atoms: _31  and  _41
REMARK    8  A    between atoms: _33  and  _34
REMARK    9  A    between atoms: _35  and  _37
REMARK   10  A    between atoms: _37  and  _39
REMARK   11  A    between atoms: _39  and  _41
REMARK                            x       y       z     vdW  Elec       q    Type
REMARK                         _______ _______ _______ _____ _____    ______ ____
ROOT
ATOM      1  C   UNL     1      27.667  15.131  -1.598  0.00  0.00    +0.400 C 
ATOM      2  N   UNL     1      26.504  15.192  -2.329  0.00  0.00    -0.278 N 
ATOM      3  H   UNL     1      26.240  14.165  -2.460  0.00  0.00    +0.152 HD
ATOM      4  O   UNL     1      28.006  14.043  -1.140  0.00  0.00    -0.226 OA
ENDROOT
BRANCH   1   5
ATOM      5  O   UNL     1      28.319  16.242  -1.489  0.00  0.00    -0.450 OA
BRANCH   5   6
ATOM      6  C   UNL     1      28.689  17.170  -0.496  0.00  0.00    +0.240 C 
BRANCH   6   7
ATOM      7  C   UNL     1      30.189  17.303  -0.171  0.00  0.00    +0.100 C 
BRANCH   7   9
ATOM      8  N   UNL     1      31.120  15.029  -0.412  0.00  0.00    -0.134 NA
ATOM      9  C   UNL     1      30.710  16.045   0.397  0.00  0.00    +0.086 A 
ATOM     10  C   UNL     1      30.895  15.671   1.708  0.00  0.00    +0.139 A 
ATOM     11  N   UNL     1      31.384  14.381   1.660  0.00  0.00    -0.219 N 
ATOM     12  N   UNL     1      31.528  14.030   0.356  0.00  0.00    -0.060 NA
BRANCH  11  13
ATOM     13  C   UNL     1      31.706  13.488   2.729  0.00  0.00    +0.085 A 
ATOM     14  C   UNL     1      33.081  13.265   3.098  0.00  0.00    +0.026 A 
ATOM     15  C   UNL     1      33.288  12.349   4.147  0.00  0.00    +0.074 A 
ATOM     16  C   UNL     1      34.568  12.052   4.590  0.00  0.00    +0.028 A 
ATOM     17  C   UNL     1      35.701  12.641   4.036  0.00  0.00    +0.002 A 
ATOM     18  C   UNL     1      35.544  13.573   3.030  0.00  0.00    +0.001 A 
ATOM     19  N   UNL     1      32.305  11.727   4.795  0.00  0.00    -0.247 NA
ATOM     20  C   UNL     1      31.034  11.957   4.469  0.00  0.00    +0.074 A 
ATOM     21  C   UNL     1      30.089  11.254   5.210  0.00  0.00    +0.028 A 
ATOM     22  C   UNL     1      28.724  11.360   4.963  0.00  0.00    +0.002 A 
ATOM     23  C   UNL     1      28.290  12.181   3.941  0.00  0.00    +0.001 A 
ATOM     24  C   UNL     1      29.228  12.890   3.184  0.00  0.00    +0.012 A 
ATOM     25  C   UNL     1      34.258  13.897   2.584  0.00  0.00    +0.012 A 
ATOM     26  C   UNL     1      30.638  12.820   3.435  0.00  0.00    +0.026 A 
ENDBRANCH  11  13
ENDBRANCH   7   9
ENDBRANCH   6   7
ENDBRANCH   5   6
ENDBRANCH   1   5
BRANCH   2  27
ATOM     27  C   UNL     1      25.485  16.012  -2.979  0.00  0.00    +0.152 C 
BRANCH  27  28
ATOM     28  C   UNL     1      24.935  15.479  -4.318  0.00  0.00    +0.193 C 
ATOM     29  O   UNL     1      26.030  15.516  -5.260  0.00  0.00    -0.219 OA
BRANCH  28  30
ATOM     30  C   UNL     1      24.442  14.016  -4.357  0.00  0.00    +0.212 C 
ATOM     31  O   UNL     1      25.538  13.124  -4.616  0.00  0.00    -0.218 OA
BRANCH  30  32
ATOM     32  C   UNL     1      23.727  13.563  -3.027  0.00  0.00    +0.171 C 
ATOM     33  O   UNL     1      24.135  12.267  -2.600  0.00  0.00    -0.343 OA
ATOM     34  C   UNL     1      23.493  11.527  -1.605  0.00  0.00    +0.220 C 
ATOM     35  C   UNL     1      21.976  11.441  -1.846  0.00  0.00    +0.076 C 
ATOM     36  C   UNL     1      21.454  12.876  -2.024  0.00  0.00    +0.177 C 
ATOM     37  O   UNL     1      20.046  12.856  -2.211  0.00  0.00    -0.221 OA
ATOM     38  C   UNL     1      22.176  13.566  -3.223  0.00  0.00    +0.155 C 
BRANCH  38  39
ATOM     39  N   UNL     1      21.677  14.927  -3.399  0.00  0.00    -0.202 NA
ATOM     40  C   UNL     1      21.040  15.488  -4.459  0.00  0.00    +0.242 C 
ATOM     41  C   UNL     1      20.372  16.824  -4.266  0.00  0.00    +0.096 C 
ATOM     42  O   UNL     1      21.021  14.898  -5.537  0.00  0.00    -0.273 OA
ENDBRANCH  38  39
BRANCH  34  43
ATOM     43  C   UNL     1      23.830  12.037  -0.100  0.00  0.00    +0.391 C 
ATOM     44  O   UNL     1      22.952  11.391   0.692  0.00  0.00    -0.243 OA
ATOM     45  O   UNL     1      25.016  12.654  -0.175  0.00  0.00    -0.243 OA
ENDBRANCH  34  43
ENDBRANCH  30  32
ENDBRANCH  28  30
ENDBRANCH  27  28
ENDBRANCH   2  27
TORSDOF 11
