REMARK VINA RESULT:    -6.530      3.665      9.810
REMARK INTER + INTRA:         -12.891
REMARK INTER:                 -11.495
REMARK INTRA:                  -1.396
REMARK UNBOUND:                -2.544
REMARK  Name = lig_assembled_65.pdb
REMARK  11 active torsions:
REMARK  status: ('A' for Active; 'I' for Inactive)
REMARK    1  A    between atoms: _8  and  _14
REMARK    2  A    between atoms: _9  and  _10
REMARK    3  A    between atoms: _9  and  _15
REMARK    4  A    between atoms: _15  and  _17
REMARK    5  A    between atoms: _16  and  _21
REMARK    6  A    between atoms: _17  and  _20
REMARK    7  A    between atoms: _25  and  _35
REMARK    8  A    between atoms: _27  and  _28
REMARK    9  A    between atoms: _29  and  _31
REMARK   10  A    between atoms: _31  and  _33
REMARK   11  A    between atoms: _33  and  _35
REMARK                            x       y       z     vdW  Elec       q    Type
REMARK                         _______ _______ _______ _____ _____    ______ ____
ROOT
ATOM      1  C   UNL     1      27.938  17.841  -1.043  0.00  0.00    +0.400 C 
ATOM      2  N   UNL     1      27.184  17.594  -2.166  0.00  0.00    -0.278 N 
ATOM      3  H   UNL     1      26.203  17.904  -1.878  0.00  0.00    +0.152 HD
ATOM      4  O   UNL     1      27.421  18.474  -0.126  0.00  0.00    -0.226 OA
ENDROOT
BRANCH   1   5
ATOM      5  O   UNL     1      29.133  17.347  -1.051  0.00  0.00    -0.450 OA
BRANCH   5   6
ATOM      6  C   UNL     1      29.889  16.370  -0.373  0.00  0.00    +0.240 C 
BRANCH   6   7
ATOM      7  C   UNL     1      29.353  14.926  -0.378  0.00  0.00    +0.100 C 
BRANCH   7   9
ATOM      8  N   UNL     1      28.528  13.815   1.675  0.00  0.00    -0.134 NA
ATOM      9  C   UNL     1      29.574  14.291   0.935  0.00  0.00    +0.087 A 
ATOM     10  C   UNL     1      30.746  14.070   1.619  0.00  0.00    +0.146 A 
ATOM     11  N   UNL     1      30.361  13.455   2.791  0.00  0.00    -0.155 N 
ATOM     12  C   UNL     1      31.206  13.033   3.859  0.00  0.00    +0.416 C 
ATOM     13  N   UNL     1      30.648  12.446   4.926  0.00  0.00    +0.041 NA
ATOM     14  C   UNL     1      31.499  12.095   5.887  0.00  0.00    +0.339 C 
ATOM     15  C   UNL     1      30.933  11.447   7.111  0.00  0.00    +0.149 C 
ATOM     16  N   UNL     1      32.817  12.292   5.839  0.00  0.00    +0.007 NA
ATOM     17  C   UNL     1      33.266  12.892   4.747  0.00  0.00    +0.386 C 
ATOM     18  N   UNL     1      34.622  13.125   4.663  0.00  0.00    -0.296 N 
ATOM     19  H   UNL     1      35.131  12.498   5.270  0.00  0.00    +0.148 HD
ATOM     20  H   UNL     1      34.924  13.192   3.701  0.00  0.00    +0.148 HD
ATOM     21  N   UNL     1      32.520  13.264   3.722  0.00  0.00    -0.290 NA
ATOM     22  N   UNL     1      29.012  13.303   2.802  0.00  0.00    -0.056 NA
ENDBRANCH   7   9
ENDBRANCH   6   7
ENDBRANCH   5   6
ENDBRANCH   1   5
BRANCH   2  23
ATOM     23  C   UNL     1      27.127  17.121  -3.547  0.00  0.00    +0.152 C 
BRANCH  23  24
ATOM     24  C   UNL     1      25.924  16.225  -3.909  0.00  0.00    +0.193 C 
ATOM     25  O   UNL     1      26.070  15.879  -5.304  0.00  0.00    -0.219 OA
BRANCH  24  26
ATOM     26  C   UNL     1      25.802  14.866  -3.186  0.00  0.00    +0.212 C 
ATOM     27  O   UNL     1      26.252  14.979  -1.826  0.00  0.00    -0.218 OA
BRANCH  26  28
ATOM     28  C   UNL     1      24.336  14.289  -3.185  0.00  0.00    +0.171 C 
ATOM     29  O   UNL     1      23.346  15.307  -3.297  0.00  0.00    -0.343 OA
ATOM     30  C   UNL     1      21.981  15.106  -3.080  0.00  0.00    +0.220 C 
ATOM     31  C   UNL     1      21.715  14.395  -1.742  0.00  0.00    +0.076 C 
ATOM     32  C   UNL     1      22.568  13.117  -1.719  0.00  0.00    +0.177 C 
ATOM     33  O   UNL     1      22.329  12.399  -0.516  0.00  0.00    -0.221 OA
ATOM     34  C   UNL     1      24.079  13.476  -1.874  0.00  0.00    +0.155 C 
BRANCH  34  35
ATOM     35  N   UNL     1      24.894  12.264  -1.846  0.00  0.00    -0.202 NA
ATOM     36  C   UNL     1      25.594  11.713  -0.822  0.00  0.00    +0.242 C 
ATOM     37  C   UNL     1      26.106  10.305  -0.982  0.00  0.00    +0.096 C 
ATOM     38  O   UNL     1      25.790  12.365   0.202  0.00  0.00    -0.273 OA
ENDBRANCH  34  35
BRANCH  30  39
ATOM     39  C   UNL     1      21.233  14.358  -4.312  0.00  0.00    +0.391 C 
ATOM     40  O   UNL     1      20.039  13.979  -3.816  0.00  0.00    -0.243 OA
ATOM     41  O   UNL     1      21.936  14.660  -5.411  0.00  0.00    -0.243 OA
ENDBRANCH  30  39
ENDBRANCH  26  28
ENDBRANCH  24  26
ENDBRANCH  23  24
ENDBRANCH   2  23
TORSDOF 10
