REMARK VINA RESULT:    -8.297      1.290      3.248
REMARK INTER + INTRA:         -15.230
REMARK INTER:                 -13.408
REMARK INTRA:                  -1.821
REMARK UNBOUND:                -1.598
REMARK  Name = lig_assembled_80.pdb
REMARK  11 active torsions:
REMARK  status: ('A' for Active; 'I' for Inactive)
REMARK    1  A    between atoms: _2  and  _9
REMARK    2  A    between atoms: _6  and  _7
REMARK    3  A    between atoms: _6  and  _19
REMARK    4  A    between atoms: _19  and  _21
REMARK    5  A    between atoms: _20  and  _25
REMARK    6  A    between atoms: _21  and  _24
REMARK    7  A    between atoms: _29  and  _39
REMARK    8  A    between atoms: _31  and  _32
REMARK    9  A    between atoms: _33  and  _35
REMARK   10  A    between atoms: _35  and  _37
REMARK   11  A    between atoms: _37  and  _39
REMARK                            x       y       z     vdW  Elec       q    Type
REMARK                         _______ _______ _______ _____ _____    ______ ____
ROOT
ATOM      1  C   UNL     1      28.789  17.046  -0.476  0.00  0.00    +0.400 C 
ATOM      2  N   UNL     1      28.896  15.883   0.250  0.00  0.00    -0.278 N 
ATOM      3  H   UNL     1      29.639  16.116   0.982  0.00  0.00    +0.152 HD
ATOM      4  O   UNL     1      29.361  18.047  -0.053  0.00  0.00    -0.226 OA
ENDROOT
BRANCH   1   5
ATOM      5  O   UNL     1      28.107  16.961  -1.571  0.00  0.00    -0.450 OA
BRANCH   5   6
ATOM      6  C   UNL     1      27.179  17.718  -2.313  0.00  0.00    +0.240 C 
BRANCH   6   7
ATOM      7  C   UNL     1      26.885  17.267  -3.756  0.00  0.00    +0.100 C 
BRANCH   7   9
ATOM      8  N   UNL     1      25.570  15.555  -4.942  0.00  0.00    -0.134 NA
ATOM      9  C   UNL     1      25.974  16.105  -3.757  0.00  0.00    +0.086 A 
ATOM     10  C   UNL     1      25.413  15.407  -2.711  0.00  0.00    +0.134 A 
ATOM     11  N   UNL     1      24.625  14.473  -3.329  0.00  0.00    -0.240 N 
ATOM     12  N   UNL     1      24.754  14.544  -4.672  0.00  0.00    -0.065 NA
BRANCH  11  13
ATOM     13  C   UNL     1      23.856  13.365  -2.752  0.00  0.00    +0.195 C 
ATOM     14  C   UNL     1      24.763  12.589  -1.807  0.00  0.00    +0.041 C 
ATOM     15  C   UNL     1      24.133  11.274  -1.402  0.00  0.00    +0.039 C 
ATOM     16  C   UNL     1      23.214  11.487  -0.238  0.00  0.00    -0.026 A 
ATOM     17  C   UNL     1      22.061  12.268  -0.324  0.00  0.00    +0.037 A 
ATOM     18  C   UNL     1      21.186  12.321   0.775  0.00  0.00    +0.023 A 
ATOM     19  C   UNL     1      21.510  11.707   1.983  0.00  0.00    +0.002 A 
ATOM     20  C   UNL     1      22.695  10.993   2.094  0.00  0.00    +0.000 A 
ATOM     21  N   UNL     1      21.710  13.097  -1.403  0.00  0.00    -0.284 N 
ATOM     22  H   UNL     1      20.818  13.570  -1.301  0.00  0.00    +0.155 HD
ATOM     23  C   UNL     1      23.527  10.861   0.984  0.00  0.00    +0.005 A 
ATOM     24  C   UNL     1      22.505  13.838  -2.230  0.00  0.00    +0.242 C 
ATOM     25  O   UNL     1      21.995  14.894  -2.624  0.00  0.00    -0.273 OA
ENDBRANCH  11  13
ENDBRANCH   7   9
ENDBRANCH   6   7
ENDBRANCH   5   6
ENDBRANCH   1   5
BRANCH   2  26
ATOM     26  C   UNL     1      28.451  14.510   0.472  0.00  0.00    +0.152 C 
BRANCH  26  27
ATOM     27  C   UNL     1      28.692  13.938   1.885  0.00  0.00    +0.193 C 
ATOM     28  O   UNL     1      27.481  13.249   2.266  0.00  0.00    -0.219 OA
BRANCH  27  29
ATOM     29  C   UNL     1      29.805  12.878   2.046  0.00  0.00    +0.212 C 
ATOM     30  O   UNL     1      29.429  11.653   1.397  0.00  0.00    -0.218 OA
BRANCH  29  31
ATOM     31  C   UNL     1      31.199  13.345   1.476  0.00  0.00    +0.171 C 
ATOM     32  O   UNL     1      31.295  13.181   0.065  0.00  0.00    -0.343 OA
ATOM     33  C   UNL     1      32.485  13.282  -0.661  0.00  0.00    +0.220 C 
ATOM     34  C   UNL     1      33.600  12.415  -0.051  0.00  0.00    +0.076 C 
ATOM     35  C   UNL     1      33.715  12.787   1.436  0.00  0.00    +0.177 C 
ATOM     36  O   UNL     1      34.762  12.040   2.040  0.00  0.00    -0.221 OA
ATOM     37  C   UNL     1      32.354  12.542   2.159  0.00  0.00    +0.155 C 
BRANCH  37  38
ATOM     38  N   UNL     1      32.461  12.888   3.574  0.00  0.00    -0.202 NA
ATOM     39  C   UNL     1      32.377  12.092   4.670  0.00  0.00    +0.242 C 
ATOM     40  C   UNL     1      32.817  12.654   5.997  0.00  0.00    +0.096 C 
ATOM     41  O   UNL     1      31.949  10.945   4.557  0.00  0.00    -0.273 OA
ENDBRANCH  37  38
BRANCH  33  42
ATOM     42  C   UNL     1      32.977  14.814  -0.887  0.00  0.00    +0.391 C 
ATOM     43  O   UNL     1      34.249  14.710  -1.319  0.00  0.00    -0.243 OA
ATOM     44  O   UNL     1      31.870  15.566  -0.855  0.00  0.00    -0.243 OA
ENDBRANCH  33  42
ENDBRANCH  29  31
ENDBRANCH  27  29
ENDBRANCH  26  27
ENDBRANCH   2  26
TORSDOF 11
