REMARK VINA RESULT:    -6.350      2.145      8.883
REMARK INTER + INTRA:         -14.427
REMARK INTER:                 -12.134
REMARK INTRA:                  -2.293
REMARK UNBOUND:                -2.880
REMARK  Name = lig_assembled_21.pdb
REMARK  15 active torsions:
REMARK  status: ('A' for Active; 'I' for Inactive)
REMARK    1  A    between atoms: _2  and  _8
REMARK    2  A    between atoms: _5  and  _6
REMARK    3  A    between atoms: _5  and  _18
REMARK    4  A    between atoms: _8  and  _9
REMARK    5  A    between atoms: _10  and  _17
REMARK    6  A    between atoms: _11  and  _12
REMARK    7  A    between atoms: _11  and  _17
REMARK    8  A    between atoms: _18  and  _20
REMARK    9  A    between atoms: _19  and  _24
REMARK   10  A    between atoms: _20  and  _23
REMARK   11  A    between atoms: _28  and  _38
REMARK   12  A    between atoms: _30  and  _31
REMARK   13  A    between atoms: _32  and  _34
REMARK   14  A    between atoms: _34  and  _36
REMARK   15  A    between atoms: _36  and  _38
REMARK                            x       y       z     vdW  Elec       q    Type
REMARK                         _______ _______ _______ _____ _____    ______ ____
ROOT
ATOM      1  C   UNL     1      28.057  17.496  -0.741  0.00  0.00    +0.400 C 
ATOM      2  N   UNL     1      27.242  16.889  -1.668  0.00  0.00    -0.278 N 
ATOM      3  H   UNL     1      26.260  17.061  -1.283  0.00  0.00    +0.152 HD
ATOM      4  O   UNL     1      27.533  18.192   0.124  0.00  0.00    -0.226 OA
ENDROOT
BRANCH   2   5
ATOM      5  C   UNL     1      27.118  16.146  -2.919  0.00  0.00    +0.152 C 
BRANCH   5   6
ATOM      6  C   UNL     1      25.707  15.626  -3.264  0.00  0.00    +0.193 C 
ATOM      7  O   UNL     1      25.524  15.833  -4.682  0.00  0.00    -0.219 OA
BRANCH   6   8
ATOM      8  C   UNL     1      25.428  14.122  -3.054  0.00  0.00    +0.212 C 
ATOM      9  O   UNL     1      26.282  13.331  -3.896  0.00  0.00    -0.218 OA
BRANCH   8  10
ATOM     10  C   UNL     1      25.617  13.653  -1.561  0.00  0.00    +0.171 C 
ATOM     11  O   UNL     1      26.852  12.975  -1.353  0.00  0.00    -0.343 OA
ATOM     12  C   UNL     1      27.167  12.249  -0.202  0.00  0.00    +0.220 C 
ATOM     13  C   UNL     1      26.059  11.245   0.161  0.00  0.00    +0.076 C 
ATOM     14  C   UNL     1      24.735  12.023   0.230  0.00  0.00    +0.177 C 
ATOM     15  O   UNL     1      23.680  11.146   0.602  0.00  0.00    -0.221 OA
ATOM     16  C   UNL     1      24.443  12.709  -1.141  0.00  0.00    +0.155 C 
BRANCH  16  17
ATOM     17  N   UNL     1      23.182  13.444  -1.082  0.00  0.00    -0.202 NA
ATOM     18  C   UNL     1      22.025  13.236  -1.761  0.00  0.00    +0.242 C 
ATOM     19  C   UNL     1      20.785  13.955  -1.297  0.00  0.00    +0.096 C 
ATOM     20  O   UNL     1      22.015  12.475  -2.726  0.00  0.00    -0.273 OA
ENDBRANCH  16  17
BRANCH  12  21
ATOM     21  C   UNL     1      27.563  13.185   1.065  0.00  0.00    +0.391 C 
ATOM     22  O   UNL     1      27.356  12.411   2.148  0.00  0.00    -0.243 OA
ATOM     23  O   UNL     1      28.218  14.237   0.558  0.00  0.00    -0.243 OA
ENDBRANCH  12  21
ENDBRANCH   8  10
ENDBRANCH   6   8
ENDBRANCH   5   6
ENDBRANCH   2   5
BRANCH   1  24
ATOM     24  O   UNL     1      29.320  17.244  -0.857  0.00  0.00    -0.450 OA
BRANCH  24  25
ATOM     25  C   UNL     1      30.436  16.980  -0.039  0.00  0.00    +0.240 C 
BRANCH  25  26
ATOM     26  C   UNL     1      31.298  15.751  -0.387  0.00  0.00    +0.100 C 
BRANCH  26  28
ATOM     27  N   UNL     1      31.575  15.499   2.056  0.00  0.00    -0.134 NA
ATOM     28  C   UNL     1      31.519  14.926   0.815  0.00  0.00    +0.086 A 
ATOM     29  C   UNL     1      31.661  13.563   0.943  0.00  0.00    +0.134 A 
ATOM     30  N   UNL     1      31.710  13.359   2.296  0.00  0.00    -0.247 N 
ATOM     31  N   UNL     1      31.695  14.533   2.953  0.00  0.00    -0.065 NA
BRANCH  30  32
ATOM     32  C   UNL     1      31.687  12.065   2.969  0.00  0.00    +0.184 C 
BRANCH  32  33
ATOM     33  C   UNL     1      32.117  12.071   4.416  0.00  0.00    +0.016 A 
ATOM     34  C   UNL     1      33.471  12.009   4.790  0.00  0.00    +0.137 A 
ATOM     35  C   UNL     1      33.849  12.019   6.132  0.00  0.00    +0.047 A 
ATOM     36  C   UNL     1      32.872  12.109   7.124  0.00  0.00    +0.004 A 
ATOM     37  C   UNL     1      31.524  12.158   6.776  0.00  0.00    +0.001 A 
ATOM     38  C   UNL     1      31.148  12.142   5.431  0.00  0.00    +0.009 A 
BRANCH  34  39
ATOM     39  O   UNL     1      34.415  11.849   3.746  0.00  0.00    -0.426 OA
BRANCH  39  40
ATOM     40  C   UNL     1      35.602  12.582   3.688  0.00  0.00    +0.309 C 
ATOM     41  O   UNL     1      36.741  12.160   3.841  0.00  0.00    -0.251 OA
ATOM     42  C   UNL     1      35.281  14.001   3.322  0.00  0.00    +0.136 C 
ENDBRANCH  39  40
ENDBRANCH  34  39
ENDBRANCH  32  33
ENDBRANCH  30  32
ENDBRANCH  26  28
ENDBRANCH  25  26
ENDBRANCH  24  25
ENDBRANCH   1  24
TORSDOF 14
