REMARK VINA RESULT:    -6.473      4.300      9.387
REMARK INTER + INTRA:         -12.853
REMARK INTER:                 -10.540
REMARK INTRA:                  -2.313
REMARK UNBOUND:                -1.839
REMARK  Name = lig_assembled_61.pdb
REMARK  12 active torsions:
REMARK  status: ('A' for Active; 'I' for Inactive)
REMARK    1  A    between atoms: _2  and  _8
REMARK    2  A    between atoms: _5  and  _6
REMARK    3  A    between atoms: _5  and  _12
REMARK    4  A    between atoms: _8  and  _9
REMARK    5  A    between atoms: _12  and  _14
REMARK    6  A    between atoms: _13  and  _18
REMARK    7  A    between atoms: _14  and  _17
REMARK    8  A    between atoms: _22  and  _32
REMARK    9  A    between atoms: _24  and  _25
REMARK   10  A    between atoms: _26  and  _28
REMARK   11  A    between atoms: _28  and  _30
REMARK   12  A    between atoms: _30  and  _32
REMARK                            x       y       z     vdW  Elec       q    Type
REMARK                         _______ _______ _______ _____ _____    ______ ____
ROOT
ATOM      1  C   UNL     1      27.217  14.123  -2.619  0.00  0.00    +0.152 C 
ENDROOT
BRANCH   1   3
ATOM      2  C   UNL     1      26.662  16.751  -3.096  0.00  0.00    +0.400 C 
ATOM      3  N   UNL     1      26.596  15.380  -3.029  0.00  0.00    -0.278 N 
ATOM      4  H   UNL     1      25.669  15.153  -3.510  0.00  0.00    +0.152 HD
ATOM      5  O   UNL     1      25.832  17.338  -3.786  0.00  0.00    -0.226 OA
BRANCH   2   6
ATOM      6  O   UNL     1      27.592  17.302  -2.387  0.00  0.00    -0.450 OA
BRANCH   6   7
ATOM      7  C   UNL     1      27.848  17.649  -1.046  0.00  0.00    +0.240 C 
BRANCH   7   8
ATOM      8  C   UNL     1      29.321  17.756  -0.609  0.00  0.00    +0.100 C 
BRANCH   8  10
ATOM      9  N   UNL     1      31.011  16.383   0.570  0.00  0.00    -0.134 NA
ATOM     10  C   UNL     1      29.776  16.484  -0.016  0.00  0.00    +0.086 A 
ATOM     11  C   UNL     1      29.135  15.266   0.069  0.00  0.00    +0.134 A 
ATOM     12  N   UNL     1      30.056  14.455   0.663  0.00  0.00    -0.247 N 
ATOM     13  N   UNL     1      31.165  15.139   1.001  0.00  0.00    -0.065 NA
BRANCH  12  14
ATOM     14  C   UNL     1      29.939  13.042   0.976  0.00  0.00    +0.180 C 
BRANCH  14  15
ATOM     15  C   UNL     1      28.730  12.757   1.825  0.00  0.00    -0.019 A 
ATOM     16  C   UNL     1      28.511  13.298   3.138  0.00  0.00    +0.013 A 
ATOM     17  C   UNL     1      27.343  12.845   3.713  0.00  0.00    +0.045 A 
ATOM     18  S   UNL     1      26.493  11.782   2.684  0.00  0.00    -0.105 S 
ATOM     19  C   UNL     1      27.691  11.912   1.471  0.00  0.00    +0.050 A 
ENDBRANCH  14  15
ENDBRANCH  12  14
ENDBRANCH   8  10
ENDBRANCH   7   8
ENDBRANCH   6   7
ENDBRANCH   2   6
ENDBRANCH   1   3
BRANCH   1  20
ATOM     20  C   UNL     1      26.409  12.840  -2.906  0.00  0.00    +0.193 C 
ATOM     21  O   UNL     1      27.305  11.728  -2.689  0.00  0.00    -0.219 OA
BRANCH  20  22
ATOM     22  C   UNL     1      25.195  12.541  -1.999  0.00  0.00    +0.212 C 
ATOM     23  O   UNL     1      25.346  13.194  -0.728  0.00  0.00    -0.218 OA
BRANCH  22  24
ATOM     24  C   UNL     1      23.820  12.980  -2.632  0.00  0.00    +0.171 C 
ATOM     25  O   UNL     1      23.857  14.301  -3.161  0.00  0.00    -0.343 OA
ATOM     26  C   UNL     1      22.729  15.025  -3.555  0.00  0.00    +0.220 C 
ATOM     27  C   UNL     1      21.646  15.031  -2.462  0.00  0.00    +0.076 C 
ATOM     28  C   UNL     1      21.373  13.569  -2.072  0.00  0.00    +0.177 C 
ATOM     29  O   UNL     1      20.348  13.516  -1.091  0.00  0.00    -0.221 OA
ATOM     30  C   UNL     1      22.684  12.897  -1.559  0.00  0.00    +0.155 C 
BRANCH  30  31
ATOM     31  N   UNL     1      22.428  11.509  -1.181  0.00  0.00    -0.202 NA
ATOM     32  C   UNL     1      22.477  10.919   0.040  0.00  0.00    +0.242 C 
ATOM     33  C   UNL     1      21.882   9.544   0.195  0.00  0.00    +0.096 C 
ATOM     34  O   UNL     1      22.999  11.514   0.982  0.00  0.00    -0.273 OA
ENDBRANCH  30  31
BRANCH  26  35
ATOM     35  C   UNL     1      22.128  14.556  -4.989  0.00  0.00    +0.391 C 
ATOM     36  O   UNL     1      20.955  15.209  -5.105  0.00  0.00    -0.243 OA
ATOM     37  O   UNL     1      23.135  13.954  -5.634  0.00  0.00    -0.243 OA
ENDBRANCH  26  35
ENDBRANCH  22  24
ENDBRANCH  20  22
ENDBRANCH   1  20
TORSDOF 12
