REMARK VINA RESULT:    -7.102      2.755      9.277
REMARK INTER + INTRA:         -12.710
REMARK INTER:                 -10.983
REMARK INTRA:                  -1.727
REMARK UNBOUND:                -0.626
REMARK  Name = lig_assembled_5.pdb
REMARK  13 active torsions:
REMARK  status: ('A' for Active; 'I' for Inactive)
REMARK    1  A    between atoms: _2  and  _8
REMARK    2  A    between atoms: _5  and  _6
REMARK    3  A    between atoms: _5  and  _15
REMARK    4  A    between atoms: _11  and  _14
REMARK    5  A    between atoms: _12  and  _14
REMARK    6  A    between atoms: _15  and  _17
REMARK    7  A    between atoms: _16  and  _21
REMARK    8  A    between atoms: _17  and  _20
REMARK    9  A    between atoms: _25  and  _35
REMARK   10  A    between atoms: _27  and  _28
REMARK   11  A    between atoms: _29  and  _31
REMARK   12  A    between atoms: _31  and  _33
REMARK   13  A    between atoms: _33  and  _35
REMARK                            x       y       z     vdW  Elec       q    Type
REMARK                         _______ _______ _______ _____ _____    ______ ____
ROOT
ATOM      1  C   UNL     1      27.431  17.424  -2.122  0.00  0.00    +0.400 C 
ATOM      2  N   UNL     1      26.674  17.146  -3.236  0.00  0.00    -0.278 N 
ATOM      3  H   UNL     1      26.078  18.025  -3.356  0.00  0.00    +0.152 HD
ATOM      4  O   UNL     1      27.402  18.567  -1.672  0.00  0.00    -0.226 OA
ENDROOT
BRANCH   2   5
ATOM      5  C   UNL     1      26.338  16.217  -4.312  0.00  0.00    +0.152 C 
BRANCH   5   6
ATOM      6  C   UNL     1      25.791  14.842  -3.876  0.00  0.00    +0.193 C 
ATOM      7  O   UNL     1      26.929  13.960  -3.760  0.00  0.00    -0.219 OA
BRANCH   6   8
ATOM      8  C   UNL     1      25.093  14.753  -2.501  0.00  0.00    +0.212 C 
ATOM      9  O   UNL     1      24.079  15.765  -2.387  0.00  0.00    -0.218 OA
BRANCH   8  10
ATOM     10  C   UNL     1      24.435  13.348  -2.224  0.00  0.00    +0.171 C 
ATOM     11  O   UNL     1      23.014  13.410  -2.165  0.00  0.00    -0.343 OA
ATOM     12  C   UNL     1      22.199  12.376  -1.699  0.00  0.00    +0.220 C 
ATOM     13  C   UNL     1      22.662  11.860  -0.326  0.00  0.00    +0.076 C 
ATOM     14  C   UNL     1      24.153  11.504  -0.444  0.00  0.00    +0.177 C 
ATOM     15  O   UNL     1      24.623  10.983   0.791  0.00  0.00    -0.221 OA
ATOM     16  C   UNL     1      24.972  12.760  -0.877  0.00  0.00    +0.155 C 
BRANCH  16  17
ATOM     17  N   UNL     1      26.390  12.428  -0.984  0.00  0.00    -0.202 NA
ATOM     18  C   UNL     1      27.377  12.529  -0.058  0.00  0.00    +0.242 C 
ATOM     19  C   UNL     1      28.690  11.843  -0.333  0.00  0.00    +0.096 C 
ATOM     20  O   UNL     1      27.180  13.169   0.973  0.00  0.00    -0.273 OA
ENDBRANCH  16  17
BRANCH  12  21
ATOM     21  C   UNL     1      22.020  11.162  -2.764  0.00  0.00    +0.391 C 
ATOM     22  O   UNL     1      21.468  10.158  -2.056  0.00  0.00    -0.243 OA
ATOM     23  O   UNL     1      22.198  11.704  -3.975  0.00  0.00    -0.243 OA
ENDBRANCH  12  21
ENDBRANCH   8  10
ENDBRANCH   6   8
ENDBRANCH   5   6
ENDBRANCH   2   5
BRANCH   1  24
ATOM     24  O   UNL     1      28.088  16.426  -1.628  0.00  0.00    -0.450 OA
BRANCH  24  25
ATOM     25  C   UNL     1      28.721  16.054  -0.426  0.00  0.00    +0.240 C 
BRANCH  25  26
ATOM     26  C   UNL     1      30.073  16.716  -0.100  0.00  0.00    +0.100 C 
BRANCH  26  28
ATOM     27  N   UNL     1      31.847  15.019  -0.407  0.00  0.00    -0.134 NA
ATOM     28  C   UNL     1      31.020  15.716   0.426  0.00  0.00    +0.086 A 
ATOM     29  C   UNL     1      31.252  15.321   1.723  0.00  0.00    +0.139 A 
ATOM     30  N   UNL     1      32.263  14.389   1.636  0.00  0.00    -0.220 N 
ATOM     31  N   UNL     1      32.592  14.209   0.333  0.00  0.00    -0.061 NA
BRANCH  30  32
ATOM     32  C   UNL     1      32.930  13.703   2.685  0.00  0.00    +0.067 A 
ATOM     33  C   UNL     1      32.670  12.351   2.936  0.00  0.00    +0.031 A 
ATOM     34  C   UNL     1      33.290  11.710   4.012  0.00  0.00    +0.048 A 
ATOM     35  C   UNL     1      34.188  12.395   4.832  0.00  0.00    +0.120 A 
ATOM     36  C   UNL     1      34.464  13.737   4.573  0.00  0.00    +0.048 A 
ATOM     37  C   UNL     1      33.837  14.391   3.503  0.00  0.00    +0.031 A 
BRANCH  35  38
ATOM     38  O   UNL     1      34.676  11.669   5.882  0.00  0.00    -0.495 OA
ATOM     39  C   UNL     1      33.752  11.355   6.916  0.00  0.00    +0.277 C 
ENDBRANCH  35  38
ENDBRANCH  30  32
ENDBRANCH  26  28
ENDBRANCH  25  26
ENDBRANCH  24  25
ENDBRANCH   1  24
TORSDOF 12
