REMARK VINA RESULT:    -7.058      4.155      5.690
REMARK INTER + INTRA:         -14.603
REMARK INTER:                 -12.506
REMARK INTRA:                  -2.097
REMARK UNBOUND:                -1.975
REMARK  Name = lig_assembled_77.pdb
REMARK  14 active torsions:
REMARK  status: ('A' for Active; 'I' for Inactive)
REMARK    1  A    between atoms: _2  and  _9
REMARK    2  A    between atoms: _3  and  _16
REMARK    3  A    between atoms: _6  and  _7
REMARK    4  A    between atoms: _6  and  _22
REMARK    5  A    between atoms: _12  and  _50
REMARK    6  A    between atoms: _13  and  _50
REMARK    7  A    between atoms: _22  and  _24
REMARK    8  A    between atoms: _23  and  _28
REMARK    9  A    between atoms: _24  and  _27
REMARK   10  A    between atoms: _32  and  _42
REMARK   11  A    between atoms: _34  and  _35
REMARK   12  A    between atoms: _36  and  _38
REMARK   13  A    between atoms: _38  and  _40
REMARK   14  A    between atoms: _40  and  _42
REMARK                            x       y       z     vdW  Elec       q    Type
REMARK                         _______ _______ _______ _____ _____    ______ ____
ROOT
ATOM      1  C   UNL     1      29.932  16.511  -0.106  0.00  0.00    +0.240 C 
ENDROOT
BRANCH   1   2
ATOM      2  C   UNL     1      30.077  14.985  -0.255  0.00  0.00    +0.100 C 
BRANCH   2   4
ATOM      3  N   UNL     1      31.470  14.860   1.783  0.00  0.00    -0.134 NA
ATOM      4  C   UNL     1      30.437  14.373   1.038  0.00  0.00    +0.086 A 
ATOM      5  C   UNL     1      29.872  13.304   1.696  0.00  0.00    +0.139 A 
ATOM      6  N   UNL     1      30.596  13.180   2.860  0.00  0.00    -0.220 N 
ATOM      7  N   UNL     1      31.567  14.126   2.884  0.00  0.00    -0.061 NA
BRANCH   6   8
ATOM      8  C   UNL     1      30.392  12.288   3.946  0.00  0.00    +0.067 A 
ATOM      9  C   UNL     1      29.285  11.425   3.972  0.00  0.00    +0.030 A 
ATOM     10  C   UNL     1      29.035  10.641   5.102  0.00  0.00    +0.029 A 
ATOM     11  C   UNL     1      29.890  10.719   6.202  0.00  0.00    +0.094 A 
ATOM     12  C   UNL     1      31.044  11.504   6.151  0.00  0.00    +0.029 A 
ATOM     13  C   UNL     1      31.289  12.299   5.028  0.00  0.00    +0.030 A 
BRANCH  11  14
ATOM     14  S   UNL     1      29.529   9.772   7.668  0.00  0.00    +0.025 S 
ATOM     15  O   UNL     1      28.181  10.140   8.065  0.00  0.00    -0.164 OA
ATOM     16  O   UNL     1      29.866   8.390   7.385  0.00  0.00    -0.164 OA
BRANCH  14  17
ATOM     17  C   UNL     1      30.619  10.297   8.975  0.00  0.00    +0.094 A 
ATOM     18  C   UNL     1      30.328  11.425   9.744  0.00  0.00    +0.029 A 
ATOM     19  C   UNL     1      31.237  11.845  10.722  0.00  0.00    +0.024 A 
ATOM     20  C   UNL     1      32.412  11.125  10.973  0.00  0.00    +0.025 A 
ATOM     21  C   UNL     1      32.702  10.016  10.173  0.00  0.00    +0.024 A 
ATOM     22  C   UNL     1      31.803   9.586   9.192  0.00  0.00    +0.029 A 
BRANCH  20  23
ATOM     23  N   UNL     1      33.388  11.646  11.828  0.00  0.00    -0.358 N 
ATOM     24  H   UNL     1      34.149  11.011  12.043  0.00  0.00    +0.142 HD
ATOM     25  H   UNL     1      33.715  12.573  11.573  0.00  0.00    +0.142 HD
ENDBRANCH  20  23
ENDBRANCH  14  17
ENDBRANCH  11  14
ENDBRANCH   6   8
ENDBRANCH   2   4
ENDBRANCH   1   2
BRANCH   1  26
ATOM     26  O   UNL     1      29.083  17.175  -1.014  0.00  0.00    -0.450 OA
BRANCH  26  27
ATOM     27  C   UNL     1      27.946  17.789  -1.023  0.00  0.00    +0.400 C 
ATOM     28  N   UNL     1      27.186  17.618  -2.157  0.00  0.00    -0.278 N 
ATOM     29  H   UNL     1      26.238  18.027  -1.883  0.00  0.00    +0.152 HD
ATOM     30  O   UNL     1      27.483  18.472  -0.113  0.00  0.00    -0.226 OA
BRANCH  28  31
ATOM     31  C   UNL     1      27.101  17.152  -3.538  0.00  0.00    +0.152 C 
BRANCH  31  32
ATOM     32  C   UNL     1      25.991  16.124  -3.841  0.00  0.00    +0.193 C 
ATOM     33  O   UNL     1      25.995  15.919  -5.272  0.00  0.00    -0.219 OA
BRANCH  32  34
ATOM     34  C   UNL     1      26.149  14.706  -3.249  0.00  0.00    +0.212 C 
ATOM     35  O   UNL     1      26.870  14.759  -2.007  0.00  0.00    -0.218 OA
BRANCH  34  36
ATOM     36  C   UNL     1      24.773  13.976  -3.002  0.00  0.00    +0.171 C 
ATOM     37  O   UNL     1      23.905  14.717  -2.150  0.00  0.00    -0.343 OA
ATOM     38  C   UNL     1      22.740  14.205  -1.575  0.00  0.00    +0.220 C 
ATOM     39  C   UNL     1      22.996  12.864  -0.865  0.00  0.00    +0.076 C 
ATOM     40  C   UNL     1      23.684  11.930  -1.874  0.00  0.00    +0.177 C 
ATOM     41  O   UNL     1      23.908  10.660  -1.280  0.00  0.00    -0.221 OA
ATOM     42  C   UNL     1      25.019  12.566  -2.371  0.00  0.00    +0.155 C 
BRANCH  42  43
ATOM     43  N   UNL     1      25.679  11.679  -3.325  0.00  0.00    -0.202 NA
ATOM     44  C   UNL     1      26.868  11.030  -3.228  0.00  0.00    +0.242 C 
ATOM     45  C   UNL     1      27.175   9.946  -4.228  0.00  0.00    +0.096 C 
ATOM     46  O   UNL     1      27.656  11.337  -2.336  0.00  0.00    -0.273 OA
ENDBRANCH  42  43
BRANCH  38  47
ATOM     47  C   UNL     1      21.496  14.102  -2.615  0.00  0.00    +0.391 C 
ATOM     48  O   UNL     1      20.515  13.491  -1.924  0.00  0.00    -0.243 OA
ATOM     49  O   UNL     1      21.800  14.913  -3.636  0.00  0.00    -0.243 OA
ENDBRANCH  38  47
ENDBRANCH  34  36
ENDBRANCH  32  34
ENDBRANCH  31  32
ENDBRANCH  28  31
ENDBRANCH  26  27
ENDBRANCH   1  26
TORSDOF 14
