REMARK VINA RESULT:    -7.075      1.544      3.226
REMARK INTER + INTRA:         -15.306
REMARK INTER:                 -13.206
REMARK INTRA:                  -2.100
REMARK UNBOUND:                -2.234
REMARK  Name = lig_assembled_83.pdb
REMARK  15 active torsions:
REMARK  status: ('A' for Active; 'I' for Inactive)
REMARK    1  A    between atoms: _2  and  _11
REMARK    2  A    between atoms: _3  and  _13
REMARK    3  A    between atoms: _8  and  _9
REMARK    4  A    between atoms: _8  and  _19
REMARK    5  A    between atoms: _11  and  _12
REMARK    6  A    between atoms: _12  and  _13
REMARK    7  A    between atoms: _12  and  _17
REMARK    8  A    between atoms: _19  and  _21
REMARK    9  A    between atoms: _20  and  _25
REMARK   10  A    between atoms: _21  and  _24
REMARK   11  A    between atoms: _29  and  _39
REMARK   12  A    between atoms: _31  and  _32
REMARK   13  A    between atoms: _33  and  _35
REMARK   14  A    between atoms: _35  and  _37
REMARK   15  A    between atoms: _37  and  _39
REMARK                            x       y       z     vdW  Elec       q    Type
REMARK                         _______ _______ _______ _____ _____    ______ ____
ROOT
ATOM      1  C   UNL     1      28.755  17.019  -0.465  0.00  0.00    +0.400 C 
ATOM      2  N   UNL     1      28.755  15.890   0.321  0.00  0.00    -0.278 N 
ATOM      3  H   UNL     1      29.422  16.142   1.116  0.00  0.00    +0.152 HD
ATOM      4  O   UNL     1      29.307  18.026  -0.030  0.00  0.00    -0.226 OA
ENDROOT
BRANCH   2   5
ATOM      5  C   UNL     1      28.251  14.539   0.557  0.00  0.00    +0.152 C 
BRANCH   5   6
ATOM      6  C   UNL     1      28.652  13.890   1.898  0.00  0.00    +0.193 C 
ATOM      7  O   UNL     1      27.464  13.258   2.424  0.00  0.00    -0.219 OA
BRANCH   6   8
ATOM      8  C   UNL     1      29.705  12.761   1.860  0.00  0.00    +0.212 C 
ATOM      9  O   UNL     1      29.245  11.673   1.043  0.00  0.00    -0.218 OA
BRANCH   8  10
ATOM     10  C   UNL     1      31.109  13.235   1.324  0.00  0.00    +0.171 C 
ATOM     11  O   UNL     1      31.234  13.092  -0.087  0.00  0.00    -0.343 OA
ATOM     12  C   UNL     1      32.437  13.203  -0.788  0.00  0.00    +0.220 C 
ATOM     13  C   UNL     1      33.541  12.327  -0.169  0.00  0.00    +0.076 C 
ATOM     14  C   UNL     1      33.627  12.679   1.326  0.00  0.00    +0.177 C 
ATOM     15  O   UNL     1      34.662  11.924   1.939  0.00  0.00    -0.221 OA
ATOM     16  C   UNL     1      32.252  12.423   2.018  0.00  0.00    +0.155 C 
BRANCH  16  17
ATOM     17  N   UNL     1      32.331  12.750   3.439  0.00  0.00    -0.202 NA
ATOM     18  C   UNL     1      32.176  11.948   4.524  0.00  0.00    +0.242 C 
ATOM     19  C   UNL     1      32.600  12.475   5.870  0.00  0.00    +0.096 C 
ATOM     20  O   UNL     1      31.699  10.823   4.385  0.00  0.00    -0.273 OA
ENDBRANCH  16  17
BRANCH  12  21
ATOM     21  C   UNL     1      32.933  14.738  -0.983  0.00  0.00    +0.391 C 
ATOM     22  O   UNL     1      31.884  15.493  -0.601  0.00  0.00    -0.243 OA
ATOM     23  O   UNL     1      34.259  14.679  -1.153  0.00  0.00    -0.243 OA
ENDBRANCH  12  21
ENDBRANCH   8  10
ENDBRANCH   6   8
ENDBRANCH   5   6
ENDBRANCH   2   5
BRANCH   1  24
ATOM     24  O   UNL     1      28.190  16.896  -1.621  0.00  0.00    -0.450 OA
BRANCH  24  25
ATOM     25  C   UNL     1      27.079  17.399  -2.325  0.00  0.00    +0.240 C 
BRANCH  25  26
ATOM     26  C   UNL     1      27.004  17.108  -3.836  0.00  0.00    +0.100 C 
BRANCH  26  28
ATOM     27  N   UNL     1      25.810  15.522  -5.327  0.00  0.00    -0.134 NA
ATOM     28  C   UNL     1      25.890  16.190  -4.131  0.00  0.00    +0.086 A 
ATOM     29  C   UNL     1      24.809  15.843  -3.353  0.00  0.00    +0.133 A 
ATOM     30  N   UNL     1      24.122  14.956  -4.122  0.00  0.00    -0.249 N 
ATOM     31  N   UNL     1      24.716  14.770  -5.312  0.00  0.00    -0.065 NA
BRANCH  30  32
ATOM     32  C   UNL     1      22.882  14.281  -3.803  0.00  0.00    +0.178 C 
BRANCH  32  33
ATOM     33  C   UNL     1      22.613  14.262  -2.295  0.00  0.00    +0.156 C 
BRANCH  33  34
ATOM     34  O   UNL     1      21.451  15.046  -1.999  0.00  0.00    -0.388 OA
ATOM     35  H   UNL     1      20.655  14.606  -2.361  0.00  0.00    +0.210 HD
ENDBRANCH  33  34
BRANCH  33  36
ATOM     36  C   UNL     1      22.425  12.821  -1.799  0.00  0.00    +0.162 C 
BRANCH  36  37
ATOM     37  N   UNL     1      23.479  12.402  -0.888  0.00  0.00    -0.269 N 
ATOM     38  C   UNL     1      24.819  12.517  -1.176  0.00  0.00    +0.113 A 
ATOM     39  C   UNL     1      25.478  12.047  -0.064  0.00  0.00    +0.137 A 
ATOM     40  N   UNL     1      24.588  11.620   0.883  0.00  0.00    -0.172 NA
ATOM     41  C   UNL     1      23.394  11.849   0.367  0.00  0.00    +0.450 A 
ATOM     42  N   UNL     1      22.172  11.542   1.075  0.00  0.00    +0.120 N 
ATOM     43  O   UNL     1      21.097  11.796   0.506  0.00  0.00    +0.045 OA
ATOM     44  O   UNL     1      22.274  11.036   2.199  0.00  0.00    -0.573 OA
ENDBRANCH  36  37
ENDBRANCH  33  36
ENDBRANCH  32  33
ENDBRANCH  30  32
ENDBRANCH  26  28
ENDBRANCH  25  26
ENDBRANCH  24  25
ENDBRANCH   1  24
TORSDOF 15
