REMARK VINA RESULT:    -5.452      1.862      2.238
REMARK INTER + INTRA:         -11.948
REMARK INTER:                 -10.255
REMARK INTRA:                  -1.693
REMARK UNBOUND:                -2.511
REMARK  Name = lig_assembled_1.pdb
REMARK  13 active torsions:
REMARK  status: ('A' for Active; 'I' for Inactive)
REMARK    1  A    between atoms: _2  and  _8
REMARK    2  A    between atoms: _4  and  _8
REMARK    3  A    between atoms: _4  and  _9
REMARK    4  A    between atoms: _5  and  _6
REMARK    5  A    between atoms: _5  and  _10
REMARK    6  A    between atoms: _10  and  _12
REMARK    7  A    between atoms: _11  and  _16
REMARK    8  A    between atoms: _12  and  _15
REMARK    9  A    between atoms: _20  and  _30
REMARK   10  A    between atoms: _22  and  _23
REMARK   11  A    between atoms: _24  and  _26
REMARK   12  A    between atoms: _26  and  _28
REMARK   13  A    between atoms: _28  and  _30
REMARK                            x       y       z     vdW  Elec       q    Type
REMARK                         _______ _______ _______ _____ _____    ______ ____
ROOT
ATOM      1  C   UNL     1      29.890  13.890  -0.399  0.00  0.00    +0.193 C 
ATOM      2  O   UNL     1      29.442  13.772  -1.767  0.00  0.00    -0.219 OA
ENDROOT
BRANCH   1   3
ATOM      3  C   UNL     1      31.260  14.595  -0.501  0.00  0.00    +0.212 C 
ATOM      4  O   UNL     1      31.351  15.659   0.460  0.00  0.00    -0.218 OA
BRANCH   3   5
ATOM      5  C   UNL     1      32.481  13.620  -0.290  0.00  0.00    +0.171 C 
ATOM      6  O   UNL     1      33.297  13.995   0.814  0.00  0.00    -0.343 OA
ATOM      7  C   UNL     1      34.561  13.461   1.078  0.00  0.00    +0.220 C 
ATOM      8  C   UNL     1      35.470  13.509  -0.162  0.00  0.00    +0.076 C 
ATOM      9  C   UNL     1      34.711  12.836  -1.318  0.00  0.00    +0.177 C 
ATOM     10  O   UNL     1      35.525  12.817  -2.482  0.00  0.00    -0.221 OA
ATOM     11  C   UNL     1      33.364  13.577  -1.580  0.00  0.00    +0.155 C 
BRANCH  11  12
ATOM     12  N   UNL     1      32.643  12.945  -2.682  0.00  0.00    -0.202 NA
ATOM     13  C   UNL     1      32.669  13.225  -4.010  0.00  0.00    +0.242 C 
ATOM     14  C   UNL     1      32.058  12.231  -4.963  0.00  0.00    +0.096 C 
ATOM     15  O   UNL     1      33.186  14.270  -4.401  0.00  0.00    -0.273 OA
ENDBRANCH  11  12
BRANCH   7  16
ATOM     16  C   UNL     1      34.512  11.972   1.726  0.00  0.00    +0.391 C 
ATOM     17  O   UNL     1      35.763  11.493   1.590  0.00  0.00    -0.243 OA
ATOM     18  O   UNL     1      33.361  11.903   2.406  0.00  0.00    -0.243 OA
ENDBRANCH   7  16
ENDBRANCH   3   5
ENDBRANCH   1   3
BRANCH   1  19
ATOM     19  C   UNL     1      28.769  14.616   0.373  0.00  0.00    +0.152 C 
BRANCH  19  21
ATOM     20  C   UNL     1      28.036  16.960  -0.817  0.00  0.00    +0.400 C 
ATOM     21  N   UNL     1      28.566  16.024   0.039  0.00  0.00    -0.278 N 
ATOM     22  H   UNL     1      29.020  16.617   0.803  0.00  0.00    +0.152 HD
ATOM     23  O   UNL     1      28.030  18.135  -0.459  0.00  0.00    -0.226 OA
BRANCH  20  24
ATOM     24  O   UNL     1      27.614  16.505  -1.951  0.00  0.00    -0.450 OA
BRANCH  24  25
ATOM     25  C   UNL     1      26.421  16.042  -2.539  0.00  0.00    +0.240 C 
BRANCH  25  26
ATOM     26  C   UNL     1      26.077  14.550  -2.368  0.00  0.00    +0.100 C 
BRANCH  26  28
ATOM     27  N   UNL     1      24.071  13.235  -1.748  0.00  0.00    -0.134 NA
ATOM     28  C   UNL     1      24.615  14.364  -2.301  0.00  0.00    +0.086 A 
ATOM     29  C   UNL     1      23.600  15.189  -2.731  0.00  0.00    +0.133 A 
ATOM     30  N   UNL     1      22.465  14.503  -2.417  0.00  0.00    -0.249 N 
ATOM     31  N   UNL     1      22.751  13.329  -1.830  0.00  0.00    -0.065 NA
BRANCH  30  32
ATOM     32  C   UNL     1      21.093  14.903  -2.634  0.00  0.00    +0.173 C 
BRANCH  32  33
ATOM     33  C   UNL     1      20.097  13.997  -1.921  0.00  0.00    +0.179 C 
BRANCH  33  34
ATOM     34  O   UNL     1      20.299  14.020  -0.509  0.00  0.00    -0.393 OA
ATOM     35  H   UNL     1      20.538  13.112  -0.242  0.00  0.00    +0.209 HD
ENDBRANCH  33  34
ENDBRANCH  32  33
ENDBRANCH  30  32
ENDBRANCH  26  28
ENDBRANCH  25  26
ENDBRANCH  24  25
ENDBRANCH  20  24
ENDBRANCH  19  21
ENDBRANCH   1  19
TORSDOF 13
