REMARK VINA RESULT:    -5.939      1.559      2.056
REMARK INTER + INTRA:         -13.035
REMARK INTER:                 -11.750
REMARK INTRA:                  -1.285
REMARK UNBOUND:                -2.235
REMARK  Name = lig_assembled_50.pdb
REMARK  15 active torsions:
REMARK  status: ('A' for Active; 'I' for Inactive)
REMARK    1  A    between atoms: _2  and  _8
REMARK    2  A    between atoms: _4  and  _9
REMARK    3  A    between atoms: _4  and  _10
REMARK    4  A    between atoms: _5  and  _6
REMARK    5  A    between atoms: _5  and  _12
REMARK    6  A    between atoms: _8  and  _9
REMARK    7  A    between atoms: _9  and  _11
REMARK    8  A    between atoms: _12  and  _14
REMARK    9  A    between atoms: _13  and  _18
REMARK   10  A    between atoms: _14  and  _17
REMARK   11  A    between atoms: _22  and  _32
REMARK   12  A    between atoms: _24  and  _25
REMARK   13  A    between atoms: _26  and  _28
REMARK   14  A    between atoms: _28  and  _30
REMARK   15  A    between atoms: _30  and  _32
REMARK                            x       y       z     vdW  Elec       q    Type
REMARK                         _______ _______ _______ _____ _____    ______ ____
ROOT
ATOM      1  C   UNL     1      28.877  17.018  -0.514  0.00  0.00    +0.400 C 
ATOM      2  N   UNL     1      29.044  15.896   0.263  0.00  0.00    -0.278 N 
ATOM      3  H   UNL     1      29.793  16.191   0.966  0.00  0.00    +0.152 HD
ATOM      4  O   UNL     1      29.420  18.059  -0.153  0.00  0.00    -0.226 OA
ENDROOT
BRANCH   2   5
ATOM      5  C   UNL     1      28.655  14.520   0.562  0.00  0.00    +0.152 C 
BRANCH   5   6
ATOM      6  C   UNL     1      29.249  13.910   1.849  0.00  0.00    +0.193 C 
ATOM      7  O   UNL     1      28.192  13.912   2.834  0.00  0.00    -0.219 OA
BRANCH   6   8
ATOM      8  C   UNL     1      29.720  12.441   1.792  0.00  0.00    +0.212 C 
ATOM      9  O   UNL     1      29.655  11.944   0.445  0.00  0.00    -0.218 OA
BRANCH   8  10
ATOM     10  C   UNL     1      31.186  12.234   2.334  0.00  0.00    +0.171 C 
ATOM     11  O   UNL     1      31.260  12.309   3.754  0.00  0.00    -0.343 OA
ATOM     12  C   UNL     1      32.451  12.404   4.477  0.00  0.00    +0.220 C 
ATOM     13  C   UNL     1      33.356  13.528   3.941  0.00  0.00    +0.076 C 
ATOM     14  C   UNL     1      33.532  13.299   2.431  0.00  0.00    +0.177 C 
ATOM     15  O   UNL     1      34.394  14.290   1.891  0.00  0.00    -0.221 OA
ATOM     16  C   UNL     1      32.142  13.308   1.720  0.00  0.00    +0.155 C 
BRANCH  16  17
ATOM     17  N   UNL     1      32.306  13.098   0.284  0.00  0.00    -0.202 NA
ATOM     18  C   UNL     1      32.293  13.998  -0.732  0.00  0.00    +0.242 C 
ATOM     19  C   UNL     1      32.779  13.555  -2.087  0.00  0.00    +0.096 C 
ATOM     20  O   UNL     1      31.892  15.142  -0.525  0.00  0.00    -0.273 OA
ENDBRANCH  16  17
BRANCH  12  21
ATOM     21  C   UNL     1      33.253  10.996   4.592  0.00  0.00    +0.391 C 
ATOM     22  O   UNL     1      34.287  11.251   5.417  0.00  0.00    -0.243 OA
ATOM     23  O   UNL     1      32.438  10.063   4.085  0.00  0.00    -0.243 OA
ENDBRANCH  12  21
ENDBRANCH   8  10
ENDBRANCH   6   8
ENDBRANCH   5   6
ENDBRANCH   2   5
BRANCH   1  24
ATOM     24  O   UNL     1      28.175  16.856  -1.587  0.00  0.00    -0.450 OA
BRANCH  24  25
ATOM     25  C   UNL     1      27.057  17.424  -2.228  0.00  0.00    +0.240 C 
BRANCH  25  26
ATOM     26  C   UNL     1      26.901  17.175  -3.740  0.00  0.00    +0.100 C 
BRANCH  26  28
ATOM     27  N   UNL     1      25.728  15.591  -5.242  0.00  0.00    -0.134 NA
ATOM     28  C   UNL     1      25.897  16.122  -3.988  0.00  0.00    +0.086 A 
ATOM     29  C   UNL     1      25.022  15.506  -3.117  0.00  0.00    +0.133 A 
ATOM     30  N   UNL     1      24.348  14.623  -3.900  0.00  0.00    -0.249 N 
ATOM     31  N   UNL     1      24.785  14.664  -5.173  0.00  0.00    -0.065 NA
BRANCH  30  32
ATOM     32  C   UNL     1      23.283  13.723  -3.525  0.00  0.00    +0.178 C 
BRANCH  32  33
ATOM     33  C   UNL     1      22.007  14.428  -3.050  0.00  0.00    +0.161 C 
BRANCH  33  34
ATOM     34  O   UNL     1      22.045  14.761  -1.659  0.00  0.00    -0.388 OA
ATOM     35  H   UNL     1      22.979  14.890  -1.395  0.00  0.00    +0.210 HD
ENDBRANCH  33  34
BRANCH  33  36
ATOM     36  C   UNL     1      21.653  15.674  -3.872  0.00  0.00    +0.189 C 
BRANCH  36  37
ATOM     37  O   UNL     1      21.608  15.380  -5.268  0.00  0.00    -0.392 OA
ATOM     38  H   UNL     1      21.050  16.052  -5.703  0.00  0.00    +0.210 HD
ENDBRANCH  36  37
ENDBRANCH  33  36
ENDBRANCH  32  33
ENDBRANCH  30  32
ENDBRANCH  26  28
ENDBRANCH  25  26
ENDBRANCH  24  25
ENDBRANCH   1  24
TORSDOF 15
