REMARK VINA RESULT:    -6.608      3.151      6.083
REMARK INTER + INTRA:         -13.094
REMARK INTER:                 -10.998
REMARK INTRA:                  -2.096
REMARK UNBOUND:                -1.658
REMARK  Name = lig_assembled_60.pdb
REMARK  13 active torsions:
REMARK  status: ('A' for Active; 'I' for Inactive)
REMARK    1  A    between atoms: _2  and  _9
REMARK    2  A    between atoms: _3  and  _44
REMARK    3  A    between atoms: _6  and  _7
REMARK    4  A    between atoms: _6  and  _16
REMARK    5  A    between atoms: _12  and  _44
REMARK    6  A    between atoms: _16  and  _18
REMARK    7  A    between atoms: _17  and  _22
REMARK    8  A    between atoms: _18  and  _21
REMARK    9  A    between atoms: _26  and  _36
REMARK   10  A    between atoms: _28  and  _29
REMARK   11  A    between atoms: _30  and  _32
REMARK   12  A    between atoms: _32  and  _34
REMARK   13  A    between atoms: _34  and  _36
REMARK                            x       y       z     vdW  Elec       q    Type
REMARK                         _______ _______ _______ _____ _____    ______ ____
ROOT
ATOM      1  C   UNL     1      26.030  10.909   2.948  0.00  0.00    +0.400 C 
ATOM      2  N   UNL     1      27.211  11.201   3.590  0.00  0.00    -0.278 N 
ATOM      3  H   UNL     1      27.507  12.129   3.151  0.00  0.00    +0.152 HD
ATOM      4  O   UNL     1      25.530  11.774   2.234  0.00  0.00    -0.226 OA
ENDROOT
BRANCH   2   5
ATOM      5  C   UNL     1      28.210  10.827   4.587  0.00  0.00    +0.152 C 
BRANCH   5   6
ATOM      6  C   UNL     1      29.618  11.429   4.397  0.00  0.00    +0.193 C 
ATOM      7  O   UNL     1      30.320  11.244   5.646  0.00  0.00    -0.219 OA
BRANCH   6   8
ATOM      8  C   UNL     1      30.536  10.779   3.339  0.00  0.00    +0.212 C 
ATOM      9  O   UNL     1      29.753  10.183   2.292  0.00  0.00    -0.218 OA
BRANCH   8  10
ATOM     10  C   UNL     1      31.556  11.791   2.692  0.00  0.00    +0.171 C 
ATOM     11  O   UNL     1      32.723  11.976   3.486  0.00  0.00    -0.343 OA
ATOM     12  C   UNL     1      33.667  12.985   3.278  0.00  0.00    +0.220 C 
ATOM     13  C   UNL     1      33.005  14.369   3.159  0.00  0.00    +0.076 C 
ATOM     14  C   UNL     1      31.914  14.269   2.080  0.00  0.00    +0.177 C 
ATOM     15  O   UNL     1      31.296  15.536   1.901  0.00  0.00    -0.221 OA
ATOM     16  C   UNL     1      30.869  13.178   2.470  0.00  0.00    +0.155 C 
BRANCH  16  17
ATOM     17  N   UNL     1      29.828  13.085   1.450  0.00  0.00    -0.202 NA
ATOM     18  C   UNL     1      28.554  13.553   1.466  0.00  0.00    +0.242 C 
ATOM     19  C   UNL     1      27.786  13.580   0.170  0.00  0.00    +0.096 C 
ATOM     20  O   UNL     1      28.062  13.941   2.523  0.00  0.00    -0.273 OA
ENDBRANCH  16  17
BRANCH  12  21
ATOM     21  C   UNL     1      34.664  12.692   2.030  0.00  0.00    +0.391 C 
ATOM     22  O   UNL     1      35.072  13.907   1.618  0.00  0.00    -0.243 OA
ATOM     23  O   UNL     1      34.936  11.382   2.074  0.00  0.00    -0.243 OA
ENDBRANCH  12  21
ENDBRANCH   8  10
ENDBRANCH   6   8
ENDBRANCH   5   6
ENDBRANCH   2   5
BRANCH   1  24
ATOM     24  O   UNL     1      25.569   9.716   3.140  0.00  0.00    -0.450 OA
BRANCH  24  25
ATOM     25  C   UNL     1      24.421   9.085   3.656  0.00  0.00    +0.240 C 
BRANCH  25  26
ATOM     26  C   UNL     1      23.346   8.630   2.650  0.00  0.00    +0.100 C 
BRANCH  26  28
ATOM     27  N   UNL     1      21.861  10.610   2.702  0.00  0.00    -0.134 NA
ATOM     28  C   UNL     1      22.714   9.800   2.011  0.00  0.00    +0.086 A 
ATOM     29  C   UNL     1      22.847  10.275   0.728  0.00  0.00    +0.139 A 
ATOM     30  N   UNL     1      22.076  11.415   0.690  0.00  0.00    -0.220 N 
ATOM     31  N   UNL     1      21.470  11.584   1.890  0.00  0.00    -0.061 NA
BRANCH  30  32
ATOM     32  C   UNL     1      21.920  12.344  -0.372  0.00  0.00    +0.067 A 
ATOM     33  C   UNL     1      23.022  12.727  -1.153  0.00  0.00    +0.030 A 
ATOM     34  C   UNL     1      22.870  13.693  -2.150  0.00  0.00    +0.030 A 
ATOM     35  C   UNL     1      21.617  14.267  -2.376  0.00  0.00    +0.105 A 
ATOM     36  C   UNL     1      20.509  13.883  -1.615  0.00  0.00    +0.030 A 
ATOM     37  C   UNL     1      20.661  12.915  -0.618  0.00  0.00    +0.030 A 
BRANCH  35  38
ATOM     38  S   UNL     1      21.456  15.546  -3.587  0.00  0.00    +0.056 S 
ATOM     39  O   UNL     1      21.899  15.051  -4.868  0.00  0.00    -0.153 OA
ATOM     40  O   UNL     1      20.182  16.207  -3.408  0.00  0.00    -0.153 OA
BRANCH  38  41
ATOM     41  N   UNL     1      22.621  16.643  -3.083  0.00  0.00    -0.204 NA
ATOM     42  H   UNL     1      23.304  16.787  -3.826  0.00  0.00    +0.144 HD
ATOM     43  H   UNL     1      23.031  16.328  -2.202  0.00  0.00    +0.144 HD
ENDBRANCH  38  41
ENDBRANCH  35  38
ENDBRANCH  30  32
ENDBRANCH  26  28
ENDBRANCH  25  26
ENDBRANCH  24  25
ENDBRANCH   1  24
TORSDOF 13
