REMARK VINA RESULT:    -6.133      3.154      9.225
REMARK INTER + INTRA:         -13.437
REMARK INTER:                 -10.433
REMARK INTRA:                  -3.004
REMARK UNBOUND:                -2.286
REMARK  Name = lig_assembled_62.pdb
REMARK  15 active torsions:
REMARK  status: ('A' for Active; 'I' for Inactive)
REMARK    1  A    between atoms: _2  and  _9
REMARK    2  A    between atoms: _5  and  _9
REMARK    3  A    between atoms: _6  and  _7
REMARK    4  A    between atoms: _6  and  _14
REMARK    5  A    between atoms: _9  and  _10
REMARK    6  A    between atoms: _10  and  _13
REMARK    7  A    between atoms: _11  and  _13
REMARK    8  A    between atoms: _14  and  _16
REMARK    9  A    between atoms: _15  and  _20
REMARK   10  A    between atoms: _16  and  _19
REMARK   11  A    between atoms: _24  and  _34
REMARK   12  A    between atoms: _26  and  _27
REMARK   13  A    between atoms: _28  and  _30
REMARK   14  A    between atoms: _30  and  _32
REMARK   15  A    between atoms: _32  and  _34
REMARK                            x       y       z     vdW  Elec       q    Type
REMARK                         _______ _______ _______ _____ _____    ______ ____
ROOT
ATOM      1  C   UNL     1      28.080  17.150  -0.794  0.00  0.00    +0.400 C 
ATOM      2  N   UNL     1      27.046  16.955  -1.678  0.00  0.00    -0.278 N 
ATOM      3  H   UNL     1      26.297  17.637  -1.337  0.00  0.00    +0.152 HD
ATOM      4  O   UNL     1      28.004  18.094  -0.012  0.00  0.00    -0.226 OA
ENDROOT
BRANCH   2   5
ATOM      5  C   UNL     1      26.529  16.262  -2.856  0.00  0.00    +0.152 C 
BRANCH   5   6
ATOM      6  C   UNL     1      25.629  15.039  -2.584  0.00  0.00    +0.193 C 
ATOM      7  O   UNL     1      24.908  14.774  -3.807  0.00  0.00    -0.219 OA
BRANCH   6   8
ATOM      8  C   UNL     1      26.323  13.701  -2.247  0.00  0.00    +0.212 C 
ATOM      9  O   UNL     1      27.729  13.780  -2.532  0.00  0.00    -0.218 OA
BRANCH   8  10
ATOM     10  C   UNL     1      26.136  13.261  -0.745  0.00  0.00    +0.171 C 
ATOM     11  O   UNL     1      27.262  12.552  -0.238  0.00  0.00    -0.343 OA
ATOM     12  C   UNL     1      27.271  11.844   0.966  0.00  0.00    +0.220 C 
ATOM     13  C   UNL     1      26.076  10.881   1.070  0.00  0.00    +0.076 C 
ATOM     14  C   UNL     1      24.799  11.698   0.808  0.00  0.00    +0.177 C 
ATOM     15  O   UNL     1      23.658  10.861   0.932  0.00  0.00    -0.221 OA
ATOM     16  C   UNL     1      24.865  12.362  -0.602  0.00  0.00    +0.155 C 
BRANCH  16  17
ATOM     17  N   UNL     1      23.652  13.133  -0.857  0.00  0.00    -0.202 NA
ATOM     18  C   UNL     1      22.654  12.911  -1.750  0.00  0.00    +0.242 C 
ATOM     19  C   UNL     1      21.375  13.694  -1.604  0.00  0.00    +0.096 C 
ATOM     20  O   UNL     1      22.814  12.085  -2.647  0.00  0.00    -0.273 OA
ENDBRANCH  16  17
BRANCH  12  21
ATOM     21  C   UNL     1      27.385  12.797   2.276  0.00  0.00    +0.391 C 
ATOM     22  O   UNL     1      27.191  11.972   3.324  0.00  0.00    -0.243 OA
ATOM     23  O   UNL     1      27.917  13.949   1.851  0.00  0.00    -0.243 OA
ENDBRANCH  12  21
ENDBRANCH   8  10
ENDBRANCH   6   8
ENDBRANCH   5   6
ENDBRANCH   2   5
BRANCH   1  24
ATOM     24  O   UNL     1      29.037  16.283  -0.853  0.00  0.00    -0.450 OA
BRANCH  24  25
ATOM     25  C   UNL     1      30.176  15.898  -0.119  0.00  0.00    +0.240 C 
BRANCH  25  26
ATOM     26  C   UNL     1      30.682  14.454  -0.297  0.00  0.00    +0.100 C 
BRANCH  26  28
ATOM     27  N   UNL     1      31.494  14.693   2.031  0.00  0.00    -0.134 NA
ATOM     28  C   UNL     1      31.081  13.886   1.004  0.00  0.00    +0.086 A 
ATOM     29  C   UNL     1      31.118  12.574   1.423  0.00  0.00    +0.134 A 
ATOM     30  N   UNL     1      31.577  12.646   2.707  0.00  0.00    -0.237 N 
ATOM     31  N   UNL     1      31.794  13.925   3.068  0.00  0.00    -0.065 NA
BRANCH  30  32
ATOM     32  C   UNL     1      31.807  11.581   3.667  0.00  0.00    +0.219 C 
BRANCH  32  33
ATOM     33  C   UNL     1      30.509  11.209   4.364  0.00  0.00    +0.237 C 
ATOM     34  O   UNL     1      30.120  10.055   4.531  0.00  0.00    -0.274 OA
ATOM     35  N   UNL     1      29.784  12.248   4.881  0.00  0.00    -0.328 N 
ATOM     36  H   UNL     1      30.090  13.212   4.861  0.00  0.00    +0.145 HD
ATOM     37  H   UNL     1      28.919  12.028   5.359  0.00  0.00    +0.145 HD
ENDBRANCH  32  33
BRANCH  32  38
ATOM     38  C   UNL     1      32.875  11.988   4.680  0.00  0.00    +0.195 C 
BRANCH  38  39
ATOM     39  O   UNL     1      32.367  11.799   6.008  0.00  0.00    -0.380 OA
ATOM     40  C   UNL     1      33.199  12.417   6.983  0.00  0.00    +0.194 C 
ENDBRANCH  38  39
ENDBRANCH  32  38
ENDBRANCH  30  32
ENDBRANCH  26  28
ENDBRANCH  25  26
ENDBRANCH  24  25
ENDBRANCH   1  24
TORSDOF 14
