REMARK VINA RESULT:    -6.731      3.736      8.279
REMARK INTER + INTRA:         -12.909
REMARK INTER:                 -10.710
REMARK INTRA:                  -2.199
REMARK UNBOUND:                -1.850
REMARK  Name = lig_assembled_2.pdb
REMARK  11 active torsions:
REMARK  status: ('A' for Active; 'I' for Inactive)
REMARK    1  A    between atoms: _2  and  _8
REMARK    2  A    between atoms: _5  and  _6
REMARK    3  A    between atoms: _5  and  _13
REMARK    4  A    between atoms: _13  and  _15
REMARK    5  A    between atoms: _14  and  _19
REMARK    6  A    between atoms: _15  and  _18
REMARK    7  A    between atoms: _23  and  _33
REMARK    8  A    between atoms: _25  and  _26
REMARK    9  A    between atoms: _27  and  _29
REMARK   10  A    between atoms: _29  and  _31
REMARK   11  A    between atoms: _31  and  _33
REMARK                            x       y       z     vdW  Elec       q    Type
REMARK                         _______ _______ _______ _____ _____    ______ ____
ROOT
ATOM      1  C   UNL     1      25.587  15.979  -4.099  0.00  0.00    +0.400 C 
ATOM      2  N   UNL     1      24.253  15.657  -4.011  0.00  0.00    -0.278 N 
ATOM      3  H   UNL     1      24.014  15.322  -4.998  0.00  0.00    +0.152 HD
ATOM      4  O   UNL     1      26.193  15.664  -5.120  0.00  0.00    -0.226 OA
ENDROOT
BRANCH   1   5
ATOM      5  O   UNL     1      26.075  16.622  -3.090  0.00  0.00    -0.450 OA
BRANCH   5   6
ATOM      6  C   UNL     1      27.207  17.394  -2.762  0.00  0.00    +0.240 C 
BRANCH   6   7
ATOM      7  C   UNL     1      27.409  17.765  -1.280  0.00  0.00    +0.100 C 
BRANCH   7   9
ATOM      8  N   UNL     1      29.815  17.602  -0.725  0.00  0.00    -0.134 NA
ATOM      9  C   UNL     1      28.569  17.043  -0.725  0.00  0.00    +0.086 A 
ATOM     10  C   UNL     1      28.635  15.797  -0.146  0.00  0.00    +0.139 A 
ATOM     11  N   UNL     1      29.952  15.646   0.224  0.00  0.00    -0.220 N 
ATOM     12  N   UNL     1      30.650  16.745  -0.154  0.00  0.00    -0.061 NA
BRANCH  11  13
ATOM     13  C   UNL     1      30.563  14.569   0.918  0.00  0.00    +0.067 A 
ATOM     14  C   UNL     1      30.485  13.257   0.424  0.00  0.00    +0.029 A 
ATOM     15  C   UNL     1      31.061  12.204   1.144  0.00  0.00    +0.022 A 
ATOM     16  C   UNL     1      31.714  12.456   2.348  0.00  0.00    +0.041 A 
ATOM     17 CL   UNL     1      32.400  11.152   3.235  0.00  0.00    -0.084 Cl
ATOM     18  C   UNL     1      31.809  13.756   2.839  0.00  0.00    +0.022 A 
ATOM     19  C   UNL     1      31.237  14.814   2.126  0.00  0.00    +0.029 A 
ENDBRANCH  11  13
ENDBRANCH   7   9
ENDBRANCH   6   7
ENDBRANCH   5   6
ENDBRANCH   1   5
BRANCH   2  20
ATOM     20  C   UNL     1      23.049  15.557  -3.191  0.00  0.00    +0.152 C 
BRANCH  20  21
ATOM     21  C   UNL     1      23.053  14.457  -2.109  0.00  0.00    +0.193 C 
ATOM     22  O   UNL     1      21.721  14.420  -1.550  0.00  0.00    -0.219 OA
BRANCH  21  23
ATOM     23  C   UNL     1      23.320  13.006  -2.566  0.00  0.00    +0.212 C 
ATOM     24  O   UNL     1      23.434  12.943  -3.997  0.00  0.00    -0.218 OA
BRANCH  23  25
ATOM     25  C   UNL     1      24.619  12.381  -1.929  0.00  0.00    +0.171 C 
ATOM     26  O   UNL     1      25.559  11.954  -2.909  0.00  0.00    -0.343 OA
ATOM     27  C   UNL     1      26.672  11.154  -2.639  0.00  0.00    +0.220 C 
ATOM     28  C   UNL     1      26.291   9.899  -1.835  0.00  0.00    +0.076 C 
ATOM     29  C   UNL     1      25.510  10.363  -0.595  0.00  0.00    +0.177 C 
ATOM     30  O   UNL     1      25.167   9.240   0.206  0.00  0.00    -0.221 OA
ATOM     31  C   UNL     1      24.241  11.161  -1.026  0.00  0.00    +0.155 C 
BRANCH  31  32
ATOM     32  N   UNL     1      23.493  11.598   0.150  0.00  0.00    -0.202 NA
ATOM     33  C   UNL     1      22.188  11.402   0.471  0.00  0.00    +0.242 C 
ATOM     34  C   UNL     1      21.745  11.702   1.879  0.00  0.00    +0.096 C 
ATOM     35  O   UNL     1      21.408  10.987  -0.384  0.00  0.00    -0.273 OA
ENDBRANCH  31  32
BRANCH  27  36
ATOM     36  C   UNL     1      27.895  11.963  -1.938  0.00  0.00    +0.391 C 
ATOM     37  O   UNL     1      28.731  11.007  -1.488  0.00  0.00    -0.243 OA
ATOM     38  O   UNL     1      27.768  13.237  -2.329  0.00  0.00    -0.243 OA
ENDBRANCH  27  36
ENDBRANCH  23  25
ENDBRANCH  21  23
ENDBRANCH  20  21
ENDBRANCH   2  20
TORSDOF 11
