REMARK VINA RESULT:    -6.347      4.103      7.936
REMARK INTER + INTRA:         -12.602
REMARK INTER:                  -9.889
REMARK INTRA:                  -2.713
REMARK UNBOUND:                -2.544
REMARK  Name = lig_assembled_65.pdb
REMARK  11 active torsions:
REMARK  status: ('A' for Active; 'I' for Inactive)
REMARK    1  A    between atoms: _8  and  _14
REMARK    2  A    between atoms: _9  and  _10
REMARK    3  A    between atoms: _9  and  _15
REMARK    4  A    between atoms: _15  and  _17
REMARK    5  A    between atoms: _16  and  _21
REMARK    6  A    between atoms: _17  and  _20
REMARK    7  A    between atoms: _25  and  _35
REMARK    8  A    between atoms: _27  and  _28
REMARK    9  A    between atoms: _29  and  _31
REMARK   10  A    between atoms: _31  and  _33
REMARK   11  A    between atoms: _33  and  _35
REMARK                            x       y       z     vdW  Elec       q    Type
REMARK                         _______ _______ _______ _____ _____    ______ ____
ROOT
ATOM      1  C   UNL     1      23.010  14.594  -4.115  0.00  0.00    +0.400 C 
ATOM      2  N   UNL     1      22.141  14.394  -3.068  0.00  0.00    -0.278 N 
ATOM      3  H   UNL     1      21.185  14.359  -3.545  0.00  0.00    +0.152 HD
ATOM      4  O   UNL     1      22.571  14.504  -5.258  0.00  0.00    -0.226 OA
ENDROOT
BRANCH   1   5
ATOM      5  O   UNL     1      24.224  14.893  -3.785  0.00  0.00    -0.450 OA
BRANCH   5   6
ATOM      6  C   UNL     1      25.379  15.457  -4.361  0.00  0.00    +0.240 C 
BRANCH   6   7
ATOM      7  C   UNL     1      25.893  16.783  -3.770  0.00  0.00    +0.100 C 
BRANCH   7   9
ATOM      8  N   UNL     1      27.600  17.540  -2.144  0.00  0.00    -0.134 NA
ATOM      9  C   UNL     1      26.874  16.524  -2.699  0.00  0.00    +0.087 A 
ATOM     10  C   UNL     1      27.230  15.339  -2.100  0.00  0.00    +0.146 A 
ATOM     11  N   UNL     1      28.194  15.683  -1.178  0.00  0.00    -0.155 N 
ATOM     12  C   UNL     1      28.902  14.806  -0.305  0.00  0.00    +0.416 C 
ATOM     13  N   UNL     1      29.809  15.328   0.531  0.00  0.00    +0.041 NA
ATOM     14  C   UNL     1      30.439  14.445   1.302  0.00  0.00    +0.339 C 
ATOM     15  C   UNL     1      31.475  14.966   2.249  0.00  0.00    +0.149 C 
ATOM     16  N   UNL     1      30.219  13.130   1.281  0.00  0.00    +0.007 NA
ATOM     17  C   UNL     1      29.313  12.716   0.410  0.00  0.00    +0.386 C 
ATOM     18  N   UNL     1      29.065  11.361   0.348  0.00  0.00    -0.296 N 
ATOM     19  H   UNL     1      29.338  10.907   1.208  0.00  0.00    +0.148 HD
ATOM     20  H   UNL     1      28.136  11.174  -0.004  0.00  0.00    +0.148 HD
ATOM     21  N   UNL     1      28.611  13.500  -0.389  0.00  0.00    -0.290 NA
ATOM     22  N   UNL     1      28.399  17.025  -1.216  0.00  0.00    -0.056 NA
ENDBRANCH   7   9
ENDBRANCH   6   7
ENDBRANCH   5   6
ENDBRANCH   1   5
BRANCH   2  23
ATOM     23  C   UNL     1      21.944  14.199  -1.634  0.00  0.00    +0.152 C 
BRANCH  23  24
ATOM     24  C   UNL     1      22.127  12.759  -1.113  0.00  0.00    +0.193 C 
ATOM     25  O   UNL     1      21.368  11.899  -1.992  0.00  0.00    -0.219 OA
BRANCH  24  26
ATOM     26  C   UNL     1      23.553  12.167  -1.134  0.00  0.00    +0.212 C 
ATOM     27  O   UNL     1      24.533  13.215  -1.053  0.00  0.00    -0.218 OA
BRANCH  26  28
ATOM     28  C   UNL     1      23.819  11.138   0.031  0.00  0.00    +0.171 C 
ATOM     29  O   UNL     1      23.514  11.673   1.315  0.00  0.00    -0.343 OA
ATOM     30  C   UNL     1      23.880  11.077   2.524  0.00  0.00    +0.220 C 
ATOM     31  C   UNL     1      25.376  10.717   2.553  0.00  0.00    +0.076 C 
ATOM     32  C   UNL     1      25.674   9.876   1.301  0.00  0.00    +0.177 C 
ATOM     33  O   UNL     1      27.039   9.482   1.299  0.00  0.00    -0.221 OA
ATOM     34  C   UNL     1      25.315  10.683   0.014  0.00  0.00    +0.155 C 
BRANCH  34  35
ATOM     35  N   UNL     1      25.604   9.890  -1.178  0.00  0.00    -0.202 NA
ATOM     36  C   UNL     1      26.557  10.067  -2.128  0.00  0.00    +0.242 C 
ATOM     37  C   UNL     1      26.825   8.939  -3.091  0.00  0.00    +0.096 C 
ATOM     38  O   UNL     1      27.173  11.129  -2.180  0.00  0.00    -0.273 OA
ENDBRANCH  34  35
BRANCH  30  39
ATOM     39  C   UNL     1      22.952   9.805   2.925  0.00  0.00    +0.391 C 
ATOM     40  O   UNL     1      23.596   9.214   3.950  0.00  0.00    -0.243 OA
ATOM     41  O   UNL     1      21.779   9.994   2.308  0.00  0.00    -0.243 OA
ENDBRANCH  30  39
ENDBRANCH  26  28
ENDBRANCH  24  26
ENDBRANCH  23  24
ENDBRANCH   2  23
TORSDOF 10
