REMARK VINA RESULT:    -7.145      2.977      8.683
REMARK INTER + INTRA:         -13.873
REMARK INTER:                 -12.119
REMARK INTRA:                  -1.754
REMARK UNBOUND:                -2.133
REMARK  Name = lig_assembled_7.pdb
REMARK  14 active torsions:
REMARK  status: ('A' for Active; 'I' for Inactive)
REMARK    1  A    between atoms: _2  and  _8
REMARK    2  A    between atoms: _4  and  _15
REMARK    3  A    between atoms: _5  and  _6
REMARK    4  A    between atoms: _5  and  _16
REMARK    5  A    between atoms: _9  and  _10
REMARK    6  A    between atoms: _12  and  _13
REMARK    7  A    between atoms: _16  and  _18
REMARK    8  A    between atoms: _17  and  _22
REMARK    9  A    between atoms: _18  and  _21
REMARK   10  A    between atoms: _26  and  _36
REMARK   11  A    between atoms: _28  and  _29
REMARK   12  A    between atoms: _30  and  _32
REMARK   13  A    between atoms: _32  and  _34
REMARK   14  A    between atoms: _34  and  _36
REMARK                            x       y       z     vdW  Elec       q    Type
REMARK                         _______ _______ _______ _____ _____    ______ ____
ROOT
ATOM      1  C   UNL     1      27.551  17.431  -1.609  0.00  0.00    +0.400 C 
ATOM      2  N   UNL     1      26.494  17.011  -2.382  0.00  0.00    -0.278 N 
ATOM      3  H   UNL     1      25.795  17.816  -2.304  0.00  0.00    +0.152 HD
ATOM      4  O   UNL     1      27.546  18.589  -1.201  0.00  0.00    -0.226 OA
ENDROOT
BRANCH   1   5
ATOM      5  O   UNL     1      28.449  16.536  -1.356  0.00  0.00    -0.450 OA
BRANCH   5   6
ATOM      6  C   UNL     1      29.050  15.909  -0.247  0.00  0.00    +0.240 C 
BRANCH   6   7
ATOM      7  C   UNL     1      30.487  16.329   0.115  0.00  0.00    +0.100 C 
BRANCH   7   9
ATOM      8  N   UNL     1      31.565  14.118   0.272  0.00  0.00    -0.134 NA
ATOM      9  C   UNL     1      31.154  15.261   0.882  0.00  0.00    +0.086 A 
ATOM     10  C   UNL     1      31.479  15.191   2.224  0.00  0.00    +0.139 A 
ATOM     11  N   UNL     1      32.052  13.948   2.396  0.00  0.00    -0.219 N 
ATOM     12  N   UNL     1      32.131  13.344   1.184  0.00  0.00    -0.061 NA
BRANCH  11  13
ATOM     13  C   UNL     1      32.526  13.319   3.593  0.00  0.00    +0.073 A 
ATOM     14  C   UNL     1      31.601  12.633   4.436  0.00  0.00    -0.024 A 
ATOM     15  C   UNL     1      32.059  12.009   5.617  0.00  0.00    +0.008 A 
ATOM     16  C   UNL     1      33.402  12.036   5.980  0.00  0.00    -0.050 A 
ATOM     17  C   UNL     1      33.856  11.360   7.241  0.00  0.00    +0.044 C 
ATOM     18  C   UNL     1      34.301  12.704   5.154  0.00  0.00    +0.008 A 
ATOM     19  C   UNL     1      30.126  12.469   4.138  0.00  0.00    +0.046 C 
ATOM     20  C   UNL     1      33.892  13.368   3.974  0.00  0.00    -0.024 A 
ATOM     21  C   UNL     1      34.999  14.134   3.295  0.00  0.00    +0.046 C 
ENDBRANCH  11  13
ENDBRANCH   7   9
ENDBRANCH   6   7
ENDBRANCH   5   6
ENDBRANCH   1   5
BRANCH   2  22
ATOM     22  C   UNL     1      25.918  15.990  -3.253  0.00  0.00    +0.152 C 
BRANCH  22  23
ATOM     23  C   UNL     1      24.929  15.010  -2.590  0.00  0.00    +0.193 C 
ATOM     24  O   UNL     1      23.775  14.936  -3.456  0.00  0.00    -0.219 OA
BRANCH  23  25
ATOM     25  C   UNL     1      25.380  13.542  -2.423  0.00  0.00    +0.212 C 
ATOM     26  O   UNL     1      26.707  13.362  -2.944  0.00  0.00    -0.218 OA
BRANCH  25  27
ATOM     27  C   UNL     1      25.356  13.048  -0.926  0.00  0.00    +0.171 C 
ATOM     28  O   UNL     1      26.503  12.277  -0.585  0.00  0.00    -0.343 OA
ATOM     29  C   UNL     1      26.625  11.520   0.583  0.00  0.00    +0.220 C 
ATOM     30  C   UNL     1      25.411  10.599   0.795  0.00  0.00    +0.076 C 
ATOM     31  C   UNL     1      24.148  11.474   0.720  0.00  0.00    +0.177 C 
ATOM     32  O   UNL     1      22.996  10.676   0.950  0.00  0.00    -0.221 OA
ATOM     33  C   UNL     1      24.074  12.192  -0.664  0.00  0.00    +0.155 C 
BRANCH  33  34
ATOM     34  N   UNL     1      22.872  13.018  -0.742  0.00  0.00    -0.202 NA
ATOM     35  C   UNL     1      21.744  12.842  -1.476  0.00  0.00    +0.242 C 
ATOM     36  C   UNL     1      20.538  13.684  -1.148  0.00  0.00    +0.096 C 
ATOM     37  O   UNL     1      21.732  12.009  -2.380  0.00  0.00    -0.273 OA
ENDBRANCH  33  34
BRANCH  29  38
ATOM     38  C   UNL     1      26.935  12.414   1.904  0.00  0.00    +0.391 C 
ATOM     39  O   UNL     1      26.526  11.656   2.940  0.00  0.00    -0.243 OA
ATOM     40  O   UNL     1      27.737  13.406   1.499  0.00  0.00    -0.243 OA
ENDBRANCH  29  38
ENDBRANCH  25  27
ENDBRANCH  23  25
ENDBRANCH  22  23
ENDBRANCH   2  22
TORSDOF 11
