REMARK VINA RESULT:    -5.964      2.288      9.008
REMARK INTER + INTRA:         -14.673
REMARK INTER:                 -12.258
REMARK INTRA:                  -2.415
REMARK UNBOUND:                -2.957
REMARK  Name = lig_assembled_74.pdb
REMARK  19 active torsions:
REMARK  status: ('A' for Active; 'I' for Inactive)
REMARK    1  A    between atoms: _2  and  _8
REMARK    2  A    between atoms: _4  and  _13
REMARK    3  A    between atoms: _5  and  _6
REMARK    4  A    between atoms: _5  and  _17
REMARK    5  A    between atoms: _8  and  _9
REMARK    6  A    between atoms: _9  and  _10
REMARK    7  A    between atoms: _9  and  _12
REMARK    8  A    between atoms: _10  and  _11
REMARK    9  A    between atoms: _11  and  _15
REMARK   10  A    between atoms: _12  and  _13
REMARK   11  A    between atoms: _13  and  _14
REMARK   12  A    between atoms: _17  and  _19
REMARK   13  A    between atoms: _18  and  _23
REMARK   14  A    between atoms: _19  and  _22
REMARK   15  A    between atoms: _27  and  _37
REMARK   16  A    between atoms: _29  and  _30
REMARK   17  A    between atoms: _31  and  _33
REMARK   18  A    between atoms: _33  and  _35
REMARK   19  A    between atoms: _35  and  _37
REMARK                            x       y       z     vdW  Elec       q    Type
REMARK                         _______ _______ _______ _____ _____    ______ ____
ROOT
ATOM      1  C   UNL     1      27.768  17.210  -1.314  0.00  0.00    +0.400 C 
ATOM      2  N   UNL     1      26.667  16.941  -2.092  0.00  0.00    -0.278 N 
ATOM      3  H   UNL     1      26.053  17.805  -1.959  0.00  0.00    +0.152 HD
ATOM      4  O   UNL     1      27.883  18.339  -0.844  0.00  0.00    -0.226 OA
ENDROOT
BRANCH   1   5
ATOM      5  O   UNL     1      28.576  16.219  -1.124  0.00  0.00    -0.450 OA
BRANCH   5   6
ATOM      6  C   UNL     1      28.631  15.009  -0.405  0.00  0.00    +0.240 C 
BRANCH   6   7
ATOM      7  C   UNL     1      29.638  13.944  -0.882  0.00  0.00    +0.100 C 
BRANCH   7   9
ATOM      8  N   UNL     1      31.082  14.919   0.888  0.00  0.00    -0.134 NA
ATOM      9  C   UNL     1      30.814  13.903   0.008  0.00  0.00    +0.086 A 
ATOM     10  C   UNL     1      31.741  12.899   0.186  0.00  0.00    +0.133 A 
ATOM     11  N   UNL     1      32.422  13.287   1.305  0.00  0.00    -0.251 N 
ATOM     12  N   UNL     1      32.089  14.542   1.663  0.00  0.00    -0.065 NA
BRANCH  11  13
ATOM     13  C   UNL     1      33.127  12.428   2.237  0.00  0.00    +0.149 C 
BRANCH  13  14
ATOM     14  C   UNL     1      33.119  12.894   3.709  0.00  0.00    +0.021 C 
BRANCH  14  15
ATOM     15  C   UNL     1      34.525  13.216   4.258  0.00  0.00    +0.125 C 
BRANCH  15  16
ATOM     16  C   UNL     1      35.471  13.841   3.255  0.00  0.00    +0.305 C 
ATOM     17  O   UNL     1      36.496  13.322   2.844  0.00  0.00    -0.251 OA
BRANCH  16  18
ATOM     18  O   UNL     1      35.036  15.027   2.790  0.00  0.00    -0.481 OA
ATOM     19  H   UNL     1      34.254  15.393   3.241  0.00  0.00    +0.295 HD
ENDBRANCH  16  18
ENDBRANCH  15  16
ENDBRANCH  14  15
BRANCH  14  20
ATOM     20  C   UNL     1      32.354  11.848   4.571  0.00  0.00    +0.009 C 
BRANCH  20  21
ATOM     21  C   UNL     1      30.952  12.271   5.059  0.00  0.00    -0.017 C 
ATOM     22  C   UNL     1      29.893  12.135   3.963  0.00  0.00    +0.007 C 
ATOM     23  C   UNL     1      30.528  11.432   6.270  0.00  0.00    +0.007 C 
ENDBRANCH  20  21
ENDBRANCH  14  20
ENDBRANCH  13  14
ENDBRANCH  11  13
ENDBRANCH   7   9
ENDBRANCH   6   7
ENDBRANCH   5   6
ENDBRANCH   1   5
BRANCH   2  24
ATOM     24  C   UNL     1      25.983  16.031  -3.008  0.00  0.00    +0.152 C 
BRANCH  24  25
ATOM     25  C   UNL     1      24.883  15.144  -2.389  0.00  0.00    +0.193 C 
ATOM     26  O   UNL     1      23.702  15.319  -3.202  0.00  0.00    -0.219 OA
BRANCH  25  27
ATOM     27  C   UNL     1      25.119  13.618  -2.376  0.00  0.00    +0.212 C 
ATOM     28  O   UNL     1      26.444  13.310  -2.840  0.00  0.00    -0.218 OA
BRANCH  27  29
ATOM     29  C   UNL     1      24.920  12.967  -0.954  0.00  0.00    +0.171 C 
ATOM     30  O   UNL     1      25.989  12.098  -0.595  0.00  0.00    -0.343 OA
ATOM     31  C   UNL     1      25.956  11.213   0.486  0.00  0.00    +0.220 C 
ATOM     32  C   UNL     1      24.684  10.348   0.477  0.00  0.00    +0.076 C 
ATOM     33  C   UNL     1      23.479  11.298   0.381  0.00  0.00    +0.177 C 
ATOM     34  O   UNL     1      22.272  10.549   0.409  0.00  0.00    -0.221 OA
ATOM     35  C   UNL     1      23.579  12.164  -0.913  0.00  0.00    +0.155 C 
BRANCH  35  36
ATOM     36  N   UNL     1      22.432  13.063  -1.011  0.00  0.00    -0.202 NA
ATOM     37  C   UNL     1      21.415  13.077  -1.910  0.00  0.00    +0.242 C 
ATOM     38  C   UNL     1      20.206  13.926  -1.609  0.00  0.00    +0.096 C 
ATOM     39  O   UNL     1      21.501  12.405  -2.935  0.00  0.00    -0.273 OA
ENDBRANCH  35  36
BRANCH  31  40
ATOM     40  C   UNL     1      26.174  11.939   1.923  0.00  0.00    +0.391 C 
ATOM     41  O   UNL     1      25.529  11.155   2.809  0.00  0.00    -0.243 OA
ATOM     42  O   UNL     1      27.139  12.848   1.736  0.00  0.00    -0.243 OA
ENDBRANCH  31  40
ENDBRANCH  27  29
ENDBRANCH  25  27
ENDBRANCH  24  25
ENDBRANCH   2  24
TORSDOF 17
