REMARK VINA RESULT:    -6.784      1.778      3.907
REMARK INTER + INTRA:         -13.494
REMARK INTER:                 -11.748
REMARK INTRA:                  -1.746
REMARK UNBOUND:                -1.952
REMARK  Name = lig_assembled_44.pdb
REMARK  12 active torsions:
REMARK  status: ('A' for Active; 'I' for Inactive)
REMARK    1  A    between atoms: _2  and  _8
REMARK    2  A    between atoms: _5  and  _6
REMARK    3  A    between atoms: _5  and  _14
REMARK    4  A    between atoms: _8  and  _9
REMARK    5  A    between atoms: _14  and  _16
REMARK    6  A    between atoms: _15  and  _20
REMARK    7  A    between atoms: _16  and  _19
REMARK    8  A    between atoms: _24  and  _34
REMARK    9  A    between atoms: _26  and  _27
REMARK   10  A    between atoms: _28  and  _30
REMARK   11  A    between atoms: _30  and  _32
REMARK   12  A    between atoms: _32  and  _34
REMARK                            x       y       z     vdW  Elec       q    Type
REMARK                         _______ _______ _______ _____ _____    ______ ____
ROOT
ATOM      1  C   UNL     1      27.729  14.079  -1.967  0.00  0.00    +0.400 C 
ATOM      2  N   UNL     1      28.336  14.851  -1.004  0.00  0.00    -0.278 N 
ATOM      3  H   UNL     1      28.827  14.132  -0.385  0.00  0.00    +0.152 HD
ATOM      4  O   UNL     1      28.011  12.884  -2.014  0.00  0.00    -0.226 OA
ENDROOT
BRANCH   2   5
ATOM      5  C   UNL     1      28.615  16.181  -0.470  0.00  0.00    +0.152 C 
BRANCH   5   6
ATOM      6  C   UNL     1      30.097  16.503  -0.186  0.00  0.00    +0.193 C 
ATOM      7  O   UNL     1      30.122  17.777   0.494  0.00  0.00    -0.219 OA
BRANCH   6   8
ATOM      8  C   UNL     1      30.868  15.549   0.752  0.00  0.00    +0.212 C 
ATOM      9  O   UNL     1      29.952  14.739   1.507  0.00  0.00    -0.218 OA
BRANCH   8  10
ATOM     10  C   UNL     1      31.871  14.601  -0.008  0.00  0.00    +0.171 C 
ATOM     11  O   UNL     1      31.297  14.016  -1.172  0.00  0.00    -0.343 OA
ATOM     12  C   UNL     1      31.868  12.962  -1.889  0.00  0.00    +0.220 C 
ATOM     13  C   UNL     1      32.258  11.792  -0.970  0.00  0.00    +0.076 C 
ATOM     14  C   UNL     1      33.138  12.361   0.156  0.00  0.00    +0.177 C 
ATOM     15  O   UNL     1      33.560  11.311   1.015  0.00  0.00    -0.221 OA
ATOM     16  C   UNL     1      32.358  13.459   0.944  0.00  0.00    +0.155 C 
BRANCH  16  17
ATOM     17  N   UNL     1      33.187  13.998   2.019  0.00  0.00    -0.202 NA
ATOM     18  C   UNL     1      33.114  13.790   3.358  0.00  0.00    +0.242 C 
ATOM     19  C   UNL     1      34.273  14.232   4.215  0.00  0.00    +0.096 C 
ATOM     20  O   UNL     1      32.118  13.252   3.836  0.00  0.00    -0.273 OA
ENDBRANCH  16  17
BRANCH  12  21
ATOM     21  C   UNL     1      33.110  13.420  -2.832  0.00  0.00    +0.391 C 
ATOM     22  O   UNL     1      33.269  12.411  -3.711  0.00  0.00    -0.243 OA
ATOM     23  O   UNL     1      33.302  14.721  -2.585  0.00  0.00    -0.243 OA
ENDBRANCH  12  21
ENDBRANCH   8  10
ENDBRANCH   6   8
ENDBRANCH   5   6
ENDBRANCH   2   5
BRANCH   1  24
ATOM     24  O   UNL     1      26.880  14.693  -2.724  0.00  0.00    -0.450 OA
BRANCH  24  25
ATOM     25  C   UNL     1      25.734  14.410  -3.492  0.00  0.00    +0.240 C 
BRANCH  25  26
ATOM     26  C   UNL     1      24.621  15.475  -3.528  0.00  0.00    +0.100 C 
BRANCH  26  28
ATOM     27  N   UNL     1      22.198  15.653  -3.038  0.00  0.00    -0.134 NA
ATOM     28  C   UNL     1      23.333  14.889  -3.111  0.00  0.00    +0.086 A 
ATOM     29  C   UNL     1      23.027  13.594  -2.766  0.00  0.00    +0.134 A 
ATOM     30  N   UNL     1      21.677  13.617  -2.570  0.00  0.00    -0.247 N 
ATOM     31  N   UNL     1      21.189  14.865  -2.694  0.00  0.00    -0.065 NA
BRANCH  30  32
ATOM     32  C   UNL     1      20.794  12.507  -2.266  0.00  0.00    +0.180 C 
BRANCH  32  33
ATOM     33  C   UNL     1      21.213  11.801  -0.997  0.00  0.00    -0.026 A 
ATOM     34  C   UNL     1      21.083  12.432   0.249  0.00  0.00    +0.006 A 
ATOM     35  C   UNL     1      21.485  11.782   1.419  0.00  0.00    +0.015 A 
ATOM     36  C   UNL     1      22.020  10.498   1.347  0.00  0.00    +0.018 A 
ATOM     37 BR   UNL     1      22.548   9.613   2.932  0.00  0.00    -0.050 Br
ATOM     38  C   UNL     1      22.168   9.861   0.117  0.00  0.00    +0.015 A 
ATOM     39  C   UNL     1      21.771  10.514  -1.053  0.00  0.00    +0.006 A 
ENDBRANCH  32  33
ENDBRANCH  30  32
ENDBRANCH  26  28
ENDBRANCH  25  26
ENDBRANCH  24  25
ENDBRANCH   1  24
TORSDOF 12
