REMARK VINA RESULT:    -6.401      2.722     10.199
REMARK INTER + INTRA:         -12.775
REMARK INTER:                 -11.299
REMARK INTRA:                  -1.476
REMARK UNBOUND:                -1.696
REMARK  Name = lig_assembled_72.pdb
REMARK  15 active torsions:
REMARK  status: ('A' for Active; 'I' for Inactive)
REMARK    1  A    between atoms: _2  and  _8
REMARK    2  A    between atoms: _4  and  _8
REMARK    3  A    between atoms: _4  and  _11
REMARK    4  A    between atoms: _5  and  _6
REMARK    5  A    between atoms: _5  and  _12
REMARK    6  A    between atoms: _8  and  _9
REMARK    7  A    between atoms: _8  and  _10
REMARK    8  A    between atoms: _12  and  _14
REMARK    9  A    between atoms: _13  and  _18
REMARK   10  A    between atoms: _14  and  _17
REMARK   11  A    between atoms: _22  and  _32
REMARK   12  A    between atoms: _24  and  _25
REMARK   13  A    between atoms: _26  and  _28
REMARK   14  A    between atoms: _28  and  _30
REMARK   15  A    between atoms: _30  and  _32
REMARK                            x       y       z     vdW  Elec       q    Type
REMARK                         _______ _______ _______ _____ _____    ______ ____
ROOT
ATOM      1  C   UNL     1      27.090  15.569  -2.422  0.00  0.00    +0.152 C 
ENDROOT
BRANCH   1   3
ATOM      2  C   UNL     1      28.074  17.527  -0.796  0.00  0.00    +0.400 C 
ATOM      3  N   UNL     1      27.241  16.660  -1.463  0.00  0.00    -0.278 N 
ATOM      4  H   UNL     1      26.268  16.933  -1.113  0.00  0.00    +0.152 HD
ATOM      5  O   UNL     1      27.565  18.449  -0.165  0.00  0.00    -0.226 OA
BRANCH   2   6
ATOM      6  O   UNL     1      29.337  17.262  -0.876  0.00  0.00    -0.450 OA
BRANCH   6   7
ATOM      7  C   UNL     1      30.330  16.568  -0.157  0.00  0.00    +0.240 C 
BRANCH   7   8
ATOM      8  C   UNL     1      30.015  15.124   0.277  0.00  0.00    +0.100 C 
BRANCH   8  10
ATOM      9  N   UNL     1      31.271  14.922   2.398  0.00  0.00    -0.134 NA
ATOM     10  C   UNL     1      31.123  14.578   1.083  0.00  0.00    +0.086 A 
ATOM     11  C   UNL     1      32.130  13.706   0.731  0.00  0.00    +0.134 A 
ATOM     12  N   UNL     1      32.862  13.555   1.877  0.00  0.00    -0.244 N 
ATOM     13  N   UNL     1      32.334  14.294   2.875  0.00  0.00    -0.065 NA
BRANCH  12  14
ATOM     14  C   UNL     1      34.058  12.729   2.090  0.00  0.00    +0.083 C 
ATOM     15  C   UNL     1      34.145  11.666   0.979  0.00  0.00    +0.038 C 
ATOM     16  C   UNL     1      33.966  12.030   3.462  0.00  0.00    +0.038 C 
BRANCH  14  17
ATOM     17  C   UNL     1      35.358  13.577   2.037  0.00  0.00    +0.185 C 
BRANCH  17  18
ATOM     18  O   UNL     1      35.257  14.788   2.785  0.00  0.00    -0.393 OA
ATOM     19  H   UNL     1      35.907  15.405   2.386  0.00  0.00    +0.209 HD
ENDBRANCH  17  18
ENDBRANCH  14  17
ENDBRANCH  12  14
ENDBRANCH   8  10
ENDBRANCH   7   8
ENDBRANCH   6   7
ENDBRANCH   2   6
ENDBRANCH   1   3
BRANCH   1  20
ATOM     20  C   UNL     1      25.904  15.684  -3.402  0.00  0.00    +0.193 C 
ATOM     21  O   UNL     1      26.443  16.162  -4.653  0.00  0.00    -0.219 OA
BRANCH  20  22
ATOM     22  C   UNL     1      25.157  14.384  -3.775  0.00  0.00    +0.212 C 
ATOM     23  O   UNL     1      26.064  13.434  -4.357  0.00  0.00    -0.218 OA
BRANCH  22  24
ATOM     24  C   UNL     1      24.433  13.706  -2.550  0.00  0.00    +0.171 C 
ATOM     25  O   UNL     1      25.013  12.455  -2.196  0.00  0.00    -0.343 OA
ATOM     26  C   UNL     1      24.431  11.536  -1.320  0.00  0.00    +0.220 C 
ATOM     27  C   UNL     1      22.968  11.240  -1.693  0.00  0.00    +0.076 C 
ATOM     28  C   UNL     1      22.235  12.588  -1.799  0.00  0.00    +0.177 C 
ATOM     29  O   UNL     1      20.865  12.368  -2.104  0.00  0.00    -0.221 OA
ATOM     30  C   UNL     1      22.919  13.488  -2.875  0.00  0.00    +0.155 C 
BRANCH  30  31
ATOM     31  N   UNL     1      22.222  14.767  -2.983  0.00  0.00    -0.202 NA
ATOM     32  C   UNL     1      21.589  15.323  -4.048  0.00  0.00    +0.242 C 
ATOM     33  C   UNL     1      20.699  16.515  -3.808  0.00  0.00    +0.096 C 
ATOM     34  O   UNL     1      21.753  14.846  -5.169  0.00  0.00    -0.273 OA
ENDBRANCH  30  31
BRANCH  26  35
ATOM     35  C   UNL     1      24.575  11.952   0.244  0.00  0.00    +0.391 C 
ATOM     36  O   UNL     1      23.586  11.287   0.873  0.00  0.00    -0.243 OA
ATOM     37  O   UNL     1      25.772  12.539   0.362  0.00  0.00    -0.243 OA
ENDBRANCH  26  35
ENDBRANCH  22  24
ENDBRANCH  20  22
ENDBRANCH   1  20
TORSDOF 13
