REMARK VINA RESULT:    -7.458      1.671      2.642
REMARK INTER + INTRA:         -13.672
REMARK INTER:                 -12.274
REMARK INTRA:                  -1.398
REMARK UNBOUND:                -1.418
REMARK  Name = lig_assembled_20.pdb
REMARK  11 active torsions:
REMARK  status: ('A' for Active; 'I' for Inactive)
REMARK    1  A    between atoms: _2  and  _10
REMARK    2  A    between atoms: _7  and  _8
REMARK    3  A    between atoms: _7  and  _16
REMARK    4  A    between atoms: _16  and  _18
REMARK    5  A    between atoms: _17  and  _22
REMARK    6  A    between atoms: _18  and  _21
REMARK    7  A    between atoms: _26  and  _36
REMARK    8  A    between atoms: _28  and  _29
REMARK    9  A    between atoms: _30  and  _32
REMARK   10  A    between atoms: _32  and  _34
REMARK   11  A    between atoms: _34  and  _36
REMARK                            x       y       z     vdW  Elec       q    Type
REMARK                         _______ _______ _______ _____ _____    ______ ____
ROOT
ATOM      1  C   UNL     1      27.826  17.343  -0.955  0.00  0.00    +0.400 C 
ATOM      2  N   UNL     1      28.550  16.520  -0.125  0.00  0.00    -0.278 N 
ATOM      3  H   UNL     1      28.830  17.164   0.680  0.00  0.00    +0.152 HD
ATOM      4  O   UNL     1      27.528  18.462  -0.545  0.00  0.00    -0.226 OA
ENDROOT
BRANCH   1   5
ATOM      5  O   UNL     1      27.552  16.860  -2.122  0.00  0.00    -0.450 OA
BRANCH   5   6
ATOM      6  C   UNL     1      26.759  17.166  -3.245  0.00  0.00    +0.240 C 
BRANCH   6   7
ATOM      7  C   UNL     1      26.364  16.002  -4.175  0.00  0.00    +0.100 C 
BRANCH   7   9
ATOM      8  N   UNL     1      24.042  15.134  -4.229  0.00  0.00    -0.134 NA
ATOM      9  C   UNL     1      25.247  15.235  -3.596  0.00  0.00    +0.086 A 
ATOM     10  C   UNL     1      25.191  14.535  -2.414  0.00  0.00    +0.139 A 
ATOM     11  N   UNL     1      23.919  14.013  -2.365  0.00  0.00    -0.220 N 
ATOM     12  N   UNL     1      23.241  14.389  -3.477  0.00  0.00    -0.061 NA
BRANCH  11  13
ATOM     13  C   UNL     1      23.337  13.203  -1.355  0.00  0.00    +0.068 A 
ATOM     14  C   UNL     1      21.940  13.151  -1.221  0.00  0.00    +0.030 A 
ATOM     15  C   UNL     1      21.332  12.358  -0.237  0.00  0.00    +0.030 A 
ATOM     16  C   UNL     1      22.174  11.623   0.602  0.00  0.00    +0.066 A 
ATOM     17  C   UNL     1      23.559  11.654   0.495  0.00  0.00    +0.021 A 
ATOM     18  C   UNL     1      24.014  10.787   1.512  0.00  0.00    +0.142 A 
ATOM     19  N   UNL     1      23.015  10.245   2.211  0.00  0.00    -0.181 NA
ATOM     20  N   UNL     1      21.915  10.765   1.639  0.00  0.00    -0.277 N 
ATOM     21  H   UNL     1      21.009  10.497   2.005  0.00  0.00    +0.189 HD
ATOM     22  C   UNL     1      24.159  12.453  -0.494  0.00  0.00    +0.039 A 
ENDBRANCH  11  13
ENDBRANCH   7   9
ENDBRANCH   6   7
ENDBRANCH   5   6
ENDBRANCH   1   5
BRANCH   2  23
ATOM     23  C   UNL     1      29.083  15.188   0.151  0.00  0.00    +0.152 C 
BRANCH  23  24
ATOM     24  C   UNL     1      30.604  15.013  -0.032  0.00  0.00    +0.193 C 
ATOM     25  O   UNL     1      31.105  16.259  -0.565  0.00  0.00    -0.219 OA
BRANCH  24  26
ATOM     26  C   UNL     1      31.453  14.768   1.235  0.00  0.00    +0.212 C 
ATOM     27  O   UNL     1      31.287  15.848   2.168  0.00  0.00    -0.218 OA
BRANCH  26  28
ATOM     28  C   UNL     1      31.107  13.414   1.966  0.00  0.00    +0.171 C 
ATOM     29  O   UNL     1      30.043  13.553   2.901  0.00  0.00    -0.343 OA
ATOM     30  C   UNL     1      29.698  12.589   3.851  0.00  0.00    +0.220 C 
ATOM     31  C   UNL     1      30.920  12.120   4.659  0.00  0.00    +0.076 C 
ATOM     32  C   UNL     1      31.998  11.682   3.654  0.00  0.00    +0.177 C 
ATOM     33  O   UNL     1      33.139  11.200   4.350  0.00  0.00    -0.221 OA
ATOM     34  C   UNL     1      32.369  12.869   2.712  0.00  0.00    +0.155 C 
BRANCH  34  35
ATOM     35  N   UNL     1      33.398  12.459   1.760  0.00  0.00    -0.202 NA
ATOM     36  C   UNL     1      34.656  12.938   1.582  0.00  0.00    +0.242 C 
ATOM     37  C   UNL     1      35.611  12.141   0.731  0.00  0.00    +0.096 C 
ATOM     38  O   UNL     1      34.984  13.997   2.113  0.00  0.00    -0.273 OA
ENDBRANCH  34  35
BRANCH  30  39
ATOM     39  C   UNL     1      28.876  11.333   3.228  0.00  0.00    +0.391 C 
ATOM     40  O   UNL     1      28.923  10.381   4.180  0.00  0.00    -0.243 OA
ATOM     41  O   UNL     1      28.221  11.811   2.163  0.00  0.00    -0.243 OA
ENDBRANCH  30  39
ENDBRANCH  26  28
ENDBRANCH  24  26
ENDBRANCH  23  24
ENDBRANCH   2  23
TORSDOF 11
