REMARK VINA RESULT:    -6.749      1.725      2.956
REMARK INTER + INTRA:         -12.634
REMARK INTER:                 -11.553
REMARK INTRA:                  -1.081
REMARK UNBOUND:                -1.545
REMARK  Name = lig_assembled_48.pdb
REMARK  11 active torsions:
REMARK  status: ('A' for Active; 'I' for Inactive)
REMARK    1  A    between atoms: _2  and  _8
REMARK    2  A    between atoms: _5  and  _6
REMARK    3  A    between atoms: _5  and  _13
REMARK    4  A    between atoms: _13  and  _15
REMARK    5  A    between atoms: _14  and  _19
REMARK    6  A    between atoms: _15  and  _18
REMARK    7  A    between atoms: _23  and  _33
REMARK    8  A    between atoms: _25  and  _26
REMARK    9  A    between atoms: _27  and  _29
REMARK   10  A    between atoms: _29  and  _31
REMARK   11  A    between atoms: _31  and  _33
REMARK                            x       y       z     vdW  Elec       q    Type
REMARK                         _______ _______ _______ _____ _____    ______ ____
ROOT
ATOM      1  C   UNL     1      29.150  15.150   0.255  0.00  0.00    +0.152 C 
ENDROOT
BRANCH   1   3
ATOM      2  C   UNL     1      27.847  17.203  -0.982  0.00  0.00    +0.400 C 
ATOM      3  N   UNL     1      28.607  16.454  -0.115  0.00  0.00    -0.278 N 
ATOM      4  H   UNL     1      28.923  17.167   0.616  0.00  0.00    +0.152 HD
ATOM      5  O   UNL     1      27.568  18.356  -0.660  0.00  0.00    -0.226 OA
BRANCH   2   6
ATOM      6  O   UNL     1      27.521  16.619  -2.088  0.00  0.00    -0.450 OA
BRANCH   6   7
ATOM      7  C   UNL     1      26.650  15.612  -2.547  0.00  0.00    +0.240 C 
BRANCH   7   8
ATOM      8  C   UNL     1      25.285  16.053  -3.109  0.00  0.00    +0.100 C 
BRANCH   8  10
ATOM      9  N   UNL     1      24.893  13.654  -3.553  0.00  0.00    -0.134 NA
ATOM     10  C   UNL     1      24.393  14.888  -3.244  0.00  0.00    +0.086 A 
ATOM     11  C   UNL     1      23.028  14.792  -3.081  0.00  0.00    +0.134 A 
ATOM     12  N   UNL     1      22.768  13.460  -3.211  0.00  0.00    -0.248 N 
ATOM     13  N   UNL     1      23.886  12.794  -3.570  0.00  0.00    -0.065 NA
BRANCH  12  14
ATOM     14  C   UNL     1      21.546  12.701  -2.973  0.00  0.00    +0.109 C 
ATOM     15  C   UNL     1      21.830  11.441  -2.134  0.00  0.00    +0.027 C 
ATOM     16  C   UNL     1      22.137  11.794  -0.681  0.00  0.00    +0.002 C 
ATOM     17  C   UNL     1      20.968  12.532  -0.042  0.00  0.00    +0.000 C 
ATOM     18  C   UNL     1      20.549  13.765  -0.840  0.00  0.00    +0.002 C 
ATOM     19  C   UNL     1      20.381  13.488  -2.339  0.00  0.00    +0.027 C 
ENDBRANCH  12  14
ENDBRANCH   8  10
ENDBRANCH   7   8
ENDBRANCH   6   7
ENDBRANCH   2   6
ENDBRANCH   1   3
BRANCH   1  20
ATOM     20  C   UNL     1      30.673  14.975   0.086  0.00  0.00    +0.193 C 
ATOM     21  O   UNL     1      31.167  16.194  -0.510  0.00  0.00    -0.219 OA
BRANCH  20  22
ATOM     22  C   UNL     1      31.520  14.800   1.366  0.00  0.00    +0.212 C 
ATOM     23  O   UNL     1      31.291  15.892   2.271  0.00  0.00    -0.218 OA
BRANCH  22  24
ATOM     24  C   UNL     1      31.234  13.448   2.124  0.00  0.00    +0.171 C 
ATOM     25  O   UNL     1      30.043  13.498   2.903  0.00  0.00    -0.343 OA
ATOM     26  C   UNL     1      29.683  12.541   3.855  0.00  0.00    +0.220 C 
ATOM     27  C   UNL     1      30.830  12.260   4.842  0.00  0.00    +0.076 C 
ATOM     28  C   UNL     1      32.078  11.912   4.014  0.00  0.00    +0.177 C 
ATOM     29  O   UNL     1      33.160  11.603   4.881  0.00  0.00    -0.221 OA
ATOM     30  C   UNL     1      32.436  13.093   3.059  0.00  0.00    +0.155 C 
BRANCH  30  31
ATOM     31  N   UNL     1      33.626  12.769   2.276  0.00  0.00    -0.202 NA
ATOM     32  C   UNL     1      34.866  13.319   2.314  0.00  0.00    +0.242 C 
ATOM     33  C   UNL     1      35.988  12.602   1.610  0.00  0.00    +0.096 C 
ATOM     34  O   UNL     1      35.044  14.376   2.917  0.00  0.00    -0.273 OA
ENDBRANCH  30  31
BRANCH  26  35
ATOM     35  C   UNL     1      29.103  11.170   3.206  0.00  0.00    +0.391 C 
ATOM     36  O   UNL     1      29.129  10.272   4.211  0.00  0.00    -0.243 OA
ATOM     37  O   UNL     1      28.548  11.518   2.039  0.00  0.00    -0.243 OA
ENDBRANCH  26  35
ENDBRANCH  22  24
ENDBRANCH  20  22
ENDBRANCH   1  20
TORSDOF 11
