REMARK VINA RESULT:    -6.473      1.415      3.637
REMARK INTER + INTRA:         -12.391
REMARK INTER:                 -11.003
REMARK INTRA:                  -1.388
REMARK UNBOUND:                -1.188
REMARK  Name = lig_assembled_35.pdb
REMARK  14 active torsions:
REMARK  status: ('A' for Active; 'I' for Inactive)
REMARK    1  A    between atoms: _2  and  _8
REMARK    2  A    between atoms: _4  and  _8
REMARK    3  A    between atoms: _4  and  _10
REMARK    4  A    between atoms: _5  and  _6
REMARK    5  A    between atoms: _5  and  _12
REMARK    6  A    between atoms: _8  and  _9
REMARK    7  A    between atoms: _12  and  _14
REMARK    8  A    between atoms: _13  and  _18
REMARK    9  A    between atoms: _14  and  _17
REMARK   10  A    between atoms: _22  and  _32
REMARK   11  A    between atoms: _24  and  _25
REMARK   12  A    between atoms: _26  and  _28
REMARK   13  A    between atoms: _28  and  _30
REMARK   14  A    between atoms: _30  and  _32
REMARK                            x       y       z     vdW  Elec       q    Type
REMARK                         _______ _______ _______ _____ _____    ______ ____
ROOT
ATOM      1  C   UNL     1      28.861  15.156   0.253  0.00  0.00    +0.152 C 
ENDROOT
BRANCH   1   3
ATOM      2  C   UNL     1      27.694  17.381  -0.812  0.00  0.00    +0.400 C 
ATOM      3  N   UNL     1      28.388  16.515  -0.001  0.00  0.00    -0.278 N 
ATOM      4  H   UNL     1      28.707  17.136   0.808  0.00  0.00    +0.152 HD
ATOM      5  O   UNL     1      27.452  18.507  -0.385  0.00  0.00    -0.226 OA
BRANCH   2   6
ATOM      6  O   UNL     1      27.384  16.926  -1.982  0.00  0.00    -0.450 OA
BRANCH   6   7
ATOM      7  C   UNL     1      26.746  15.811  -2.559  0.00  0.00    +0.240 C 
BRANCH   7   8
ATOM      8  C   UNL     1      25.478  16.071  -3.395  0.00  0.00    +0.100 C 
BRANCH   8  10
ATOM      9  N   UNL     1      24.507  14.281  -1.989  0.00  0.00    -0.134 NA
ATOM     10  C   UNL     1      24.324  15.364  -2.809  0.00  0.00    +0.086 A 
ATOM     11  C   UNL     1      22.975  15.603  -2.943  0.00  0.00    +0.134 A 
ATOM     12  N   UNL     1      22.390  14.642  -2.171  0.00  0.00    -0.238 N 
ATOM     13  N   UNL     1      23.315  13.838  -1.618  0.00  0.00    -0.065 NA
BRANCH  12  14
ATOM     14  C   UNL     1      20.986  14.384  -1.919  0.00  0.00    +0.214 C 
ATOM     15  C   UNL     1      20.132  14.793  -3.116  0.00  0.00    +0.045 C 
BRANCH  14  16
ATOM     16  C   UNL     1      20.751  12.943  -1.515  0.00  0.00    +0.329 C 
ATOM     17  O   UNL     1      20.480  12.041  -2.297  0.00  0.00    -0.249 OA
BRANCH  16  18
ATOM     18  O   UNL     1      20.836  12.715  -0.181  0.00  0.00    -0.479 OA
ATOM     19  H   UNL     1      20.992  13.504   0.377  0.00  0.00    +0.295 HD
ENDBRANCH  16  18
ENDBRANCH  14  16
ENDBRANCH  12  14
ENDBRANCH   8  10
ENDBRANCH   7   8
ENDBRANCH   6   7
ENDBRANCH   2   6
ENDBRANCH   1   3
BRANCH   1  20
ATOM     20  C   UNL     1      30.234  14.792  -0.347  0.00  0.00    +0.193 C 
ATOM     21  O   UNL     1      30.955  16.032  -0.518  0.00  0.00    -0.219 OA
BRANCH  20  22
ATOM     22  C   UNL     1      31.176  13.912   0.504  0.00  0.00    +0.212 C 
ATOM     23  O   UNL     1      30.552  12.654   0.805  0.00  0.00    -0.218 OA
BRANCH  22  24
ATOM     24  C   UNL     1      32.565  13.633  -0.187  0.00  0.00    +0.171 C 
ATOM     25  O   UNL     1      32.440  12.859  -1.375  0.00  0.00    -0.343 OA
ATOM     26  C   UNL     1      33.512  12.266  -2.047  0.00  0.00    +0.220 C 
ATOM     27  C   UNL     1      34.400  11.448  -1.093  0.00  0.00    +0.076 C 
ATOM     28  C   UNL     1      34.795  12.367   0.074  0.00  0.00    +0.177 C 
ATOM     29  O   UNL     1      35.652  11.670   0.967  0.00  0.00    -0.221 OA
ATOM     30  C   UNL     1      33.519  12.889   0.804  0.00  0.00    +0.155 C 
BRANCH  30  31
ATOM     31  N   UNL     1      33.891  13.757   1.918  0.00  0.00    -0.202 NA
ATOM     32  C   UNL     1      33.566  13.669   3.233  0.00  0.00    +0.242 C 
ATOM     33  C   UNL     1      34.322  14.525   4.215  0.00  0.00    +0.096 C 
ATOM     34  O   UNL     1      32.673  12.902   3.588  0.00  0.00    -0.273 OA
ENDBRANCH  30  31
BRANCH  26  35
ATOM     35  C   UNL     1      34.387  13.318  -2.923  0.00  0.00    +0.391 C 
ATOM     36  O   UNL     1      35.532  12.666  -3.204  0.00  0.00    -0.243 OA
ATOM     37  O   UNL     1      33.542  14.291  -3.285  0.00  0.00    -0.243 OA
ENDBRANCH  26  35
ENDBRANCH  22  24
ENDBRANCH  20  22
ENDBRANCH   1  20
TORSDOF 13
