REMARK VINA RESULT:    -7.008      1.295      3.407
REMARK INTER + INTRA:         -13.363
REMARK INTER:                 -11.985
REMARK INTRA:                  -1.378
REMARK UNBOUND:                -1.850
REMARK  Name = lig_assembled_2.pdb
REMARK  11 active torsions:
REMARK  status: ('A' for Active; 'I' for Inactive)
REMARK    1  A    between atoms: _2  and  _8
REMARK    2  A    between atoms: _5  and  _6
REMARK    3  A    between atoms: _5  and  _13
REMARK    4  A    between atoms: _13  and  _15
REMARK    5  A    between atoms: _14  and  _19
REMARK    6  A    between atoms: _15  and  _18
REMARK    7  A    between atoms: _23  and  _33
REMARK    8  A    between atoms: _25  and  _26
REMARK    9  A    between atoms: _27  and  _29
REMARK   10  A    between atoms: _29  and  _31
REMARK   11  A    between atoms: _31  and  _33
REMARK                            x       y       z     vdW  Elec       q    Type
REMARK                         _______ _______ _______ _____ _____    ______ ____
ROOT
ATOM      1  C   UNL     1      27.765  17.563  -0.976  0.00  0.00    +0.400 C 
ATOM      2  N   UNL     1      28.377  16.731  -0.069  0.00  0.00    -0.278 N 
ATOM      3  H   UNL     1      28.613  17.382   0.745  0.00  0.00    +0.152 HD
ATOM      4  O   UNL     1      27.479  18.702  -0.615  0.00  0.00    -0.226 OA
ENDROOT
BRANCH   1   5
ATOM      5  O   UNL     1      27.574  17.065  -2.153  0.00  0.00    -0.450 OA
BRANCH   5   6
ATOM      6  C   UNL     1      26.773  17.287  -3.290  0.00  0.00    +0.240 C 
BRANCH   6   7
ATOM      7  C   UNL     1      26.210  16.050  -4.016  0.00  0.00    +0.100 C 
BRANCH   7   9
ATOM      8  N   UNL     1      23.911  15.845  -3.125  0.00  0.00    -0.134 NA
ATOM      9  C   UNL     1      25.194  15.384  -3.180  0.00  0.00    +0.086 A 
ATOM     10  C   UNL     1      25.307  14.274  -2.375  0.00  0.00    +0.139 A 
ATOM     11  N   UNL     1      24.044  14.075  -1.864  0.00  0.00    -0.220 N 
ATOM     12  N   UNL     1      23.221  15.051  -2.319  0.00  0.00    -0.061 NA
BRANCH  11  13
ATOM     13  C   UNL     1      23.581  13.031  -1.021  0.00  0.00    +0.067 A 
ATOM     14  C   UNL     1      24.473  12.307  -0.215  0.00  0.00    +0.029 A 
ATOM     15  C   UNL     1      24.001  11.257   0.581  0.00  0.00    +0.022 A 
ATOM     16  C   UNL     1      22.647  10.931   0.576  0.00  0.00    +0.041 A 
ATOM     17 CL   UNL     1      22.080   9.625   1.541  0.00  0.00    -0.084 Cl
ATOM     18  C   UNL     1      21.752  11.654  -0.209  0.00  0.00    +0.022 A 
ATOM     19  C   UNL     1      22.215  12.705  -1.006  0.00  0.00    +0.029 A 
ENDBRANCH  11  13
ENDBRANCH   7   9
ENDBRANCH   6   7
ENDBRANCH   5   6
ENDBRANCH   1   5
BRANCH   2  20
ATOM     20  C   UNL     1      28.826  15.385   0.279  0.00  0.00    +0.152 C 
BRANCH  20  21
ATOM     21  C   UNL     1      30.174  14.941  -0.325  0.00  0.00    +0.193 C 
ATOM     22  O   UNL     1      30.962  16.138  -0.508  0.00  0.00    -0.219 OA
BRANCH  21  23
ATOM     23  C   UNL     1      31.070  14.016   0.527  0.00  0.00    +0.212 C 
ATOM     24  O   UNL     1      30.405  12.767   0.781  0.00  0.00    -0.218 OA
BRANCH  23  25
ATOM     25  C   UNL     1      32.468  13.717  -0.135  0.00  0.00    +0.171 C 
ATOM     26  O   UNL     1      32.356  12.942  -1.325  0.00  0.00    -0.343 OA
ATOM     27  C   UNL     1      33.434  12.333  -1.973  0.00  0.00    +0.220 C 
ATOM     28  C   UNL     1      34.291  11.504  -1.001  0.00  0.00    +0.076 C 
ATOM     29  C   UNL     1      34.675  12.420   0.173  0.00  0.00    +0.177 C 
ATOM     30  O   UNL     1      35.504  11.713   1.084  0.00  0.00    -0.221 OA
ATOM     31  C   UNL     1      33.391  12.961   0.876  0.00  0.00    +0.155 C 
BRANCH  31  32
ATOM     32  N   UNL     1      33.753  13.826   1.996  0.00  0.00    -0.202 NA
ATOM     33  C   UNL     1      33.455  13.708   3.315  0.00  0.00    +0.242 C 
ATOM     34  C   UNL     1      34.198  14.576   4.297  0.00  0.00    +0.096 C 
ATOM     35  O   UNL     1      32.596  12.904   3.674  0.00  0.00    -0.273 OA
ENDBRANCH  31  32
BRANCH  27  36
ATOM     36  C   UNL     1      34.341  13.371  -2.833  0.00  0.00    +0.391 C 
ATOM     37  O   UNL     1      35.487  12.708  -3.081  0.00  0.00    -0.243 OA
ATOM     38  O   UNL     1      33.515  14.350  -3.223  0.00  0.00    -0.243 OA
ENDBRANCH  27  36
ENDBRANCH  23  25
ENDBRANCH  21  23
ENDBRANCH  20  21
ENDBRANCH   2  20
TORSDOF 11
