REMARK VINA RESULT:    -6.817      1.957      3.723
REMARK INTER + INTRA:         -13.894
REMARK INTER:                 -12.238
REMARK INTRA:                  -1.657
REMARK UNBOUND:                -2.096
REMARK  Name = lig_assembled_88.pdb
REMARK  13 active torsions:
REMARK  status: ('A' for Active; 'I' for Inactive)
REMARK    1  A    between atoms: _2  and  _8
REMARK    2  A    between atoms: _4  and  _14
REMARK    3  A    between atoms: _5  and  _6
REMARK    4  A    between atoms: _5  and  _15
REMARK    5  A    between atoms: _8  and  _9
REMARK    6  A    between atoms: _15  and  _17
REMARK    7  A    between atoms: _16  and  _21
REMARK    8  A    between atoms: _17  and  _20
REMARK    9  A    between atoms: _25  and  _35
REMARK   10  A    between atoms: _27  and  _28
REMARK   11  A    between atoms: _29  and  _31
REMARK   12  A    between atoms: _31  and  _33
REMARK   13  A    between atoms: _33  and  _35
REMARK                            x       y       z     vdW  Elec       q    Type
REMARK                         _______ _______ _______ _____ _____    ______ ____
ROOT
ATOM      1  C   UNL     1      28.448  16.768  -0.661  0.00  0.00    +0.400 C 
ATOM      2  N   UNL     1      28.631  15.718   0.208  0.00  0.00    -0.278 N 
ATOM      3  H   UNL     1      29.392  16.074   0.868  0.00  0.00    +0.152 HD
ATOM      4  O   UNL     1      28.996  17.837  -0.402  0.00  0.00    -0.226 OA
ENDROOT
BRANCH   1   5
ATOM      5  O   UNL     1      27.727  16.513  -1.703  0.00  0.00    -0.450 OA
BRANCH   5   6
ATOM      6  C   UNL     1      26.858  17.178  -2.590  0.00  0.00    +0.240 C 
BRANCH   6   7
ATOM      7  C   UNL     1      26.578  16.507  -3.948  0.00  0.00    +0.100 C 
BRANCH   7   9
ATOM      8  N   UNL     1      24.895  15.000  -4.961  0.00  0.00    -0.134 NA
ATOM      9  C   UNL     1      25.288  15.794  -3.915  0.00  0.00    +0.086 A 
ATOM     10  C   UNL     1      24.305  15.787  -2.951  0.00  0.00    +0.134 A 
ATOM     11  N   UNL     1      23.310  15.033  -3.504  0.00  0.00    -0.247 N 
ATOM     12  N   UNL     1      23.690  14.520  -4.689  0.00  0.00    -0.065 NA
BRANCH  11  13
ATOM     13  C   UNL     1      21.962  14.817  -3.001  0.00  0.00    +0.184 C 
BRANCH  13  14
ATOM     14  C   UNL     1      21.768  13.447  -2.383  0.00  0.00    +0.017 A 
ATOM     15  C   UNL     1      21.793  13.235  -0.991  0.00  0.00    +0.024 A 
ATOM     16  C   UNL     1      21.610  11.957  -0.457  0.00  0.00    +0.019 A 
ATOM     17 BR   UNL     1      21.700  11.704   1.415  0.00  0.00    -0.050 Br
ATOM     18  C   UNL     1      21.366  10.867  -1.286  0.00  0.00    +0.034 A 
ATOM     19  C   UNL     1      21.290  11.068  -2.661  0.00  0.00    +0.061 A 
ATOM     20 BR   UNL     1      20.921   9.585  -3.784  0.00  0.00    -0.046 Br
ATOM     21  C   UNL     1      21.485  12.346  -3.204  0.00  0.00    +0.136 A 
BRANCH  21  22
ATOM     22  O   UNL     1      21.398  12.558  -4.555  0.00  0.00    -0.505 OA
ATOM     23  H   UNL     1      20.831  11.856  -4.927  0.00  0.00    +0.292 HD
ENDBRANCH  21  22
ENDBRANCH  13  14
ENDBRANCH  11  13
ENDBRANCH   7   9
ENDBRANCH   6   7
ENDBRANCH   5   6
ENDBRANCH   1   5
BRANCH   2  24
ATOM     24  C   UNL     1      28.250  14.374   0.632  0.00  0.00    +0.152 C 
BRANCH  24  25
ATOM     25  C   UNL     1      28.608  13.992   2.083  0.00  0.00    +0.193 C 
ATOM     26  O   UNL     1      27.468  13.284   2.619  0.00  0.00    -0.219 OA
BRANCH  25  27
ATOM     27  C   UNL     1      29.796  13.028   2.297  0.00  0.00    +0.212 C 
ATOM     28  O   UNL     1      29.484  11.725   1.778  0.00  0.00    -0.218 OA
BRANCH  27  29
ATOM     29  C   UNL     1      31.134  13.529   1.632  0.00  0.00    +0.171 C 
ATOM     30  O   UNL     1      31.119  13.409   0.213  0.00  0.00    -0.343 OA
ATOM     31  C   UNL     1      32.245  13.547  -0.602  0.00  0.00    +0.220 C 
ATOM     32  C   UNL     1      33.415  12.677  -0.110  0.00  0.00    +0.076 C 
ATOM     33  C   UNL     1      33.645  13.006   1.374  0.00  0.00    +0.177 C 
ATOM     34  O   UNL     1      34.745  12.256   1.869  0.00  0.00    -0.221 OA
ATOM     35  C   UNL     1      32.349  12.722   2.195  0.00  0.00    +0.155 C 
BRANCH  35  36
ATOM     36  N   UNL     1      32.566  13.027   3.607  0.00  0.00    -0.202 NA
ATOM     37  C   UNL     1      32.549  12.204   4.685  0.00  0.00    +0.242 C 
ATOM     38  C   UNL     1      33.095  12.722   5.990  0.00  0.00    +0.096 C 
ATOM     39  O   UNL     1      32.095  11.066   4.574  0.00  0.00    -0.273 OA
ENDBRANCH  35  36
BRANCH  31  40
ATOM     40  C   UNL     1      32.701  15.091  -0.820  0.00  0.00    +0.391 C 
ATOM     41  O   UNL     1      33.837  15.020  -1.541  0.00  0.00    -0.243 OA
ATOM     42  O   UNL     1      31.646  15.840  -0.476  0.00  0.00    -0.243 OA
ENDBRANCH  31  40
ENDBRANCH  27  29
ENDBRANCH  25  27
ENDBRANCH  24  25
ENDBRANCH   2  24
TORSDOF 13
