REMARK VINA RESULT:    -6.469      1.448      2.234
REMARK INTER + INTRA:         -15.581
REMARK INTER:                 -12.572
REMARK INTRA:                  -3.008
REMARK UNBOUND:                -3.439
REMARK  Name = lig_assembled_84.pdb
REMARK  16 active torsions:
REMARK  status: ('A' for Active; 'I' for Inactive)
REMARK    1  A    between atoms: _2  and  _10
REMARK    2  A    between atoms: _3  and  _13
REMARK    3  A    between atoms: _4  and  _16
REMARK    4  A    between atoms: _7  and  _8
REMARK    5  A    between atoms: _7  and  _23
REMARK    6  A    between atoms: _10  and  _11
REMARK    7  A    between atoms: _11  and  _12
REMARK    8  A    between atoms: _11  and  _13
REMARK    9  A    between atoms: _23  and  _25
REMARK   10  A    between atoms: _24  and  _29
REMARK   11  A    between atoms: _25  and  _28
REMARK   12  A    between atoms: _33  and  _43
REMARK   13  A    between atoms: _35  and  _36
REMARK   14  A    between atoms: _37  and  _39
REMARK   15  A    between atoms: _39  and  _41
REMARK   16  A    between atoms: _41  and  _43
REMARK                            x       y       z     vdW  Elec       q    Type
REMARK                         _______ _______ _______ _____ _____    ______ ____
ROOT
ATOM      1  C   UNL     1      27.168  14.807  -2.282  0.00  0.00    +0.240 C 
ENDROOT
BRANCH   1   2
ATOM      2  C   UNL     1      26.280  15.978  -2.743  0.00  0.00    +0.100 C 
BRANCH   2   4
ATOM      3  N   UNL     1      25.111  14.858  -4.621  0.00  0.00    -0.134 NA
ATOM      4  C   UNL     1      25.057  15.479  -3.400  0.00  0.00    +0.086 A 
ATOM      5  C   UNL     1      23.743  15.556  -2.994  0.00  0.00    +0.133 A 
ATOM      6  N   UNL     1      23.045  15.026  -4.037  0.00  0.00    -0.251 N 
ATOM      7  N   UNL     1      23.870  14.587  -5.003  0.00  0.00    -0.065 NA
BRANCH   6   8
ATOM      8  C   UNL     1      21.609  15.034  -4.237  0.00  0.00    +0.149 C 
BRANCH   8   9
ATOM      9  C   UNL     1      20.822  14.199  -3.213  0.00  0.00    +0.021 C 
ATOM     10  C   UNL     1      19.359  14.658  -3.127  0.00  0.00    +0.010 C 
BRANCH   9  11
ATOM     11  C   UNL     1      20.851  12.694  -3.574  0.00  0.00    +0.089 C 
BRANCH  11  12
ATOM     12  N   UNL     1      21.561  11.826  -2.625  0.00  0.00    -0.299 NA
ATOM     13  C   UNL     1      21.345  12.307  -1.234  0.00  0.00    +0.103 C 
ATOM     14  C   UNL     1      22.004  11.375  -0.198  0.00  0.00    +0.120 C 
ATOM     15  N   UNL     1      23.443  11.274  -0.468  0.00  0.00    -0.327 N 
ATOM     16  C   UNL     1      23.773  10.858  -1.840  0.00  0.00    +0.120 C 
ATOM     17  C   UNL     1      23.025  11.757  -2.867  0.00  0.00    +0.103 C 
BRANCH  15  18
ATOM     18  C   UNL     1      24.398  11.495   0.497  0.00  0.00    +0.030 A 
ATOM     19  C   UNL     1      24.219  11.048   1.819  0.00  0.00    +0.024 A 
ATOM     20  C   UNL     1      25.166  11.285   2.820  0.00  0.00    +0.022 A 
ATOM     21  C   UNL     1      26.328  11.974   2.513  0.00  0.00    +0.041 A 
ATOM     22 CL   UNL     1      27.497  12.275   3.740  0.00  0.00    -0.084 Cl
ATOM     23  C   UNL     1      26.546  12.430   1.219  0.00  0.00    +0.022 A 
ATOM     24  C   UNL     1      25.585  12.192   0.226  0.00  0.00    +0.024 A 
ENDBRANCH  15  18
ENDBRANCH  11  12
ENDBRANCH   9  11
ENDBRANCH   8   9
ENDBRANCH   6   8
ENDBRANCH   2   4
ENDBRANCH   1   2
BRANCH   1  25
ATOM     25  O   UNL     1      28.340  15.122  -1.566  0.00  0.00    -0.450 OA
BRANCH  25  26
ATOM     26  C   UNL     1      29.032  14.672  -0.572  0.00  0.00    +0.400 C 
ATOM     27  N   UNL     1      30.045  13.802  -0.897  0.00  0.00    -0.278 N 
ATOM     28  H   UNL     1      30.598  13.713   0.013  0.00  0.00    +0.152 HD
ATOM     29  O   UNL     1      28.884  14.973   0.610  0.00  0.00    -0.226 OA
BRANCH  27  30
ATOM     30  C   UNL     1      30.682  12.953  -1.901  0.00  0.00    +0.152 C 
BRANCH  30  31
ATOM     31  C   UNL     1      32.209  13.105  -2.050  0.00  0.00    +0.193 C 
ATOM     32  O   UNL     1      32.442  13.706  -3.343  0.00  0.00    -0.219 OA
BRANCH  31  33
ATOM     33  C   UNL     1      32.936  14.037  -1.055  0.00  0.00    +0.212 C 
ATOM     34  O   UNL     1      32.365  15.355  -1.095  0.00  0.00    -0.218 OA
BRANCH  33  35
ATOM     35  C   UNL     1      32.896  13.515   0.432  0.00  0.00    +0.171 C 
ATOM     36  O   UNL     1      32.065  14.312   1.270  0.00  0.00    -0.343 OA
ATOM     37  C   UNL     1      32.039  14.226   2.664  0.00  0.00    +0.220 C 
ATOM     38  C   UNL     1      33.452  14.300   3.267  0.00  0.00    +0.076 C 
ATOM     39  C   UNL     1      34.310  13.232   2.569  0.00  0.00    +0.177 C 
ATOM     40  O   UNL     1      35.620  13.231   3.119  0.00  0.00    -0.221 OA
ATOM     41  C   UNL     1      34.341  13.488   1.030  0.00  0.00    +0.155 C 
BRANCH  41  42
ATOM     42  N   UNL     1      35.160  12.479   0.364  0.00  0.00    -0.202 NA
ATOM     43  C   UNL     1      36.201  12.634  -0.493  0.00  0.00    +0.242 C 
ATOM     44  C   UNL     1      37.058  11.434  -0.802  0.00  0.00    +0.096 C 
ATOM     45  O   UNL     1      36.419  13.737  -0.991  0.00  0.00    -0.273 OA
ENDBRANCH  41  42
BRANCH  37  46
ATOM     46  C   UNL     1      31.220  12.936   3.218  0.00  0.00    +0.391 C 
ATOM     47  O   UNL     1      31.445  12.926   4.546  0.00  0.00    -0.243 OA
ATOM     48  O   UNL     1      30.407  12.559   2.223  0.00  0.00    -0.243 OA
ENDBRANCH  37  46
ENDBRANCH  33  35
ENDBRANCH  31  33
ENDBRANCH  30  31
ENDBRANCH  27  30
ENDBRANCH  25  26
ENDBRANCH   1  25
TORSDOF 15
