REMARK VINA RESULT:    -8.434      0.731      2.519
REMARK INTER + INTRA:         -15.620
REMARK INTER:                 -13.691
REMARK INTRA:                  -1.929
REMARK UNBOUND:                -1.762
REMARK  Name = lig_assembled_25.pdb
REMARK  11 active torsions:
REMARK  status: ('A' for Active; 'I' for Inactive)
REMARK    1  A    between atoms: _2  and  _8
REMARK    2  A    between atoms: _5  and  _6
REMARK    3  A    between atoms: _5  and  _20
REMARK    4  A    between atoms: _20  and  _22
REMARK    5  A    between atoms: _21  and  _26
REMARK    6  A    between atoms: _22  and  _25
REMARK    7  A    between atoms: _30  and  _40
REMARK    8  A    between atoms: _32  and  _33
REMARK    9  A    between atoms: _34  and  _36
REMARK   10  A    between atoms: _36  and  _38
REMARK   11  A    between atoms: _38  and  _40
REMARK                            x       y       z     vdW  Elec       q    Type
REMARK                         _______ _______ _______ _____ _____    ______ ____
ROOT
ATOM      1  C   UNL     1      27.860  17.484  -1.172  0.00  0.00    +0.400 C 
ATOM      2  N   UNL     1      28.213  16.317  -0.535  0.00  0.00    -0.278 N 
ATOM      3  H   UNL     1      28.298  16.610   0.489  0.00  0.00    +0.152 HD
ATOM      4  O   UNL     1      27.562  18.454  -0.480  0.00  0.00    -0.226 OA
ENDROOT
BRANCH   1   5
ATOM      5  O   UNL     1      27.907  17.453  -2.463  0.00  0.00    -0.450 OA
BRANCH   5   6
ATOM      6  C   UNL     1      27.154  16.963  -3.548  0.00  0.00    +0.240 C 
BRANCH   6   7
ATOM      7  C   UNL     1      25.625  17.139  -3.489  0.00  0.00    +0.100 C 
BRANCH   7   9
ATOM      8  N   UNL     1      25.361  14.888  -4.469  0.00  0.00    -0.134 NA
ATOM      9  C   UNL     1      24.952  15.828  -3.563  0.00  0.00    +0.086 A 
ATOM     10  C   UNL     1      23.887  15.332  -2.845  0.00  0.00    +0.134 A 
ATOM     11  N   UNL     1      23.680  14.087  -3.373  0.00  0.00    -0.240 N 
ATOM     12  N   UNL     1      24.581  13.824  -4.345  0.00  0.00    -0.065 NA
BRANCH  11  13
ATOM     13  C   UNL     1      22.631  13.120  -3.097  0.00  0.00    +0.170 C 
ATOM     14  C   UNL     1      21.237  13.711  -3.260  0.00  0.00    -0.011 A 
ATOM     15  C   UNL     1      20.497  13.535  -2.070  0.00  0.00    -0.012 A 
ATOM     16  C   UNL     1      21.331  12.867  -1.091  0.00  0.00    -0.012 A 
ATOM     17  C   UNL     1      21.042  12.451   0.198  0.00  0.00    +0.009 A 
ATOM     18  C   UNL     1      22.039  11.791   0.922  0.00  0.00    +0.001 A 
ATOM     19  C   UNL     1      23.305  11.559   0.360  0.00  0.00    +0.000 A 
ATOM     20  C   UNL     1      23.600  11.979  -0.940  0.00  0.00    +0.006 A 
ATOM     21  C   UNL     1      19.186  13.975  -1.987  0.00  0.00    +0.009 A 
ATOM     22  C   UNL     1      18.619  14.590  -3.107  0.00  0.00    +0.001 A 
ATOM     23  C   UNL     1      19.358  14.759  -4.290  0.00  0.00    +0.000 A 
ATOM     24  C   UNL     1      20.678  14.315  -4.377  0.00  0.00    +0.006 A 
ATOM     25  C   UNL     1      22.607  12.633  -1.654  0.00  0.00    -0.011 A 
ENDBRANCH  11  13
ENDBRANCH   7   9
ENDBRANCH   6   7
ENDBRANCH   5   6
ENDBRANCH   1   5
BRANCH   2  26
ATOM     26  C   UNL     1      28.503  14.889  -0.627  0.00  0.00    +0.152 C 
BRANCH  26  27
ATOM     27  C   UNL     1      29.504  14.331   0.406  0.00  0.00    +0.193 C 
ATOM     28  O   UNL     1      29.709  12.939   0.076  0.00  0.00    -0.219 OA
BRANCH  27  29
ATOM     29  C   UNL     1      30.925  14.936   0.423  0.00  0.00    +0.212 C 
ATOM     30  O   UNL     1      30.900  16.262   0.975  0.00  0.00    -0.218 OA
BRANCH  29  31
ATOM     31  C   UNL     1      31.962  14.071   1.236  0.00  0.00    +0.171 C 
ATOM     32  O   UNL     1      32.260  14.629   2.512  0.00  0.00    -0.343 OA
ATOM     33  C   UNL     1      33.313  14.211   3.329  0.00  0.00    +0.220 C 
ATOM     34  C   UNL     1      34.645  14.159   2.562  0.00  0.00    +0.076 C 
ATOM     35  C   UNL     1      34.422  13.303   1.304  0.00  0.00    +0.177 C 
ATOM     36  O   UNL     1      35.637  13.189   0.577  0.00  0.00    -0.221 OA
ATOM     37  C   UNL     1      33.291  13.923   0.425  0.00  0.00    +0.155 C 
BRANCH  37  38
ATOM     38  N   UNL     1      33.081  13.116  -0.774  0.00  0.00    -0.202 NA
ATOM     39  C   UNL     1      33.180  13.464  -2.082  0.00  0.00    +0.242 C 
ATOM     40  C   UNL     1      33.200  12.367  -3.114  0.00  0.00    +0.096 C 
ATOM     41  O   UNL     1      33.251  14.651  -2.391  0.00  0.00    -0.273 OA
ENDBRANCH  37  38
BRANCH  33  42
ATOM     42  C   UNL     1      33.015  12.813   4.103  0.00  0.00    +0.391 C 
ATOM     43  O   UNL     1      34.203  12.439   4.614  0.00  0.00    -0.243 OA
ATOM     44  O   UNL     1      31.682  12.720   4.198  0.00  0.00    -0.243 OA
ENDBRANCH  33  42
ENDBRANCH  29  31
ENDBRANCH  27  29
ENDBRANCH  26  27
ENDBRANCH   2  26
TORSDOF 11
