REMARK VINA RESULT:    -6.834      1.957      3.371
REMARK INTER + INTRA:         -13.605
REMARK INTER:                 -11.854
REMARK INTRA:                  -1.751
REMARK UNBOUND:                -1.577
REMARK  Name = lig_assembled_66.pdb
REMARK  13 active torsions:
REMARK  status: ('A' for Active; 'I' for Inactive)
REMARK    1  A    between atoms: _2  and  _9
REMARK    2  A    between atoms: _6  and  _7
REMARK    3  A    between atoms: _6  and  _16
REMARK    4  A    between atoms: _9  and  _10
REMARK    5  A    between atoms: _14  and  _15
REMARK    6  A    between atoms: _16  and  _18
REMARK    7  A    between atoms: _17  and  _22
REMARK    8  A    between atoms: _18  and  _21
REMARK    9  A    between atoms: _26  and  _36
REMARK   10  A    between atoms: _28  and  _29
REMARK   11  A    between atoms: _30  and  _32
REMARK   12  A    between atoms: _32  and  _34
REMARK   13  A    between atoms: _34  and  _36
REMARK                            x       y       z     vdW  Elec       q    Type
REMARK                         _______ _______ _______ _____ _____    ______ ____
ROOT
ATOM      1  C   UNL     1      27.750  17.440  -0.924  0.00  0.00    +0.400 C 
ATOM      2  N   UNL     1      28.199  16.255  -0.391  0.00  0.00    -0.278 N 
ATOM      3  H   UNL     1      28.389  16.500   0.632  0.00  0.00    +0.152 HD
ATOM      4  O   UNL     1      27.507  18.366  -0.155  0.00  0.00    -0.226 OA
ENDROOT
BRANCH   1   5
ATOM      5  O   UNL     1      27.655  17.474  -2.213  0.00  0.00    -0.450 OA
BRANCH   5   6
ATOM      6  C   UNL     1      26.686  17.286  -3.218  0.00  0.00    +0.240 C 
BRANCH   6   7
ATOM      7  C   UNL     1      26.600  15.893  -3.870  0.00  0.00    +0.100 C 
BRANCH   7   9
ATOM      8  N   UNL     1      24.296  15.684  -2.982  0.00  0.00    -0.134 NA
ATOM      9  C   UNL     1      25.506  15.109  -3.264  0.00  0.00    +0.086 A 
ATOM     10  C   UNL     1      25.458  13.772  -2.932  0.00  0.00    +0.134 A 
ATOM     11  N   UNL     1      24.173  13.585  -2.507  0.00  0.00    -0.247 N 
ATOM     12  N   UNL     1      23.484  14.740  -2.521  0.00  0.00    -0.065 NA
BRANCH  11  13
ATOM     13  C   UNL     1      23.481  12.323  -2.326  0.00  0.00    +0.180 C 
BRANCH  13  14
ATOM     14  C   UNL     1      22.961  12.122  -0.926  0.00  0.00    -0.025 A 
ATOM     15  C   UNL     1      21.632  12.442  -0.611  0.00  0.00    +0.005 A 
ATOM     16  C   UNL     1      21.117  12.182   0.661  0.00  0.00    +0.002 A 
ATOM     17  C   UNL     1      21.931  11.616   1.641  0.00  0.00    +0.019 A 
ATOM     18  C   UNL     1      23.268  11.324   1.356  0.00  0.00    +0.052 A 
ATOM     19  C   UNL     1      23.780  11.575   0.076  0.00  0.00    +0.024 A 
BRANCH  18  20
ATOM     20  C   UNL     1      24.111  10.758   2.368  0.00  0.00    +0.099 C 
ATOM     21  N   UNL     1      24.788  10.303   3.195  0.00  0.00    -0.191 NA
ENDBRANCH  18  20
ENDBRANCH  13  14
ENDBRANCH  11  13
ENDBRANCH   7   9
ENDBRANCH   6   7
ENDBRANCH   5   6
ENDBRANCH   1   5
BRANCH   2  22
ATOM     22  C   UNL     1      28.511  14.842  -0.587  0.00  0.00    +0.152 C 
BRANCH  22  23
ATOM     23  C   UNL     1      29.388  14.183   0.497  0.00  0.00    +0.193 C 
ATOM     24  O   UNL     1      28.494  13.738   1.541  0.00  0.00    -0.219 OA
BRANCH  23  25
ATOM     25  C   UNL     1      30.181  12.916   0.104  0.00  0.00    +0.212 C 
ATOM     26  O   UNL     1      29.899  12.550  -1.257  0.00  0.00    -0.218 OA
BRANCH  25  27
ATOM     27  C   UNL     1      31.740  13.079   0.270  0.00  0.00    +0.171 C 
ATOM     28  O   UNL     1      32.447  12.842  -0.943  0.00  0.00    -0.343 OA
ATOM     29  C   UNL     1      33.832  12.680  -1.029  0.00  0.00    +0.220 C 
ATOM     30  C   UNL     1      34.348  11.638  -0.021  0.00  0.00    +0.076 C 
ATOM     31  C   UNL     1      33.829  12.043   1.369  0.00  0.00    +0.177 C 
ATOM     32  O   UNL     1      34.311  11.133   2.347  0.00  0.00    -0.221 OA
ATOM     33  C   UNL     1      32.269  12.097   1.365  0.00  0.00    +0.155 C 
BRANCH  33  34
ATOM     34  N   UNL     1      31.771  12.474   2.685  0.00  0.00    -0.202 NA
ATOM     35  C   UNL     1      30.981  11.782   3.545  0.00  0.00    +0.242 C 
ATOM     36  C   UNL     1      30.860  12.278   4.962  0.00  0.00    +0.096 C 
ATOM     37  O   UNL     1      30.390  10.778   3.153  0.00  0.00    -0.273 OA
ENDBRANCH  33  34
BRANCH  29  38
ATOM     38  C   UNL     1      34.655  14.076  -0.919  0.00  0.00    +0.391 C 
ATOM     39  O   UNL     1      35.944  13.710  -0.780  0.00  0.00    -0.243 OA
ATOM     40  O   UNL     1      33.806  15.037  -1.305  0.00  0.00    -0.243 OA
ENDBRANCH  29  38
ENDBRANCH  25  27
ENDBRANCH  23  25
ENDBRANCH  22  23
ENDBRANCH   2  22
TORSDOF 13
