REMARK VINA RESULT:    -6.512      2.756      5.608
REMARK INTER + INTRA:         -15.661
REMARK INTER:                 -12.745
REMARK INTRA:                  -2.916
REMARK UNBOUND:                -3.439
REMARK  Name = lig_assembled_84.pdb
REMARK  16 active torsions:
REMARK  status: ('A' for Active; 'I' for Inactive)
REMARK    1  A    between atoms: _2  and  _10
REMARK    2  A    between atoms: _3  and  _13
REMARK    3  A    between atoms: _4  and  _16
REMARK    4  A    between atoms: _7  and  _8
REMARK    5  A    between atoms: _7  and  _23
REMARK    6  A    between atoms: _10  and  _11
REMARK    7  A    between atoms: _11  and  _12
REMARK    8  A    between atoms: _11  and  _13
REMARK    9  A    between atoms: _23  and  _25
REMARK   10  A    between atoms: _24  and  _29
REMARK   11  A    between atoms: _25  and  _28
REMARK   12  A    between atoms: _33  and  _43
REMARK   13  A    between atoms: _35  and  _36
REMARK   14  A    between atoms: _37  and  _39
REMARK   15  A    between atoms: _39  and  _41
REMARK   16  A    between atoms: _41  and  _43
REMARK                            x       y       z     vdW  Elec       q    Type
REMARK                         _______ _______ _______ _____ _____    ______ ____
ROOT
ATOM      1  C   UNL     1      28.148  15.501  -0.879  0.00  0.00    +0.240 C 
ENDROOT
BRANCH   1   2
ATOM      2  C   UNL     1      28.415  13.996  -0.685  0.00  0.00    +0.100 C 
BRANCH   2   4
ATOM      3  N   UNL     1      28.330  14.219   1.782  0.00  0.00    -0.134 NA
ATOM      4  C   UNL     1      27.958  13.552   0.645  0.00  0.00    +0.086 A 
ATOM      5  C   UNL     1      27.181  12.469   0.994  0.00  0.00    +0.133 A 
ATOM      6  N   UNL     1      27.173  12.497   2.356  0.00  0.00    -0.251 N 
ATOM      7  N   UNL     1      27.845  13.561   2.827  0.00  0.00    -0.065 NA
BRANCH   6   8
ATOM      8  C   UNL     1      26.671  11.480   3.260  0.00  0.00    +0.149 C 
BRANCH   8   9
ATOM      9  C   UNL     1      25.932  10.324   2.566  0.00  0.00    +0.021 C 
ATOM     10  C   UNL     1      26.587   8.972   2.886  0.00  0.00    +0.010 C 
BRANCH   9  11
ATOM     11  C   UNL     1      24.445  10.270   2.993  0.00  0.00    +0.089 C 
BRANCH  11  12
ATOM     12  N   UNL     1      23.466  10.436   1.911  0.00  0.00    -0.299 NA
ATOM     13  C   UNL     1      24.158  10.819   0.651  0.00  0.00    +0.103 C 
ATOM     14  C   UNL     1      23.175  10.921  -0.533  0.00  0.00    +0.120 C 
ATOM     15  N   UNL     1      22.130  11.904  -0.224  0.00  0.00    -0.327 N 
ATOM     16  C   UNL     1      21.416  11.652   1.036  0.00  0.00    +0.120 C 
ATOM     17  C   UNL     1      22.433  11.464   2.200  0.00  0.00    +0.103 C 
BRANCH  15  18
ATOM     18  C   UNL     1      21.810  12.939  -1.071  0.00  0.00    +0.030 A 
ATOM     19  C   UNL     1      22.810  13.729  -1.670  0.00  0.00    +0.024 A 
ATOM     20  C   UNL     1      22.505  14.802  -2.514  0.00  0.00    +0.022 A 
ATOM     21  C   UNL     1      21.180  15.104  -2.785  0.00  0.00    +0.041 A 
ATOM     22 CL   UNL     1      20.796  16.427  -3.818  0.00  0.00    -0.084 Cl
ATOM     23  C   UNL     1      20.163  14.348  -2.216  0.00  0.00    +0.022 A 
ATOM     24  C   UNL     1      20.482  13.279  -1.367  0.00  0.00    +0.024 A 
ENDBRANCH  15  18
ENDBRANCH  11  12
ENDBRANCH   9  11
ENDBRANCH   8   9
ENDBRANCH   6   8
ENDBRANCH   2   4
ENDBRANCH   1   2
BRANCH   1  25
ATOM     25  O   UNL     1      29.265  16.357  -0.941  0.00  0.00    -0.450 OA
BRANCH  25  26
ATOM     26  C   UNL     1      30.146  16.878  -0.151  0.00  0.00    +0.400 C 
ATOM     27  N   UNL     1      31.360  16.235  -0.105  0.00  0.00    -0.278 N 
ATOM     28  H   UNL     1      31.982  16.919   0.431  0.00  0.00    +0.152 HD
ATOM     29  O   UNL     1      30.002  17.894   0.525  0.00  0.00    -0.226 OA
BRANCH  27  30
ATOM     30  C   UNL     1      32.158  15.058  -0.439  0.00  0.00    +0.152 C 
BRANCH  30  31
ATOM     31  C   UNL     1      31.924  13.808   0.434  0.00  0.00    +0.193 C 
ATOM     32  O   UNL     1      32.747  12.757  -0.119  0.00  0.00    -0.219 OA
BRANCH  31  33
ATOM     33  C   UNL     1      32.342  13.884   1.919  0.00  0.00    +0.212 C 
ATOM     34  O   UNL     1      31.607  14.918   2.594  0.00  0.00    -0.218 OA
BRANCH  33  35
ATOM     35  C   UNL     1      32.135  12.529   2.696  0.00  0.00    +0.171 C 
ATOM     36  O   UNL     1      30.830  12.409   3.252  0.00  0.00    -0.343 OA
ATOM     37  C   UNL     1      30.455  11.438   4.182  0.00  0.00    +0.220 C 
ATOM     38  C   UNL     1      31.433  11.377   5.369  0.00  0.00    +0.076 C 
ATOM     39  C   UNL     1      32.849  11.210   4.793  0.00  0.00    +0.177 C 
ATOM     40  O   UNL     1      33.791  11.108   5.851  0.00  0.00    -0.221 OA
ATOM     41  C   UNL     1      33.188  12.402   3.845  0.00  0.00    +0.155 C 
BRANCH  41  42
ATOM     42  N   UNL     1      34.535  12.251   3.301  0.00  0.00    -0.202 NA
ATOM     43  C   UNL     1      35.571  13.128   3.293  0.00  0.00    +0.242 C 
ATOM     44  C   UNL     1      36.941  12.614   2.932  0.00  0.00    +0.096 C 
ATOM     45  O   UNL     1      35.372  14.307   3.578  0.00  0.00    -0.273 OA
ENDBRANCH  41  42
BRANCH  37  46
ATOM     46  C   UNL     1      30.220   9.970   3.526  0.00  0.00    +0.391 C 
ATOM     47  O   UNL     1      29.795  10.214   2.272  0.00  0.00    -0.243 OA
ATOM     48  O   UNL     1      30.812   9.097   4.351  0.00  0.00    -0.243 OA
ENDBRANCH  37  46
ENDBRANCH  33  35
ENDBRANCH  31  33
ENDBRANCH  30  31
ENDBRANCH  27  30
ENDBRANCH  25  26
ENDBRANCH   1  25
TORSDOF 15
