REMARK VINA RESULT:    -6.671      2.566      3.741
REMARK INTER + INTRA:         -15.062
REMARK INTER:                 -11.415
REMARK INTRA:                  -3.646
REMARK UNBOUND:                -2.540
REMARK  Name = lig_assembled_31.pdb
REMARK  15 active torsions:
REMARK  status: ('A' for Active; 'I' for Inactive)
REMARK    1  A    between atoms: _2  and  _10
REMARK    2  A    between atoms: _3  and  _11
REMARK    3  A    between atoms: _4  and  _13
REMARK    4  A    between atoms: _7  and  _8
REMARK    5  A    between atoms: _7  and  _19
REMARK    6  A    between atoms: _10  and  _11
REMARK    7  A    between atoms: _13  and  _14
REMARK    8  A    between atoms: _19  and  _21
REMARK    9  A    between atoms: _20  and  _25
REMARK   10  A    between atoms: _21  and  _24
REMARK   11  A    between atoms: _29  and  _39
REMARK   12  A    between atoms: _31  and  _32
REMARK   13  A    between atoms: _33  and  _35
REMARK   14  A    between atoms: _35  and  _37
REMARK   15  A    between atoms: _37  and  _39
REMARK                            x       y       z     vdW  Elec       q    Type
REMARK                         _______ _______ _______ _____ _____    ______ ____
ROOT
ATOM      1  C   UNL     1      32.702  12.939  -4.409  0.00  0.00    +0.400 C 
ATOM      2  N   UNL     1      31.477  12.343  -4.226  0.00  0.00    -0.278 N 
ATOM      3  H   UNL     1      30.809  12.981  -4.764  0.00  0.00    +0.152 HD
ATOM      4  O   UNL     1      32.784  13.859  -5.219  0.00  0.00    -0.226 OA
ENDROOT
BRANCH   2   5
ATOM      5  C   UNL     1      30.699  11.248  -3.653  0.00  0.00    +0.152 C 
BRANCH   5   6
ATOM      6  C   UNL     1      30.595  11.221  -2.114  0.00  0.00    +0.193 C 
ATOM      7  O   UNL     1      31.912  10.900  -1.615  0.00  0.00    -0.219 OA
BRANCH   6   8
ATOM      8  C   UNL     1      30.222  12.538  -1.399  0.00  0.00    +0.212 C 
ATOM      9  O   UNL     1      29.729  13.501  -2.345  0.00  0.00    -0.218 OA
BRANCH   8  10
ATOM     10  C   UNL     1      29.145  12.349  -0.264  0.00  0.00    +0.171 C 
ATOM     11  O   UNL     1      29.715  12.372   1.041  0.00  0.00    -0.343 OA
ATOM     12  C   UNL     1      29.039  11.990   2.202  0.00  0.00    +0.220 C 
ATOM     13  C   UNL     1      28.374  10.611   2.049  0.00  0.00    +0.076 C 
ATOM     14  C   UNL     1      27.507  10.655   0.780  0.00  0.00    +0.177 C 
ATOM     15  O   UNL     1      26.837   9.413   0.612  0.00  0.00    -0.221 OA
ATOM     16  C   UNL     1      28.388  10.995  -0.462  0.00  0.00    +0.155 C 
BRANCH  16  17
ATOM     17  N   UNL     1      27.568  11.031  -1.671  0.00  0.00    -0.202 NA
ATOM     18  C   UNL     1      26.667  11.959  -2.081  0.00  0.00    +0.242 C 
ATOM     19  C   UNL     1      26.180  11.901  -3.506  0.00  0.00    +0.096 C 
ATOM     20  O   UNL     1      26.275  12.816  -1.292  0.00  0.00    -0.273 OA
ENDBRANCH  16  17
BRANCH  12  21
ATOM     21  C   UNL     1      27.984  13.106   2.733  0.00  0.00    +0.391 C 
ATOM     22  O   UNL     1      27.749  12.778   4.019  0.00  0.00    -0.243 OA
ATOM     23  O   UNL     1      27.981  14.079   1.814  0.00  0.00    -0.243 OA
ENDBRANCH  12  21
ENDBRANCH   8  10
ENDBRANCH   6   8
ENDBRANCH   5   6
ENDBRANCH   2   5
BRANCH   1  24
ATOM     24  O   UNL     1      33.662  12.483  -3.673  0.00  0.00    -0.450 OA
BRANCH  24  25
ATOM     25  C   UNL     1      34.868  12.925  -3.095  0.00  0.00    +0.240 C 
BRANCH  25  26
ATOM     26  C   UNL     1      34.964  12.919  -1.557  0.00  0.00    +0.100 C 
BRANCH  26  28
ATOM     27  N   UNL     1      33.388  14.825  -1.669  0.00  0.00    -0.134 NA
ATOM     28  C   UNL     1      33.905  13.766  -0.972  0.00  0.00    +0.086 A 
ATOM     29  C   UNL     1      33.282  13.686   0.253  0.00  0.00    +0.133 A 
ATOM     30  N   UNL     1      32.405  14.730   0.243  0.00  0.00    -0.250 N 
ATOM     31  N   UNL     1      32.465  15.408  -0.915  0.00  0.00    -0.065 NA
BRANCH  30  32
ATOM     32  C   UNL     1      31.490  15.141   1.288  0.00  0.00    +0.164 C 
BRANCH  32  33
ATOM     33  C   UNL     1      30.579  16.265   0.817  0.00  0.00    +0.129 C 
BRANCH  33  34
ATOM     34  N   UNL     1      29.389  15.822   0.103  0.00  0.00    -0.298 N 
ATOM     35  H   UNL     1      29.161  14.840   0.036  0.00  0.00    +0.150 HD
ATOM     36  C   UNL     1      28.832  16.669  -0.819  0.00  0.00    +0.300 C 
ATOM     37  O   UNL     1      29.234  17.818  -0.995  0.00  0.00    -0.253 OA
ATOM     38  N   UNL     1      27.780  16.144  -1.504  0.00  0.00    -0.292 N 
ATOM     39  H   UNL     1      27.478  15.187  -1.389  0.00  0.00    +0.151 HD
BRANCH  38  40
ATOM     40  C   UNL     1      27.122  16.962  -2.495  0.00  0.00    +0.180 C 
BRANCH  40  41
ATOM     41  C   UNL     1      26.232  16.190  -3.399  0.00  0.00    +0.122 A 
ATOM     42  O   UNL     1      25.035  15.736  -2.922  0.00  0.00    -0.466 OA
ATOM     43  C   UNL     1      24.431  15.071  -3.947  0.00  0.00    +0.195 A 
ATOM     44  C   UNL     1      25.223  15.090  -5.072  0.00  0.00    +0.041 A 
ATOM     45  C   UNL     1      26.386  15.810  -4.719  0.00  0.00    +0.046 A 
ENDBRANCH  40  41
ENDBRANCH  38  40
ENDBRANCH  33  34
ENDBRANCH  32  33
ENDBRANCH  30  32
ENDBRANCH  26  28
ENDBRANCH  25  26
ENDBRANCH  24  25
ENDBRANCH   1  24
TORSDOF 15
