REMARK VINA RESULT:    -6.807      3.479      8.931
REMARK INTER + INTRA:         -12.969
REMARK INTER:                 -11.196
REMARK INTRA:                  -1.773
REMARK UNBOUND:                -1.188
REMARK  Name = lig_assembled_35.pdb
REMARK  14 active torsions:
REMARK  status: ('A' for Active; 'I' for Inactive)
REMARK    1  A    between atoms: _2  and  _8
REMARK    2  A    between atoms: _4  and  _8
REMARK    3  A    between atoms: _4  and  _10
REMARK    4  A    between atoms: _5  and  _6
REMARK    5  A    between atoms: _5  and  _12
REMARK    6  A    between atoms: _8  and  _9
REMARK    7  A    between atoms: _12  and  _14
REMARK    8  A    between atoms: _13  and  _18
REMARK    9  A    between atoms: _14  and  _17
REMARK   10  A    between atoms: _22  and  _32
REMARK   11  A    between atoms: _24  and  _25
REMARK   12  A    between atoms: _26  and  _28
REMARK   13  A    between atoms: _28  and  _30
REMARK   14  A    between atoms: _30  and  _32
REMARK                            x       y       z     vdW  Elec       q    Type
REMARK                         _______ _______ _______ _____ _____    ______ ____
ROOT
ATOM      1  C   UNL     1      26.589  15.653  -2.696  0.00  0.00    +0.152 C 
ENDROOT
BRANCH   1   3
ATOM      2  C   UNL     1      27.764  17.686  -1.306  0.00  0.00    +0.400 C 
ATOM      3  N   UNL     1      26.857  16.887  -1.961  0.00  0.00    -0.278 N 
ATOM      4  H   UNL     1      25.948  17.446  -1.904  0.00  0.00    +0.152 HD
ATOM      5  O   UNL     1      27.419  18.825  -1.002  0.00  0.00    -0.226 OA
BRANCH   2   6
ATOM      6  O   UNL     1      28.905  17.137  -1.041  0.00  0.00    -0.450 OA
BRANCH   6   7
ATOM      7  C   UNL     1      29.947  17.242  -0.099  0.00  0.00    +0.240 C 
BRANCH   7   8
ATOM      8  C   UNL     1      30.975  16.096  -0.047  0.00  0.00    +0.100 C 
BRANCH   8  10
ATOM      9  N   UNL     1      31.088  14.797   2.056  0.00  0.00    -0.134 NA
ATOM     10  C   UNL     1      30.497  15.019   0.840  0.00  0.00    +0.086 A 
ATOM     11  C   UNL     1      29.479  14.109   0.663  0.00  0.00    +0.134 A 
ATOM     12  N   UNL     1      29.492  13.371   1.810  0.00  0.00    -0.238 N 
ATOM     13  N   UNL     1      30.475  13.774   2.634  0.00  0.00    -0.065 NA
BRANCH  12  14
ATOM     14  C   UNL     1      28.650  12.258   2.206  0.00  0.00    +0.214 C 
ATOM     15  C   UNL     1      29.440  11.240   3.024  0.00  0.00    +0.045 C 
BRANCH  14  16
ATOM     16  C   UNL     1      27.407  12.733   2.929  0.00  0.00    +0.329 C 
ATOM     17  O   UNL     1      27.380  13.669   3.716  0.00  0.00    -0.249 OA
BRANCH  16  18
ATOM     18  O   UNL     1      26.292  12.010   2.658  0.00  0.00    -0.479 OA
ATOM     19  H   UNL     1      26.319  11.477   1.838  0.00  0.00    +0.295 HD
ENDBRANCH  16  18
ENDBRANCH  14  16
ENDBRANCH  12  14
ENDBRANCH   8  10
ENDBRANCH   7   8
ENDBRANCH   6   7
ENDBRANCH   2   6
ENDBRANCH   1   3
BRANCH   1  20
ATOM     20  C   UNL     1      25.750  15.797  -3.982  0.00  0.00    +0.193 C 
ATOM     21  O   UNL     1      26.684  15.847  -5.083  0.00  0.00    -0.219 OA
BRANCH  20  22
ATOM     22  C   UNL     1      24.790  14.642  -4.343  0.00  0.00    +0.212 C 
ATOM     23  O   UNL     1      25.494  13.607  -5.049  0.00  0.00    -0.218 OA
BRANCH  22  24
ATOM     24  C   UNL     1      24.082  14.003  -3.088  0.00  0.00    +0.171 C 
ATOM     25  O   UNL     1      24.677  12.772  -2.691  0.00  0.00    -0.343 OA
ATOM     26  C   UNL     1      24.110  11.882  -1.776  0.00  0.00    +0.220 C 
ATOM     27  C   UNL     1      22.647  11.558  -2.127  0.00  0.00    +0.076 C 
ATOM     28  C   UNL     1      21.901  12.894  -2.278  0.00  0.00    +0.177 C 
ATOM     29  O   UNL     1      20.531  12.650  -2.564  0.00  0.00    -0.221 OA
ATOM     30  C   UNL     1      22.568  13.759  -3.392  0.00  0.00    +0.155 C 
BRANCH  30  31
ATOM     31  N   UNL     1      21.857  15.026  -3.543  0.00  0.00    -0.202 NA
ATOM     32  C   UNL     1      21.080  15.469  -4.565  0.00  0.00    +0.242 C 
ATOM     33  C   UNL     1      20.228  16.691  -4.338  0.00  0.00    +0.096 C 
ATOM     34  O   UNL     1      21.088  14.870  -5.638  0.00  0.00    -0.273 OA
ENDBRANCH  30  31
BRANCH  26  35
ATOM     35  C   UNL     1      24.261  12.358  -0.230  0.00  0.00    +0.391 C 
ATOM     36  O   UNL     1      23.161  11.887   0.388  0.00  0.00    -0.243 OA
ATOM     37  O   UNL     1      25.530  12.763  -0.090  0.00  0.00    -0.243 OA
ENDBRANCH  26  35
ENDBRANCH  22  24
ENDBRANCH  20  22
ENDBRANCH   1  20
TORSDOF 13
