REMARK VINA RESULT:    -6.605      3.003      8.595
REMARK INTER + INTRA:         -16.608
REMARK INTER:                 -13.312
REMARK INTRA:                  -3.295
REMARK UNBOUND:                -3.824
REMARK  Name = lig_assembled_81.pdb
REMARK  17 active torsions:
REMARK  status: ('A' for Active; 'I' for Inactive)
REMARK    1  A    between atoms: _2  and  _11
REMARK    2  A    between atoms: _7  and  _23
REMARK    3  A    between atoms: _8  and  _9
REMARK    4  A    between atoms: _8  and  _25
REMARK    5  A    between atoms: _13  and  _14
REMARK    6  A    between atoms: _20  and  _21
REMARK    7  A    between atoms: _21  and  _22
REMARK    8  A    between atoms: _22  and  _24
REMARK    9  A    between atoms: _23  and  _24
REMARK   10  A    between atoms: _25  and  _27
REMARK   11  A    between atoms: _26  and  _31
REMARK   12  A    between atoms: _27  and  _30
REMARK   13  A    between atoms: _35  and  _45
REMARK   14  A    between atoms: _37  and  _38
REMARK   15  A    between atoms: _39  and  _41
REMARK   16  A    between atoms: _41  and  _43
REMARK   17  A    between atoms: _43  and  _45
REMARK                            x       y       z     vdW  Elec       q    Type
REMARK                         _______ _______ _______ _____ _____    ______ ____
ROOT
ATOM      1  C   UNL     1      27.239  17.467  -1.495  0.00  0.00    +0.096 C 
ENDROOT
BRANCH   1   3
ATOM      2  N   UNL     1      29.533  17.683  -0.657  0.00  0.00    -0.133 NA
ATOM      3  C   UNL     1      28.438  16.896  -0.849  0.00  0.00    +0.066 C 
ATOM      4  C   UNL     1      28.720  15.625  -0.385  0.00  0.00    +0.120 C 
ATOM      5  N   UNL     1      29.969  15.738   0.211  0.00  0.00    -0.187 N 
ATOM      6  N   UNL     1      30.490  16.930  -0.143  0.00  0.00    -0.010 NA
BRANCH   5   7
ATOM      7  C   UNL     1      30.714  14.724   0.900  0.00  0.00    +0.150 A 
ATOM      8  C   UNL     1      30.257  13.975   2.015  0.00  0.00    +0.022 A 
ATOM      9  C   UNL     1      31.241  13.098   2.542  0.00  0.00    +0.081 A 
ATOM     10  N   UNL     1      32.510  13.066   2.047  0.00  0.00    -0.214 NA
ATOM     11  C   UNL     1      32.825  13.834   1.018  0.00  0.00    +0.215 A 
ATOM     12  N   UNL     1      34.132  13.853   0.594  0.00  0.00    -0.327 N 
ATOM     13  H   UNL     1      34.621  13.017   0.878  0.00  0.00    +0.145 HD
ATOM     14  H   UNL     1      34.211  14.164  -0.362  0.00  0.00    +0.145 HD
ATOM     15  N   UNL     1      31.960  14.587   0.369  0.00  0.00    -0.198 NA
BRANCH   9  16
ATOM     16  C   UNL     1      31.100  12.120   3.687  0.00  0.00    +0.001 A 
ATOM     17  C   UNL     1      31.381  12.408   5.035  0.00  0.00    +0.010 A 
ATOM     18  C   UNL     1      31.218  11.459   6.058  0.00  0.00    +0.001 A 
ATOM     19  C   UNL     1      30.709  10.204   5.780  0.00  0.00    +0.000 A 
ATOM     20  C   UNL     1      30.363   9.890   4.468  0.00  0.00    +0.001 A 
ATOM     21  C   UNL     1      30.570  10.829   3.448  0.00  0.00    +0.010 A 
ENDBRANCH   9  16
BRANCH   8  22
ATOM     22  C   UNL     1      28.851  13.922   2.617  0.00  0.00    +0.069 C 
BRANCH  22  23
ATOM     23  C   UNL     1      27.799  12.973   2.077  0.00  0.00    +0.164 C 
BRANCH  23  24
ATOM     24  O   UNL     1      26.624  12.804   2.877  0.00  0.00    -0.380 OA
BRANCH  24  25
ATOM     25  C   UNL     1      26.043  11.546   2.479  0.00  0.00    +0.156 C 
ATOM     26  C   UNL     1      26.699  10.381   3.181  0.00  0.00    +0.034 C 
ENDBRANCH  24  25
ENDBRANCH  23  24
ENDBRANCH  22  23
ENDBRANCH   8  22
ENDBRANCH   5   7
ENDBRANCH   1   3
BRANCH   1  27
ATOM     27  C   UNL     1      27.468  17.614  -3.012  0.00  0.00    +0.240 C 
BRANCH  27  28
ATOM     28  O   UNL     1      26.405  17.263  -3.867  0.00  0.00    -0.450 OA
BRANCH  28  29
ATOM     29  C   UNL     1      25.927  16.218  -4.458  0.00  0.00    +0.400 C 
ATOM     30  N   UNL     1      24.737  15.743  -3.958  0.00  0.00    -0.278 N 
ATOM     31  H   UNL     1      24.429  15.028  -4.690  0.00  0.00    +0.152 HD
ATOM     32  O   UNL     1      26.419  15.644  -5.426  0.00  0.00    -0.226 OA
BRANCH  30  33
ATOM     33  C   UNL     1      23.737  15.767  -2.894  0.00  0.00    +0.152 C 
BRANCH  33  34
ATOM     34  C   UNL     1      22.480  14.902  -3.123  0.00  0.00    +0.193 C 
ATOM     35  O   UNL     1      22.332  14.755  -4.553  0.00  0.00    -0.219 OA
BRANCH  34  36
ATOM     36  C   UNL     1      22.503  13.453  -2.588  0.00  0.00    +0.212 C 
ATOM     37  O   UNL     1      21.950  12.550  -3.560  0.00  0.00    -0.218 OA
BRANCH  36  38
ATOM     38  C   UNL     1      23.947  12.953  -2.199  0.00  0.00    +0.171 C 
ATOM     39  O   UNL     1      24.770  12.719  -3.337  0.00  0.00    -0.343 OA
ATOM     40  C   UNL     1      25.995  12.050  -3.299  0.00  0.00    +0.220 C 
ATOM     41  C   UNL     1      25.887  10.702  -2.564  0.00  0.00    +0.076 C 
ATOM     42  C   UNL     1      25.255  10.975  -1.189  0.00  0.00    +0.177 C 
ATOM     43  O   UNL     1      25.168   9.765  -0.450  0.00  0.00    -0.221 OA
ATOM     44  C   UNL     1      23.852  11.635  -1.363  0.00  0.00    +0.155 C 
BRANCH  44  45
ATOM     45  N   UNL     1      23.245  11.890  -0.059  0.00  0.00    -0.202 NA
ATOM     46  C   UNL     1      22.130  11.354   0.499  0.00  0.00    +0.242 C 
ATOM     47  C   UNL     1      21.892  11.570   1.971  0.00  0.00    +0.096 C 
ATOM     48  O   UNL     1      21.349  10.712  -0.201  0.00  0.00    -0.273 OA
ENDBRANCH  44  45
BRANCH  40  49
ATOM     49  C   UNL     1      27.209  12.955  -2.710  0.00  0.00    +0.391 C 
ATOM     50  O   UNL     1      26.609  14.039  -2.182  0.00  0.00    -0.243 OA
ATOM     51  O   UNL     1      28.289  12.163  -2.699  0.00  0.00    -0.243 OA
ENDBRANCH  40  49
ENDBRANCH  36  38
ENDBRANCH  34  36
ENDBRANCH  33  34
ENDBRANCH  30  33
ENDBRANCH  28  29
ENDBRANCH  27  28
ENDBRANCH   1  27
TORSDOF 16
