REMARK VINA RESULT:    -6.634      3.888      8.527
REMARK INTER + INTRA:         -13.162
REMARK INTER:                 -11.141
REMARK INTRA:                  -2.021
REMARK UNBOUND:                -1.681
REMARK  Name = lig_assembled_59.pdb
REMARK  13 active torsions:
REMARK  status: ('A' for Active; 'I' for Inactive)
REMARK    1  A    between atoms: _2  and  _9
REMARK    2  A    between atoms: _6  and  _7
REMARK    3  A    between atoms: _6  and  _15
REMARK    4  A    between atoms: _12  and  _13
REMARK    5  A    between atoms: _13  and  _14
REMARK    6  A    between atoms: _15  and  _17
REMARK    7  A    between atoms: _16  and  _21
REMARK    8  A    between atoms: _17  and  _20
REMARK    9  A    between atoms: _25  and  _35
REMARK   10  A    between atoms: _27  and  _28
REMARK   11  A    between atoms: _29  and  _31
REMARK   12  A    between atoms: _31  and  _33
REMARK   13  A    between atoms: _33  and  _35
REMARK                            x       y       z     vdW  Elec       q    Type
REMARK                         _______ _______ _______ _____ _____    ______ ____
ROOT
ATOM      1  C   UNL     1      27.721  17.718  -1.496  0.00  0.00    +0.400 C 
ATOM      2  N   UNL     1      26.836  16.925  -2.188  0.00  0.00    -0.278 N 
ATOM      3  H   UNL     1      25.978  17.553  -2.302  0.00  0.00    +0.152 HD
ATOM      4  O   UNL     1      27.441  18.905  -1.347  0.00  0.00    -0.226 OA
ENDROOT
BRANCH   1   5
ATOM      5  O   UNL     1      28.768  17.117  -1.035  0.00  0.00    -0.450 OA
BRANCH   5   6
ATOM      6  C   UNL     1      29.868  17.381  -0.196  0.00  0.00    +0.240 C 
BRANCH   6   7
ATOM      7  C   UNL     1      30.914  16.263  -0.021  0.00  0.00    +0.100 C 
BRANCH   7   9
ATOM      8  N   UNL     1      31.029  14.812   1.976  0.00  0.00    -0.134 NA
ATOM      9  C   UNL     1      30.376  15.190   0.836  0.00  0.00    +0.087 A 
ATOM     10  C   UNL     1      29.243  14.426   0.691  0.00  0.00    +0.141 A 
ATOM     11  N   UNL     1      29.243  13.584   1.780  0.00  0.00    -0.202 N 
ATOM     12  N   UNL     1      30.333  13.838   2.549  0.00  0.00    -0.059 NA
BRANCH  11  13
ATOM     13  C   UNL     1      28.289  12.579   2.095  0.00  0.00    +0.156 A 
ATOM     14  C   UNL     1      28.532  11.266   1.698  0.00  0.00    +0.048 A 
ATOM     15  C   UNL     1      27.571  10.294   1.972  0.00  0.00    +0.011 A 
ATOM     16  C   UNL     1      26.396  10.643   2.642  0.00  0.00    -0.004 A 
ATOM     17  C   UNL     1      26.241  11.978   3.001  0.00  0.00    +0.119 A 
ATOM     18  N   UNL     1      27.156  12.947   2.755  0.00  0.00    -0.236 NA
BRANCH  16  19
ATOM     19  C   UNL     1      25.310   9.632   2.865  0.00  0.00    +0.192 C 
BRANCH  19  20
ATOM     20  O   UNL     1      24.731   9.214   1.638  0.00  0.00    -0.390 OA
ATOM     21  H   UNL     1      24.097   8.508   1.850  0.00  0.00    +0.210 HD
ENDBRANCH  19  20
ENDBRANCH  16  19
ENDBRANCH  11  13
ENDBRANCH   7   9
ENDBRANCH   6   7
ENDBRANCH   5   6
ENDBRANCH   1   5
BRANCH   2  22
ATOM     22  C   UNL     1      26.554  15.645  -2.834  0.00  0.00    +0.152 C 
BRANCH  22  23
ATOM     23  C   UNL     1      25.594  15.690  -4.040  0.00  0.00    +0.193 C 
ATOM     24  O   UNL     1      26.415  15.855  -5.218  0.00  0.00    -0.219 OA
BRANCH  23  25
ATOM     25  C   UNL     1      24.752  14.428  -4.331  0.00  0.00    +0.212 C 
ATOM     26  O   UNL     1      25.546  13.439  -5.006  0.00  0.00    -0.218 OA
BRANCH  25  27
ATOM     27  C   UNL     1      24.133  13.778  -3.035  0.00  0.00    +0.171 C 
ATOM     28  O   UNL     1      24.723  12.522  -2.717  0.00  0.00    -0.343 OA
ATOM     29  C   UNL     1      24.209  11.626  -1.777  0.00  0.00    +0.220 C 
ATOM     30  C   UNL     1      22.713  11.349  -2.011  0.00  0.00    +0.076 C 
ATOM     31  C   UNL     1      21.996  12.708  -2.069  0.00  0.00    +0.177 C 
ATOM     32  O   UNL     1      20.600  12.509  -2.245  0.00  0.00    -0.221 OA
ATOM     33  C   UNL     1      22.592  13.582  -3.216  0.00  0.00    +0.155 C 
BRANCH  33  34
ATOM     34  N   UNL     1      21.908  14.871  -3.279  0.00  0.00    -0.202 NA
ATOM     35  C   UNL     1      21.172  15.415  -4.282  0.00  0.00    +0.242 C 
ATOM     36  C   UNL     1      20.334  16.629  -3.977  0.00  0.00    +0.096 C 
ATOM     37  O   UNL     1      21.205  14.910  -5.402  0.00  0.00    -0.273 OA
ENDBRANCH  33  34
BRANCH  29  38
ATOM     38  C   UNL     1      24.502  12.060  -0.240  0.00  0.00    +0.391 C 
ATOM     39  O   UNL     1      25.570  12.879  -0.308  0.00  0.00    -0.243 OA
ATOM     40  O   UNL     1      23.420  11.698   0.460  0.00  0.00    -0.243 OA
ENDBRANCH  29  38
ENDBRANCH  25  27
ENDBRANCH  23  25
ENDBRANCH  22  23
ENDBRANCH   2  22
TORSDOF 13
