REMARK VINA RESULT:    -7.349      1.613      2.325
REMARK INTER + INTRA:         -14.401
REMARK INTER:                 -12.191
REMARK INTRA:                  -2.210
REMARK UNBOUND:                -1.681
REMARK  Name = lig_assembled_59.pdb
REMARK  13 active torsions:
REMARK  status: ('A' for Active; 'I' for Inactive)
REMARK    1  A    between atoms: _2  and  _9
REMARK    2  A    between atoms: _6  and  _7
REMARK    3  A    between atoms: _6  and  _15
REMARK    4  A    between atoms: _12  and  _13
REMARK    5  A    between atoms: _13  and  _14
REMARK    6  A    between atoms: _15  and  _17
REMARK    7  A    between atoms: _16  and  _21
REMARK    8  A    between atoms: _17  and  _20
REMARK    9  A    between atoms: _25  and  _35
REMARK   10  A    between atoms: _27  and  _28
REMARK   11  A    between atoms: _29  and  _31
REMARK   12  A    between atoms: _31  and  _33
REMARK   13  A    between atoms: _33  and  _35
REMARK                            x       y       z     vdW  Elec       q    Type
REMARK                         _______ _______ _______ _____ _____    ______ ____
ROOT
ATOM      1  C   UNL     1      28.152  16.833  -0.852  0.00  0.00    +0.400 C 
ATOM      2  N   UNL     1      28.358  15.584  -0.316  0.00  0.00    -0.278 N 
ATOM      3  H   UNL     1      28.712  15.793   0.670  0.00  0.00    +0.152 HD
ATOM      4  O   UNL     1      28.225  17.804  -0.103  0.00  0.00    -0.226 OA
ENDROOT
BRANCH   1   5
ATOM      5  O   UNL     1      27.927  16.866  -2.125  0.00  0.00    -0.450 OA
BRANCH   5   6
ATOM      6  C   UNL     1      26.942  17.318  -3.024  0.00  0.00    +0.240 C 
BRANCH   6   7
ATOM      7  C   UNL     1      26.306  16.277  -3.965  0.00  0.00    +0.100 C 
BRANCH   7   9
ATOM      8  N   UNL     1      23.923  15.821  -3.489  0.00  0.00    -0.134 NA
ATOM      9  C   UNL     1      25.241  15.536  -3.261  0.00  0.00    +0.087 A 
ATOM     10  C   UNL     1      25.330  14.524  -2.336  0.00  0.00    +0.141 A 
ATOM     11  N   UNL     1      24.025  14.218  -2.021  0.00  0.00    -0.202 N 
ATOM     12  N   UNL     1      23.189  15.014  -2.735  0.00  0.00    -0.059 NA
BRANCH  11  13
ATOM     13  C   UNL     1      23.566  13.244  -1.094  0.00  0.00    +0.156 A 
ATOM     14  C   UNL     1      22.195  13.087  -0.900  0.00  0.00    +0.048 A 
ATOM     15  C   UNL     1      21.753  12.159   0.042  0.00  0.00    +0.011 A 
ATOM     16  C   UNL     1      22.679  11.403   0.765  0.00  0.00    -0.004 A 
ATOM     17  C   UNL     1      24.027  11.627   0.503  0.00  0.00    +0.119 A 
ATOM     18  N   UNL     1      24.491  12.516  -0.409  0.00  0.00    -0.236 NA
BRANCH  16  19
ATOM     19  C   UNL     1      22.228  10.467   1.847  0.00  0.00    +0.192 C 
BRANCH  19  20
ATOM     20  O   UNL     1      21.548  11.161   2.882  0.00  0.00    -0.390 OA
ATOM     21  H   UNL     1      21.170  11.964   2.483  0.00  0.00    +0.210 HD
ENDBRANCH  19  20
ENDBRANCH  16  19
ENDBRANCH  11  13
ENDBRANCH   7   9
ENDBRANCH   6   7
ENDBRANCH   5   6
ENDBRANCH   1   5
BRANCH   2  22
ATOM     22  C   UNL     1      28.298  14.134  -0.481  0.00  0.00    +0.152 C 
BRANCH  22  23
ATOM     23  C   UNL     1      28.085  13.312   0.807  0.00  0.00    +0.193 C 
ATOM     24  O   UNL     1      28.713  12.029   0.589  0.00  0.00    -0.219 OA
BRANCH  23  25
ATOM     25  C   UNL     1      28.730  13.840   2.107  0.00  0.00    +0.212 C 
ATOM     26  O   UNL     1      27.736  14.000   3.132  0.00  0.00    -0.218 OA
BRANCH  25  27
ATOM     27  C   UNL     1      29.877  12.910   2.658  0.00  0.00    +0.171 C 
ATOM     28  O   UNL     1      29.650  12.498   4.002  0.00  0.00    -0.343 OA
ATOM     29  C   UNL     1      30.607  11.880   4.810  0.00  0.00    +0.220 C 
ATOM     30  C   UNL     1      31.934  12.659   4.819  0.00  0.00    +0.076 C 
ATOM     31  C   UNL     1      32.358  12.867   3.356  0.00  0.00    +0.177 C 
ATOM     32  O   UNL     1      33.604  13.549   3.307  0.00  0.00    -0.221 OA
ATOM     33  C   UNL     1      31.253  13.650   2.582  0.00  0.00    +0.155 C 
BRANCH  33  34
ATOM     34  N   UNL     1      31.655  13.855   1.193  0.00  0.00    -0.202 NA
ATOM     35  C   UNL     1      31.705  14.999   0.464  0.00  0.00    +0.242 C 
ATOM     36  C   UNL     1      32.436  14.978  -0.853  0.00  0.00    +0.096 C 
ATOM     37  O   UNL     1      31.160  16.016   0.891  0.00  0.00    -0.273 OA
ENDBRANCH  33  34
BRANCH  29  38
ATOM     38  C   UNL     1      30.838  10.311   4.456  0.00  0.00    +0.391 C 
ATOM     39  O   UNL     1      31.987   9.980   5.076  0.00  0.00    -0.243 OA
ATOM     40  O   UNL     1      29.678   9.872   3.951  0.00  0.00    -0.243 OA
ENDBRANCH  29  38
ENDBRANCH  25  27
ENDBRANCH  23  25
ENDBRANCH  22  23
ENDBRANCH   2  22
TORSDOF 13
