REMARK VINA RESULT:    -6.454      3.882      9.772
REMARK INTER + INTRA:         -13.667
REMARK INTER:                 -11.005
REMARK INTRA:                  -2.662
REMARK UNBOUND:                -1.931
REMARK  Name = lig_assembled_55.pdb
REMARK  15 active torsions:
REMARK  status: ('A' for Active; 'I' for Inactive)
REMARK    1  A    between atoms: _2  and  _9
REMARK    2  A    between atoms: _3  and  _10
REMARK    3  A    between atoms: _3  and  _41
REMARK    4  A    between atoms: _5  and  _41
REMARK    5  A    between atoms: _6  and  _7
REMARK    6  A    between atoms: _6  and  _13
REMARK    7  A    between atoms: _9  and  _10
REMARK    8  A    between atoms: _13  and  _15
REMARK    9  A    between atoms: _14  and  _19
REMARK   10  A    between atoms: _15  and  _18
REMARK   11  A    between atoms: _23  and  _33
REMARK   12  A    between atoms: _25  and  _26
REMARK   13  A    between atoms: _27  and  _29
REMARK   14  A    between atoms: _29  and  _31
REMARK   15  A    between atoms: _31  and  _33
REMARK                            x       y       z     vdW  Elec       q    Type
REMARK                         _______ _______ _______ _____ _____    ______ ____
ROOT
ATOM      1  C   UNL     1      28.095  17.441  -0.808  0.00  0.00    +0.400 C 
ATOM      2  N   UNL     1      27.233  16.794  -1.662  0.00  0.00    -0.278 N 
ATOM      3  H   UNL     1      26.273  17.158  -1.367  0.00  0.00    +0.152 HD
ATOM      4  O   UNL     1      27.645  18.341  -0.103  0.00  0.00    -0.226 OA
ENDROOT
BRANCH   2   5
ATOM      5  C   UNL     1      27.048  15.865  -2.774  0.00  0.00    +0.152 C 
BRANCH   5   6
ATOM      6  C   UNL     1      25.613  15.343  -2.991  0.00  0.00    +0.193 C 
ATOM      7  O   UNL     1      25.288  15.582  -4.378  0.00  0.00    -0.219 OA
BRANCH   6   8
ATOM      8  C   UNL     1      25.365  13.831  -2.792  0.00  0.00    +0.212 C 
ATOM      9  O   UNL     1      26.221  13.065  -3.655  0.00  0.00    -0.218 OA
BRANCH   8  10
ATOM     10  C   UNL     1      25.586  13.352  -1.307  0.00  0.00    +0.171 C 
ATOM     11  O   UNL     1      26.836  12.694  -1.124  0.00  0.00    -0.343 OA
ATOM     12  C   UNL     1      27.183  11.963   0.014  0.00  0.00    +0.220 C 
ATOM     13  C   UNL     1      26.099  10.935   0.384  0.00  0.00    +0.076 C 
ATOM     14  C   UNL     1      24.762  11.688   0.481  0.00  0.00    +0.177 C 
ATOM     15  O   UNL     1      23.729  10.789   0.861  0.00  0.00    -0.221 OA
ATOM     16  C   UNL     1      24.437  12.382  -0.878  0.00  0.00    +0.155 C 
BRANCH  16  17
ATOM     17  N   UNL     1      23.163  13.093  -0.793  0.00  0.00    -0.202 NA
ATOM     18  C   UNL     1      21.980  12.830  -1.404  0.00  0.00    +0.242 C 
ATOM     19  C   UNL     1      20.747  13.544  -0.914  0.00  0.00    +0.096 C 
ATOM     20  O   UNL     1      21.942  12.025  -2.332  0.00  0.00    -0.273 OA
ENDBRANCH  16  17
BRANCH  12  21
ATOM     21  C   UNL     1      27.581  12.894   1.284  0.00  0.00    +0.391 C 
ATOM     22  O   UNL     1      27.650  12.046   2.329  0.00  0.00    -0.243 OA
ATOM     23  O   UNL     1      27.980  14.065   0.774  0.00  0.00    -0.243 OA
ENDBRANCH  12  21
ENDBRANCH   8  10
ENDBRANCH   6   8
ENDBRANCH   5   6
ENDBRANCH   2   5
BRANCH   1  24
ATOM     24  O   UNL     1      29.314  17.010  -0.809  0.00  0.00    -0.450 OA
BRANCH  24  25
ATOM     25  C   UNL     1      30.413  16.912   0.066  0.00  0.00    +0.240 C 
BRANCH  25  26
ATOM     26  C   UNL     1      31.465  15.828  -0.233  0.00  0.00    +0.100 C 
BRANCH  26  28
ATOM     27  N   UNL     1      31.415  13.415   0.304  0.00  0.00    -0.134 NA
ATOM     28  C   UNL     1      31.346  14.716   0.728  0.00  0.00    +0.086 A 
ATOM     29  C   UNL     1      31.163  14.736   2.093  0.00  0.00    +0.133 A 
ATOM     30  N   UNL     1      31.107  13.418   2.437  0.00  0.00    -0.250 N 
ATOM     31  N   UNL     1      31.261  12.628   1.359  0.00  0.00    -0.065 NA
BRANCH  30  32
ATOM     32  C   UNL     1      30.940  12.843   3.754  0.00  0.00    +0.162 C 
BRANCH  32  33
ATOM     33  C   UNL     1      32.255  12.418   4.415  0.00  0.00    +0.129 C 
BRANCH  33  34
ATOM     34  N   UNL     1      33.345  12.113   3.441  0.00  0.00    -0.193 NA
ATOM     35  H   UNL     1      32.954  11.935   2.509  0.00  0.00    +0.148 HD
BRANCH  34  36
ATOM     36  S   UNL     1      34.640  13.191   3.416  0.00  0.00    +0.027 S 
ATOM     37  O   UNL     1      35.812  12.445   3.817  0.00  0.00    -0.158 OA
ATOM     38  O   UNL     1      34.595  13.900   2.157  0.00  0.00    -0.158 OA
ATOM     39  C   UNL     1      34.206  14.301   4.735  0.00  0.00    +0.214 C 
ENDBRANCH  34  36
ENDBRANCH  33  34
ENDBRANCH  32  33
ENDBRANCH  30  32
ENDBRANCH  26  28
ENDBRANCH  25  26
ENDBRANCH  24  25
ENDBRANCH   1  24
TORSDOF 14
