REMARK VINA RESULT:    -6.292      1.867      2.752
REMARK INTER + INTRA:         -12.601
REMARK INTER:                 -10.887
REMARK INTRA:                  -1.713
REMARK UNBOUND:                -2.263
REMARK  Name = lig_assembled_52.pdb
REMARK  11 active torsions:
REMARK  status: ('A' for Active; 'I' for Inactive)
REMARK    1  A    between atoms: _2  and  _9
REMARK    2  A    between atoms: _6  and  _7
REMARK    3  A    between atoms: _6  and  _13
REMARK    4  A    between atoms: _13  and  _15
REMARK    5  A    between atoms: _14  and  _19
REMARK    6  A    between atoms: _15  and  _18
REMARK    7  A    between atoms: _23  and  _33
REMARK    8  A    between atoms: _25  and  _26
REMARK    9  A    between atoms: _27  and  _29
REMARK   10  A    between atoms: _29  and  _31
REMARK   11  A    between atoms: _31  and  _33
REMARK                            x       y       z     vdW  Elec       q    Type
REMARK                         _______ _______ _______ _____ _____    ______ ____
ROOT
ATOM      1  C   UNL     1      26.649  14.374  -2.002  0.00  0.00    +0.152 C 
ENDROOT
BRANCH   1   3
ATOM      2  C   UNL     1      26.529  16.484  -3.728  0.00  0.00    +0.400 C 
ATOM      3  N   UNL     1      26.906  15.612  -2.734  0.00  0.00    -0.278 N 
ATOM      4  H   UNL     1      27.773  16.074  -2.314  0.00  0.00    +0.152 HD
ATOM      5  O   UNL     1      27.091  17.575  -3.785  0.00  0.00    -0.226 OA
BRANCH   2   6
ATOM      6  O   UNL     1      25.624  16.048  -4.542  0.00  0.00    -0.450 OA
BRANCH   6   7
ATOM      7  C   UNL     1      25.348  14.907  -5.321  0.00  0.00    +0.240 C 
BRANCH   7   8
ATOM      8  C   UNL     1      23.897  14.387  -5.330  0.00  0.00    +0.100 C 
BRANCH   8  10
ATOM      9  N   UNL     1      22.667  15.102  -3.306  0.00  0.00    -0.134 NA
ATOM     10  C   UNL     1      23.424  14.167  -3.951  0.00  0.00    +0.086 A 
ATOM     11  C   UNL     1      23.617  13.092  -3.114  0.00  0.00    +0.140 A 
ATOM     12  N   UNL     1      22.933  13.410  -1.962  0.00  0.00    -0.218 N 
ATOM     13  N   UNL     1      22.377  14.638  -2.099  0.00  0.00    -0.060 NA
BRANCH  12  14
ATOM     14  C   UNL     1      22.773  12.641  -0.791  0.00  0.00    +0.085 A 
ATOM     15  C   UNL     1      21.517  12.405  -0.225  0.00  0.00    +0.031 A 
ATOM     16  C   UNL     1      21.427  11.656   0.946  0.00  0.00    +0.022 A 
ATOM     17  C   UNL     1      22.594  11.168   1.510  0.00  0.00    +0.111 A 
ATOM     18  N   UNL     1      23.820  11.372   0.985  0.00  0.00    -0.261 NA
ATOM     19  C   UNL     1      23.887  12.104  -0.155  0.00  0.00    +0.138 A 
ENDBRANCH  12  14
ENDBRANCH   8  10
ENDBRANCH   7   8
ENDBRANCH   6   7
ENDBRANCH   2   6
ENDBRANCH   1   3
BRANCH   1  20
ATOM     20  C   UNL     1      27.888  13.653  -1.432  0.00  0.00    +0.193 C 
ATOM     21  O   UNL     1      28.437  12.858  -2.506  0.00  0.00    -0.219 OA
BRANCH  20  22
ATOM     22  C   UNL     1      29.070  14.528  -0.958  0.00  0.00    +0.212 C 
ATOM     23  O   UNL     1      28.592  15.786  -0.455  0.00  0.00    -0.218 OA
BRANCH  22  24
ATOM     24  C   UNL     1      29.948  13.841   0.156  0.00  0.00    +0.171 C 
ATOM     25  O   UNL     1      29.787  14.448   1.434  0.00  0.00    -0.343 OA
ATOM     26  C   UNL     1      30.614  14.204   2.533  0.00  0.00    +0.220 C 
ATOM     27  C   UNL     1      32.102  14.354   2.172  0.00  0.00    +0.076 C 
ATOM     28  C   UNL     1      32.373  13.464   0.947  0.00  0.00    +0.177 C 
ATOM     29  O   UNL     1      33.747  13.534   0.595  0.00  0.00    -0.221 OA
ATOM     30  C   UNL     1      31.459  13.894  -0.243  0.00  0.00    +0.155 C 
BRANCH  30  31
ATOM     31  N   UNL     1      31.719  13.055  -1.410  0.00  0.00    -0.202 NA
ATOM     32  C   UNL     1      32.551  13.265  -2.462  0.00  0.00    +0.242 C 
ATOM     33  C   UNL     1      32.850  12.108  -3.379  0.00  0.00    +0.096 C 
ATOM     34  O   UNL     1      33.037  14.380  -2.639  0.00  0.00    -0.273 OA
ENDBRANCH  30  31
BRANCH  26  35
ATOM     35  C   UNL     1      30.317  12.783   3.263  0.00  0.00    +0.391 C 
ATOM     36  O   UNL     1      31.394  12.560   4.040  0.00  0.00    -0.243 OA
ATOM     37  O   UNL     1      29.018  12.527   3.059  0.00  0.00    -0.243 OA
ENDBRANCH  26  35
ENDBRANCH  22  24
ENDBRANCH  20  22
ENDBRANCH   1  20
TORSDOF 11
