REMARK VINA RESULT:    -6.916      1.851      3.264
REMARK INTER + INTRA:         -13.650
REMARK INTER:                 -11.721
REMARK INTRA:                  -1.929
REMARK UNBOUND:                -1.681
REMARK  Name = lig_assembled_59.pdb
REMARK  13 active torsions:
REMARK  status: ('A' for Active; 'I' for Inactive)
REMARK    1  A    between atoms: _2  and  _9
REMARK    2  A    between atoms: _6  and  _7
REMARK    3  A    between atoms: _6  and  _15
REMARK    4  A    between atoms: _12  and  _13
REMARK    5  A    between atoms: _13  and  _14
REMARK    6  A    between atoms: _15  and  _17
REMARK    7  A    between atoms: _16  and  _21
REMARK    8  A    between atoms: _17  and  _20
REMARK    9  A    between atoms: _25  and  _35
REMARK   10  A    between atoms: _27  and  _28
REMARK   11  A    between atoms: _29  and  _31
REMARK   12  A    between atoms: _31  and  _33
REMARK   13  A    between atoms: _33  and  _35
REMARK                            x       y       z     vdW  Elec       q    Type
REMARK                         _______ _______ _______ _____ _____    ______ ____
ROOT
ATOM      1  C   UNL     1      27.814  17.446  -1.121  0.00  0.00    +0.400 C 
ATOM      2  N   UNL     1      28.374  16.453  -0.352  0.00  0.00    -0.278 N 
ATOM      3  H   UNL     1      28.551  16.936   0.585  0.00  0.00    +0.152 HD
ATOM      4  O   UNL     1      27.494  18.496  -0.569  0.00  0.00    -0.226 OA
ENDROOT
BRANCH   1   5
ATOM      5  O   UNL     1      27.704  17.183  -2.382  0.00  0.00    -0.450 OA
BRANCH   5   6
ATOM      6  C   UNL     1      26.796  17.384  -3.440  0.00  0.00    +0.240 C 
BRANCH   6   7
ATOM      7  C   UNL     1      26.403  16.155  -4.283  0.00  0.00    +0.100 C 
BRANCH   7   9
ATOM      8  N   UNL     1      26.919  13.905  -3.398  0.00  0.00    -0.134 NA
ATOM      9  C   UNL     1      26.108  15.006  -3.405  0.00  0.00    +0.087 A 
ATOM     10  C   UNL     1      25.079  14.814  -2.514  0.00  0.00    +0.141 A 
ATOM     11  N   UNL     1      25.304  13.566  -1.979  0.00  0.00    -0.202 N 
ATOM     12  N   UNL     1      26.427  13.035  -2.526  0.00  0.00    -0.059 NA
BRANCH  11  13
ATOM     13  C   UNL     1      24.514  12.885  -1.015  0.00  0.00    +0.156 A 
ATOM     14  C   UNL     1      25.148  12.145  -0.019  0.00  0.00    +0.048 A 
ATOM     15  C   UNL     1      24.366  11.444   0.897  0.00  0.00    +0.011 A 
ATOM     16  C   UNL     1      22.973  11.499   0.812  0.00  0.00    -0.004 A 
ATOM     17  C   UNL     1      22.428  12.265  -0.214  0.00  0.00    +0.119 A 
ATOM     18  N   UNL     1      23.158  12.962  -1.118  0.00  0.00    -0.236 NA
BRANCH  16  19
ATOM     19  C   UNL     1      22.114  10.680   1.730  0.00  0.00    +0.192 C 
BRANCH  19  20
ATOM     20  O   UNL     1      21.481  11.492   2.707  0.00  0.00    -0.390 OA
ATOM     21  H   UNL     1      21.623  12.417   2.442  0.00  0.00    +0.210 HD
ENDBRANCH  19  20
ENDBRANCH  16  19
ENDBRANCH  11  13
ENDBRANCH   7   9
ENDBRANCH   6   7
ENDBRANCH   5   6
ENDBRANCH   1   5
BRANCH   2  22
ATOM     22  C   UNL     1      28.813  15.065  -0.240  0.00  0.00    +0.152 C 
BRANCH  22  23
ATOM     23  C   UNL     1      30.334  14.840  -0.119  0.00  0.00    +0.193 C 
ATOM     24  O   UNL     1      30.814  15.772   0.875  0.00  0.00    -0.219 OA
BRANCH  23  25
ATOM     25  C   UNL     1      30.816  13.461   0.382  0.00  0.00    +0.212 C 
ATOM     26  O   UNL     1      31.788  12.910  -0.522  0.00  0.00    -0.218 OA
BRANCH  25  27
ATOM     27  C   UNL     1      31.442  13.505   1.828  0.00  0.00    +0.171 C 
ATOM     28  O   UNL     1      32.842  13.248   1.827  0.00  0.00    -0.343 OA
ATOM     29  C   UNL     1      33.596  12.988   2.974  0.00  0.00    +0.220 C 
ATOM     30  C   UNL     1      32.959  11.886   3.838  0.00  0.00    +0.076 C 
ATOM     31  C   UNL     1      31.499  12.292   4.102  0.00  0.00    +0.177 C 
ATOM     32  O   UNL     1      30.873  11.325   4.933  0.00  0.00    -0.221 OA
ATOM     33  C   UNL     1      30.735  12.459   2.752  0.00  0.00    +0.155 C 
BRANCH  33  34
ATOM     34  N   UNL     1      29.346  12.838   2.998  0.00  0.00    -0.202 NA
ATOM     35  C   UNL     1      28.199  12.193   2.666  0.00  0.00    +0.242 C 
ATOM     36  C   UNL     1      26.911  12.654   3.298  0.00  0.00    +0.096 C 
ATOM     37  O   UNL     1      28.237  11.258   1.869  0.00  0.00    -0.273 OA
ENDBRANCH  33  34
BRANCH  29  38
ATOM     38  C   UNL     1      33.925  14.317   3.848  0.00  0.00    +0.391 C 
ATOM     39  O   UNL     1      33.171  15.289   3.299  0.00  0.00    -0.243 OA
ATOM     40  O   UNL     1      34.569  13.891   4.942  0.00  0.00    -0.243 OA
ENDBRANCH  29  38
ENDBRANCH  25  27
ENDBRANCH  23  25
ENDBRANCH  22  23
ENDBRANCH   2  22
TORSDOF 13
