REMARK VINA RESULT:    -6.434      1.919      3.776
REMARK INTER + INTRA:         -14.314
REMARK INTER:                 -11.967
REMARK INTRA:                  -2.347
REMARK UNBOUND:                -1.675
REMARK  Name = lig_assembled_33.pdb
REMARK  17 active torsions:
REMARK  status: ('A' for Active; 'I' for Inactive)
REMARK    1  A    between atoms: _2  and  _8
REMARK    2  A    between atoms: _4  and  _12
REMARK    3  A    between atoms: _4  and  _13
REMARK    4  A    between atoms: _5  and  _6
REMARK    5  A    between atoms: _5  and  _15
REMARK    6  A    between atoms: _8  and  _9
REMARK    7  A    between atoms: _9  and  _10
REMARK    8  A    between atoms: _10  and  _11
REMARK    9  A    between atoms: _11  and  _12
REMARK   10  A    between atoms: _15  and  _17
REMARK   11  A    between atoms: _16  and  _21
REMARK   12  A    between atoms: _17  and  _20
REMARK   13  A    between atoms: _25  and  _35
REMARK   14  A    between atoms: _27  and  _28
REMARK   15  A    between atoms: _29  and  _31
REMARK   16  A    between atoms: _31  and  _33
REMARK   17  A    between atoms: _33  and  _35
REMARK                            x       y       z     vdW  Elec       q    Type
REMARK                         _______ _______ _______ _____ _____    ______ ____
ROOT
ATOM      1  C   UNL     1      28.955  17.093  -0.471  0.00  0.00    +0.400 C 
ATOM      2  N   UNL     1      29.016  15.946   0.286  0.00  0.00    -0.278 N 
ATOM      3  H   UNL     1      29.761  16.172   1.017  0.00  0.00    +0.152 HD
ATOM      4  O   UNL     1      29.559  18.084  -0.070  0.00  0.00    -0.226 OA
ENDROOT
BRANCH   1   5
ATOM      5  O   UNL     1      28.279  17.004  -1.569  0.00  0.00    -0.450 OA
BRANCH   5   6
ATOM      6  C   UNL     1      27.177  17.616  -2.198  0.00  0.00    +0.240 C 
BRANCH   6   7
ATOM      7  C   UNL     1      26.910  17.257  -3.672  0.00  0.00    +0.100 C 
BRANCH   7   9
ATOM      8  N   UNL     1      25.677  15.541  -4.957  0.00  0.00    -0.134 NA
ATOM      9  C   UNL     1      25.913  16.174  -3.765  0.00  0.00    +0.086 A 
ATOM     10  C   UNL     1      25.098  15.630  -2.797  0.00  0.00    +0.133 A 
ATOM     11  N   UNL     1      24.398  14.670  -3.461  0.00  0.00    -0.251 N 
ATOM     12  N   UNL     1      24.734  14.630  -4.762  0.00  0.00    -0.065 NA
BRANCH  11  13
ATOM     13  C   UNL     1      23.392  13.768  -2.937  0.00  0.00    +0.145 C 
BRANCH  13  14
ATOM     14  C   UNL     1      23.449  13.670  -1.413  0.00  0.00    +0.023 C 
BRANCH  14  15
ATOM     15  C   UNL     1      23.701  12.242  -0.924  0.00  0.00    +0.002 C 
BRANCH  15  16
ATOM     16  C   UNL     1      24.981  12.197  -0.085  0.00  0.00    +0.011 C 
BRANCH  16  17
ATOM     17  C   UNL     1      25.212  10.838   0.570  0.00  0.00    +0.120 C 
BRANCH  17  18
ATOM     18  C   UNL     1      25.351  10.969   2.070  0.00  0.00    +0.305 C 
ATOM     19  O   UNL     1      24.432  11.152   2.852  0.00  0.00    -0.251 OA
BRANCH  18  20
ATOM     20  O   UNL     1      26.635  10.854   2.482  0.00  0.00    -0.481 OA
ATOM     21  H   UNL     1      26.981   9.944   2.444  0.00  0.00    +0.295 HD
ENDBRANCH  18  20
ENDBRANCH  17  18
ENDBRANCH  16  17
ENDBRANCH  15  16
ENDBRANCH  14  15
ENDBRANCH  13  14
ENDBRANCH  11  13
ENDBRANCH   7   9
ENDBRANCH   6   7
ENDBRANCH   5   6
ENDBRANCH   1   5
BRANCH   2  22
ATOM     22  C   UNL     1      28.521  14.596   0.541  0.00  0.00    +0.152 C 
BRANCH  22  23
ATOM     23  C   UNL     1      28.778  14.034   1.954  0.00  0.00    +0.193 C 
ATOM     24  O   UNL     1      27.542  13.424   2.389  0.00  0.00    -0.219 OA
BRANCH  23  25
ATOM     25  C   UNL     1      29.831  12.914   2.097  0.00  0.00    +0.212 C 
ATOM     26  O   UNL     1      29.384  11.716   1.441  0.00  0.00    -0.218 OA
BRANCH  25  27
ATOM     27  C   UNL     1      31.244  13.307   1.518  0.00  0.00    +0.171 C 
ATOM     28  O   UNL     1      31.325  13.135   0.107  0.00  0.00    -0.343 OA
ATOM     29  C   UNL     1      32.515  13.173  -0.624  0.00  0.00    +0.220 C 
ATOM     30  C   UNL     1      33.588  12.253  -0.017  0.00  0.00    +0.076 C 
ATOM     31  C   UNL     1      33.729  12.624   1.468  0.00  0.00    +0.177 C 
ATOM     32  O   UNL     1      34.740  11.828   2.070  0.00  0.00    -0.221 OA
ATOM     33  C   UNL     1      32.361  12.450   2.199  0.00  0.00    +0.155 C 
BRANCH  33  34
ATOM     34  N   UNL     1      32.493  12.795   3.612  0.00  0.00    -0.202 NA
ATOM     35  C   UNL     1      32.320  12.022   4.714  0.00  0.00    +0.242 C 
ATOM     36  C   UNL     1      32.806  12.547   6.040  0.00  0.00    +0.096 C 
ATOM     37  O   UNL     1      31.779  10.923   4.606  0.00  0.00    -0.273 OA
ENDBRANCH  33  34
BRANCH  29  38
ATOM     38  C   UNL     1      33.081  14.678  -0.859  0.00  0.00    +0.391 C 
ATOM     39  O   UNL     1      34.360  14.511  -1.247  0.00  0.00    -0.243 OA
ATOM     40  O   UNL     1      32.009  15.479  -0.874  0.00  0.00    -0.243 OA
ENDBRANCH  29  38
ENDBRANCH  25  27
ENDBRANCH  23  25
ENDBRANCH  22  23
ENDBRANCH   2  22
TORSDOF 17
