REMARK VINA RESULT:    -7.260      1.493      2.813
REMARK INTER + INTRA:         -13.552
REMARK INTER:                 -12.039
REMARK INTRA:                  -1.513
REMARK UNBOUND:                -1.624
REMARK  Name = lig_assembled_3.pdb
REMARK  11 active torsions:
REMARK  status: ('A' for Active; 'I' for Inactive)
REMARK    1  A    between atoms: _2  and  _8
REMARK    2  A    between atoms: _5  and  _6
REMARK    3  A    between atoms: _5  and  _13
REMARK    4  A    between atoms: _13  and  _15
REMARK    5  A    between atoms: _14  and  _19
REMARK    6  A    between atoms: _15  and  _18
REMARK    7  A    between atoms: _23  and  _33
REMARK    8  A    between atoms: _25  and  _26
REMARK    9  A    between atoms: _27  and  _29
REMARK   10  A    between atoms: _29  and  _31
REMARK   11  A    between atoms: _31  and  _33
REMARK                            x       y       z     vdW  Elec       q    Type
REMARK                         _______ _______ _______ _____ _____    ______ ____
ROOT
ATOM      1  C   UNL     1      29.321  15.238   0.023  0.00  0.00    +0.152 C 
ENDROOT
BRANCH   1   3
ATOM      2  C   UNL     1      27.922  17.436  -0.788  0.00  0.00    +0.400 C 
ATOM      3  N   UNL     1      28.707  16.559  -0.076  0.00  0.00    -0.278 N 
ATOM      4  H   UNL     1      28.962  17.113   0.801  0.00  0.00    +0.152 HD
ATOM      5  O   UNL     1      27.565  18.473  -0.236  0.00  0.00    -0.226 OA
BRANCH   2   6
ATOM      6  O   UNL     1      27.657  17.088  -2.005  0.00  0.00    -0.450 OA
BRANCH   6   7
ATOM      7  C   UNL     1      26.832  17.488  -3.074  0.00  0.00    +0.240 C 
BRANCH   7   8
ATOM      8  C   UNL     1      26.360  16.397  -4.054  0.00  0.00    +0.100 C 
BRANCH   8  10
ATOM      9  N   UNL     1      26.214  14.142  -3.045  0.00  0.00    -0.134 NA
ATOM     10  C   UNL     1      25.627  15.340  -3.331  0.00  0.00    +0.086 A 
ATOM     11  C   UNL     1      24.343  15.341  -2.837  0.00  0.00    +0.139 A 
ATOM     12  N   UNL     1      24.195  14.117  -2.226  0.00  0.00    -0.220 N 
ATOM     13  N   UNL     1      25.337  13.402  -2.380  0.00  0.00    -0.061 NA
BRANCH  12  14
ATOM     14  C   UNL     1      23.078  13.609  -1.512  0.00  0.00    +0.067 A 
ATOM     15  C   UNL     1      23.210  12.498  -0.666  0.00  0.00    +0.028 A 
ATOM     16  C   UNL     1      22.092  11.995   0.005  0.00  0.00    +0.002 A 
ATOM     17  C   UNL     1      20.845  12.594  -0.161  0.00  0.00    +0.000 A 
ATOM     18  C   UNL     1      20.710  13.704  -0.993  0.00  0.00    +0.002 A 
ATOM     19  C   UNL     1      21.822  14.214  -1.668  0.00  0.00    +0.028 A 
ENDBRANCH  12  14
ENDBRANCH   8  10
ENDBRANCH   7   8
ENDBRANCH   6   7
ENDBRANCH   2   6
ENDBRANCH   1   3
BRANCH   1  20
ATOM     20  C   UNL     1      30.852  15.213   0.211  0.00  0.00    +0.193 C 
ATOM     21  O   UNL     1      31.121  15.800   1.504  0.00  0.00    -0.219 OA
BRANCH  20  22
ATOM     22  C   UNL     1      31.543  13.833   0.263  0.00  0.00    +0.212 C 
ATOM     23  O   UNL     1      32.619  13.774  -0.687  0.00  0.00    -0.218 OA
BRANCH  22  24
ATOM     24  C   UNL     1      32.110  13.472   1.689  0.00  0.00    +0.171 C 
ATOM     25  O   UNL     1      33.470  13.052   1.648  0.00  0.00    -0.343 OA
ATOM     26  C   UNL     1      34.142  12.448   2.714  0.00  0.00    +0.220 C 
ATOM     27  C   UNL     1      33.346  11.267   3.294  0.00  0.00    +0.076 C 
ATOM     28  C   UNL     1      31.934  11.778   3.624  0.00  0.00    +0.177 C 
ATOM     29  O   UNL     1      31.166  10.732   4.203  0.00  0.00    -0.221 OA
ATOM     30  C   UNL     1      31.250  12.339   2.338  0.00  0.00    +0.155 C 
BRANCH  30  31
ATOM     31  N   UNL     1      29.906  12.819   2.647  0.00  0.00    -0.202 NA
ATOM     32  C   UNL     1      28.704  12.388   2.187  0.00  0.00    +0.242 C 
ATOM     33  C   UNL     1      27.458  12.861   2.890  0.00  0.00    +0.096 C 
ATOM     34  O   UNL     1      28.659  11.630   1.220  0.00  0.00    -0.273 OA
ENDBRANCH  30  31
BRANCH  26  35
ATOM     35  C   UNL     1      34.587  13.495   3.874  0.00  0.00    +0.391 C 
ATOM     36  O   UNL     1      34.659  12.757   4.999  0.00  0.00    -0.243 OA
ATOM     37  O   UNL     1      35.000  14.598   3.238  0.00  0.00    -0.243 OA
ENDBRANCH  26  35
ENDBRANCH  22  24
ENDBRANCH  20  22
ENDBRANCH   1  20
TORSDOF 11
