REMARK VINA RESULT:    -5.660      2.115      2.522
REMARK INTER + INTRA:         -12.830
REMARK INTER:                 -11.231
REMARK INTRA:                  -1.598
REMARK UNBOUND:                -3.035
REMARK  Name = lig_assembled_22.pdb
REMARK  15 active torsions:
REMARK  status: ('A' for Active; 'I' for Inactive)
REMARK    1  A    between atoms: _2  and  _8
REMARK    2  A    between atoms: _4  and  _8
REMARK    3  A    between atoms: _4  and  _11
REMARK    4  A    between atoms: _5  and  _6
REMARK    5  A    between atoms: _5  and  _13
REMARK    6  A    between atoms: _8  and  _9
REMARK    7  A    between atoms: _8  and  _10
REMARK    8  A    between atoms: _13  and  _15
REMARK    9  A    between atoms: _14  and  _19
REMARK   10  A    between atoms: _15  and  _18
REMARK   11  A    between atoms: _23  and  _33
REMARK   12  A    between atoms: _25  and  _26
REMARK   13  A    between atoms: _27  and  _29
REMARK   14  A    between atoms: _29  and  _31
REMARK   15  A    between atoms: _31  and  _33
REMARK                            x       y       z     vdW  Elec       q    Type
REMARK                         _______ _______ _______ _____ _____    ______ ____
ROOT
ATOM      1  C   UNL     1      27.936  17.252  -0.936  0.00  0.00    +0.400 C 
ATOM      2  N   UNL     1      28.332  16.208  -0.134  0.00  0.00    -0.278 N 
ATOM      3  H   UNL     1      28.611  16.689   0.779  0.00  0.00    +0.152 HD
ATOM      4  O   UNL     1      27.817  18.362  -0.425  0.00  0.00    -0.226 OA
ENDROOT
BRANCH   1   5
ATOM      5  O   UNL     1      27.754  16.961  -2.183  0.00  0.00    -0.450 OA
BRANCH   5   6
ATOM      6  C   UNL     1      26.989  17.400  -3.281  0.00  0.00    +0.240 C 
BRANCH   6   7
ATOM      7  C   UNL     1      26.436  16.326  -4.237  0.00  0.00    +0.100 C 
BRANCH   7   9
ATOM      8  N   UNL     1      24.422  15.834  -2.894  0.00  0.00    -0.134 NA
ATOM      9  C   UNL     1      25.562  15.390  -3.503  0.00  0.00    +0.086 A 
ATOM     10  C   UNL     1      25.684  14.034  -3.294  0.00  0.00    +0.135 A 
ATOM     11  N   UNL     1      24.586  13.708  -2.549  0.00  0.00    -0.235 N 
ATOM     12  N   UNL     1      23.836  14.801  -2.312  0.00  0.00    -0.064 NA
BRANCH  11  13
ATOM     13  C   UNL     1      24.183  12.409  -2.005  0.00  0.00    +0.155 C 
ATOM     14  C   UNL     1      24.980  11.244  -2.631  0.00  0.00    +0.048 C 
ATOM     15  C   UNL     1      22.687  12.193  -2.304  0.00  0.00    +0.048 C 
BRANCH  13  16
ATOM     16  C   UNL     1      24.417  12.370  -0.493  0.00  0.00    +0.332 C 
ATOM     17  O   UNL     1      25.498  12.585   0.041  0.00  0.00    -0.248 OA
BRANCH  16  18
ATOM     18  O   UNL     1      23.326  12.077   0.255  0.00  0.00    -0.479 OA
ATOM     19  H   UNL     1      22.474  12.025  -0.221  0.00  0.00    +0.295 HD
ENDBRANCH  16  18
ENDBRANCH  13  16
ENDBRANCH  11  13
ENDBRANCH   7   9
ENDBRANCH   6   7
ENDBRANCH   5   6
ENDBRANCH   1   5
BRANCH   2  20
ATOM     20  C   UNL     1      28.524  14.769   0.032  0.00  0.00    +0.152 C 
BRANCH  20  21
ATOM     21  C   UNL     1      29.598  14.341   1.053  0.00  0.00    +0.193 C 
ATOM     22  O   UNL     1      29.760  12.912   0.910  0.00  0.00    -0.219 OA
BRANCH  21  23
ATOM     23  C   UNL     1      31.023  14.910   0.875  0.00  0.00    +0.212 C 
ATOM     24  O   UNL     1      31.081  16.270   1.336  0.00  0.00    -0.218 OA
BRANCH  23  25
ATOM     25  C   UNL     1      32.128  14.075   1.627  0.00  0.00    +0.171 C 
ATOM     26  O   UNL     1      32.525  14.674   2.856  0.00  0.00    -0.343 OA
ATOM     27  C   UNL     1      33.643  14.285   3.598  0.00  0.00    +0.220 C 
ATOM     28  C   UNL     1      34.909  14.215   2.726  0.00  0.00    +0.076 C 
ATOM     29  C   UNL     1      34.590  13.319   1.518  0.00  0.00    +0.177 C 
ATOM     30  O   UNL     1      35.742  13.188   0.698  0.00  0.00    -0.221 OA
ATOM     31  C   UNL     1      33.387  13.907   0.716  0.00  0.00    +0.155 C 
BRANCH  31  32
ATOM     32  N   UNL     1      33.085  13.062  -0.437  0.00  0.00    -0.202 NA
ATOM     33  C   UNL     1      33.068  13.372  -1.758  0.00  0.00    +0.242 C 
ATOM     34  C   UNL     1      33.013  12.244  -2.756  0.00  0.00    +0.096 C 
ATOM     35  O   UNL     1      33.098  14.550  -2.107  0.00  0.00    -0.273 OA
ENDBRANCH  31  32
BRANCH  27  36
ATOM     36  C   UNL     1      33.418  12.912   4.436  0.00  0.00    +0.391 C 
ATOM     37  O   UNL     1      32.135  12.571   4.206  0.00  0.00    -0.243 OA
ATOM     38  O   UNL     1      34.639  12.484   4.779  0.00  0.00    -0.243 OA
ENDBRANCH  27  36
ENDBRANCH  23  25
ENDBRANCH  21  23
ENDBRANCH  20  21
ENDBRANCH   2  20
TORSDOF 13
