REMARK VINA RESULT:    -6.803      3.476      8.616
REMARK INTER + INTRA:         -12.677
REMARK INTER:                 -11.004
REMARK INTRA:                  -1.674
REMARK UNBOUND:                -1.499
REMARK  Name = lig_assembled_15.pdb
REMARK  11 active torsions:
REMARK  status: ('A' for Active; 'I' for Inactive)
REMARK    1  A    between atoms: _2  and  _8
REMARK    2  A    between atoms: _5  and  _6
REMARK    3  A    between atoms: _5  and  _13
REMARK    4  A    between atoms: _13  and  _15
REMARK    5  A    between atoms: _14  and  _19
REMARK    6  A    between atoms: _15  and  _18
REMARK    7  A    between atoms: _23  and  _33
REMARK    8  A    between atoms: _25  and  _26
REMARK    9  A    between atoms: _27  and  _29
REMARK   10  A    between atoms: _29  and  _31
REMARK   11  A    between atoms: _31  and  _33
REMARK                            x       y       z     vdW  Elec       q    Type
REMARK                         _______ _______ _______ _____ _____    ______ ____
ROOT
ATOM      1  C   UNL     1      28.223  17.130  -0.862  0.00  0.00    +0.400 C 
ATOM      2  N   UNL     1      27.176  17.067  -1.751  0.00  0.00    -0.278 N 
ATOM      3  H   UNL     1      26.520  17.841  -1.414  0.00  0.00    +0.152 HD
ATOM      4  O   UNL     1      28.266  18.078  -0.082  0.00  0.00    -0.226 OA
ENDROOT
BRANCH   1   5
ATOM      5  O   UNL     1      29.061  16.147  -0.914  0.00  0.00    -0.450 OA
BRANCH   5   6
ATOM      6  C   UNL     1      29.733  15.268  -0.042  0.00  0.00    +0.240 C 
BRANCH   6   7
ATOM      7  C   UNL     1      31.243  15.060  -0.266  0.00  0.00    +0.100 C 
BRANCH   7   9
ATOM      8  N   UNL     1      33.127  13.904   0.845  0.00  0.00    -0.134 NA
ATOM      9  C   UNL     1      31.839  14.354   0.884  0.00  0.00    +0.086 A 
ATOM     10  C   UNL     1      31.290  14.043   2.107  0.00  0.00    +0.139 A 
ATOM     11  N   UNL     1      32.302  13.421   2.803  0.00  0.00    -0.220 N 
ATOM     12  N   UNL     1      33.399  13.334   2.011  0.00  0.00    -0.061 NA
BRANCH  11  13
ATOM     13  C   UNL     1      32.298  12.948   4.141  0.00  0.00    +0.067 A 
ATOM     14  C   UNL     1      31.124  12.454   4.727  0.00  0.00    +0.029 A 
ATOM     15  C   UNL     1      31.131  12.029   6.059  0.00  0.00    +0.017 A 
ATOM     16  C   UNL     1      32.306  12.094   6.804  0.00  0.00    +0.018 A 
ATOM     17 BR   UNL     1      32.300  11.544   8.613  0.00  0.00    -0.050 Br
ATOM     18  C   UNL     1      33.482  12.569   6.228  0.00  0.00    +0.017 A 
ATOM     19  C   UNL     1      33.481  12.994   4.897  0.00  0.00    +0.029 A 
ENDBRANCH  11  13
ENDBRANCH   7   9
ENDBRANCH   6   7
ENDBRANCH   5   6
ENDBRANCH   1   5
BRANCH   2  20
ATOM     20  C   UNL     1      26.579  16.443  -2.929  0.00  0.00    +0.152 C 
BRANCH  20  21
ATOM     21  C   UNL     1      25.522  15.353  -2.658  0.00  0.00    +0.193 C 
ATOM     22  O   UNL     1      24.687  15.283  -3.835  0.00  0.00    -0.219 OA
BRANCH  21  23
ATOM     23  C   UNL     1      26.023  13.906  -2.455  0.00  0.00    +0.212 C 
ATOM     24  O   UNL     1      27.442  13.831  -2.671  0.00  0.00    -0.218 OA
BRANCH  23  25
ATOM     25  C   UNL     1      25.701  13.329  -1.024  0.00  0.00    +0.171 C 
ATOM     26  O   UNL     1      26.720  12.460  -0.541  0.00  0.00    -0.343 OA
ATOM     27  C   UNL     1      26.586  11.630   0.574  0.00  0.00    +0.220 C 
ATOM     28  C   UNL     1      25.301  10.786   0.505  0.00  0.00    +0.076 C 
ATOM     29  C   UNL     1      24.126  11.749   0.270  0.00  0.00    +0.177 C 
ATOM     30  O   UNL     1      22.906  11.022   0.237  0.00  0.00    -0.221 OA
ATOM     31  C   UNL     1      24.344  12.550  -1.052  0.00  0.00    +0.155 C 
BRANCH  31  32
ATOM     32  N   UNL     1      23.227  13.462  -1.282  0.00  0.00    -0.202 NA
ATOM     33  C   UNL     1      22.235  13.403  -2.207  0.00  0.00    +0.242 C 
ATOM     34  C   UNL     1      21.044  14.310  -2.038  0.00  0.00    +0.096 C 
ATOM     35  O   UNL     1      22.329  12.618  -3.149  0.00  0.00    -0.273 OA
ENDBRANCH  31  32
BRANCH  27  36
ATOM     36  C   UNL     1      26.704  12.421   1.988  0.00  0.00    +0.391 C 
ATOM     37  O   UNL     1      26.126  11.606   2.892  0.00  0.00    -0.243 OA
ATOM     38  O   UNL     1      27.577  13.415   1.784  0.00  0.00    -0.243 OA
ENDBRANCH  27  36
ENDBRANCH  23  25
ENDBRANCH  21  23
ENDBRANCH  20  21
ENDBRANCH   2  20
TORSDOF 11
