REMARK VINA RESULT:    -6.972      2.102      3.225
REMARK INTER + INTRA:         -14.162
REMARK INTER:                 -11.829
REMARK INTRA:                  -2.333
REMARK UNBOUND:                -2.096
REMARK  Name = lig_assembled_88.pdb
REMARK  13 active torsions:
REMARK  status: ('A' for Active; 'I' for Inactive)
REMARK    1  A    between atoms: _2  and  _8
REMARK    2  A    between atoms: _4  and  _14
REMARK    3  A    between atoms: _5  and  _6
REMARK    4  A    between atoms: _5  and  _15
REMARK    5  A    between atoms: _8  and  _9
REMARK    6  A    between atoms: _15  and  _17
REMARK    7  A    between atoms: _16  and  _21
REMARK    8  A    between atoms: _17  and  _20
REMARK    9  A    between atoms: _25  and  _35
REMARK   10  A    between atoms: _27  and  _28
REMARK   11  A    between atoms: _29  and  _31
REMARK   12  A    between atoms: _31  and  _33
REMARK   13  A    between atoms: _33  and  _35
REMARK                            x       y       z     vdW  Elec       q    Type
REMARK                         _______ _______ _______ _____ _____    ______ ____
ROOT
ATOM      1  C   UNL     1      29.424  16.535  -0.151  0.00  0.00    +0.400 C 
ATOM      2  N   UNL     1      29.336  15.211   0.208  0.00  0.00    -0.278 N 
ATOM      3  H   UNL     1      30.288  14.814  -0.076  0.00  0.00    +0.152 HD
ATOM      4  O   UNL     1      30.519  16.969  -0.500  0.00  0.00    -0.226 OA
ENDROOT
BRANCH   1   5
ATOM      5  O   UNL     1      28.316  17.199  -0.114  0.00  0.00    -0.450 OA
BRANCH   5   6
ATOM      6  C   UNL     1      27.463  17.903  -0.987  0.00  0.00    +0.240 C 
BRANCH   6   7
ATOM      7  C   UNL     1      27.465  17.489  -2.471  0.00  0.00    +0.100 C 
BRANCH   7   9
ATOM      8  N   UNL     1      26.864  15.113  -2.116  0.00  0.00    -0.134 NA
ATOM      9  C   UNL     1      26.581  16.328  -2.684  0.00  0.00    +0.086 A 
ATOM     10  C   UNL     1      25.429  16.219  -3.429  0.00  0.00    +0.134 A 
ATOM     11  N   UNL     1      25.103  14.896  -3.336  0.00  0.00    -0.247 N 
ATOM     12  N   UNL     1      25.939  14.247  -2.503  0.00  0.00    -0.065 NA
BRANCH  11  13
ATOM     13  C   UNL     1      24.066  14.174  -4.055  0.00  0.00    +0.184 C 
BRANCH  13  14
ATOM     14  C   UNL     1      22.742  14.139  -3.317  0.00  0.00    +0.017 A 
ATOM     15  C   UNL     1      22.569  13.438  -2.108  0.00  0.00    +0.024 A 
ATOM     16  C   UNL     1      21.334  13.429  -1.456  0.00  0.00    +0.019 A 
ATOM     17 BR   UNL     1      21.126  12.435   0.140  0.00  0.00    -0.050 Br
ATOM     18  C   UNL     1      20.252  14.138  -1.968  0.00  0.00    +0.034 A 
ATOM     19  C   UNL     1      20.420  14.875  -3.137  0.00  0.00    +0.061 A 
ATOM     20 BR   UNL     1      18.953  15.869  -3.811  0.00  0.00    -0.046 Br
ATOM     21  C   UNL     1      21.654  14.879  -3.802  0.00  0.00    +0.136 A 
BRANCH  21  22
ATOM     22  O   UNL     1      21.835  15.613  -4.945  0.00  0.00    -0.505 OA
ATOM     23  H   UNL     1      20.958  15.740  -5.355  0.00  0.00    +0.292 HD
ENDBRANCH  21  22
ENDBRANCH  13  14
ENDBRANCH  11  13
ENDBRANCH   7   9
ENDBRANCH   6   7
ENDBRANCH   5   6
ENDBRANCH   1   5
BRANCH   2  24
ATOM     24  C   UNL     1      28.551  14.132   0.802  0.00  0.00    +0.152 C 
BRANCH  24  25
ATOM     25  C   UNL     1      29.151  12.715   0.693  0.00  0.00    +0.193 C 
ATOM     26  O   UNL     1      28.066  11.786   0.913  0.00  0.00    -0.219 OA
BRANCH  25  27
ATOM     27  C   UNL     1      29.750  12.294  -0.667  0.00  0.00    +0.212 C 
ATOM     28  O   UNL     1      29.100  12.997  -1.739  0.00  0.00    -0.218 OA
BRANCH  27  29
ATOM     29  C   UNL     1      31.303  12.543  -0.770  0.00  0.00    +0.171 C 
ATOM     30  O   UNL     1      31.726  13.679  -0.024  0.00  0.00    -0.343 OA
ATOM     31  C   UNL     1      32.989  14.266  -0.131  0.00  0.00    +0.220 C 
ATOM     32  C   UNL     1      33.363  14.551  -1.596  0.00  0.00    +0.076 C 
ATOM     33  C   UNL     1      33.190  13.241  -2.381  0.00  0.00    +0.177 C 
ATOM     34  O   UNL     1      33.562  13.439  -3.738  0.00  0.00    -0.221 OA
ATOM     35  C   UNL     1      31.719  12.735  -2.265  0.00  0.00    +0.155 C 
BRANCH  35  36
ATOM     36  N   UNL     1      31.548  11.494  -3.015  0.00  0.00    -0.202 NA
ATOM     37  C   UNL     1      30.947  11.279  -4.213  0.00  0.00    +0.242 C 
ATOM     38  C   UNL     1      31.169   9.956  -4.899  0.00  0.00    +0.096 C 
ATOM     39  O   UNL     1      30.244  12.159  -4.707  0.00  0.00    -0.273 OA
ENDBRANCH  35  36
BRANCH  31  40
ATOM     40  C   UNL     1      34.157  13.433   0.632  0.00  0.00    +0.391 C 
ATOM     41  O   UNL     1      35.307  13.849   0.067  0.00  0.00    -0.243 OA
ATOM     42  O   UNL     1      33.580  12.891   1.712  0.00  0.00    -0.243 OA
ENDBRANCH  31  40
ENDBRANCH  27  29
ENDBRANCH  25  27
ENDBRANCH  24  25
ENDBRANCH   2  24
TORSDOF 13
