REMARK VINA RESULT:    -6.577      1.674      2.146
REMARK INTER + INTRA:         -14.294
REMARK INTER:                 -12.804
REMARK INTRA:                  -1.490
REMARK UNBOUND:                -2.911
REMARK  Name = lig_assembled_23.pdb
REMARK  13 active torsions:
REMARK  status: ('A' for Active; 'I' for Inactive)
REMARK    1  A    between atoms: _2  and  _9
REMARK    2  A    between atoms: _3  and  _44
REMARK    3  A    between atoms: _6  and  _7
REMARK    4  A    between atoms: _6  and  _16
REMARK    5  A    between atoms: _11  and  _44
REMARK    6  A    between atoms: _16  and  _18
REMARK    7  A    between atoms: _17  and  _22
REMARK    8  A    between atoms: _18  and  _21
REMARK    9  A    between atoms: _26  and  _36
REMARK   10  A    between atoms: _28  and  _29
REMARK   11  A    between atoms: _30  and  _32
REMARK   12  A    between atoms: _32  and  _34
REMARK   13  A    between atoms: _34  and  _36
REMARK                            x       y       z     vdW  Elec       q    Type
REMARK                         _______ _______ _______ _____ _____    ______ ____
ROOT
ATOM      1  C   UNL     1      28.034  17.027  -0.574  0.00  0.00    +0.400 C 
ATOM      2  N   UNL     1      28.374  15.988   0.260  0.00  0.00    -0.278 N 
ATOM      3  H   UNL     1      28.637  16.479   1.172  0.00  0.00    +0.152 HD
ATOM      4  O   UNL     1      27.930  18.150  -0.088  0.00  0.00    -0.226 OA
ENDROOT
BRANCH   2   5
ATOM      5  C   UNL     1      28.520  14.549   0.459  0.00  0.00    +0.152 C 
BRANCH   5   6
ATOM      6  C   UNL     1      29.966  14.020   0.562  0.00  0.00    +0.193 C 
ATOM      7  O   UNL     1      29.897  12.587   0.393  0.00  0.00    -0.219 OA
BRANCH   6   8
ATOM      8  C   UNL     1      30.975  14.486  -0.510  0.00  0.00    +0.212 C 
ATOM      9  O   UNL     1      31.333  15.862  -0.298  0.00  0.00    -0.218 OA
BRANCH   8  10
ATOM     10  C   UNL     1      32.294  13.622  -0.544  0.00  0.00    +0.171 C 
ATOM     11  O   UNL     1      33.205  13.973   0.493  0.00  0.00    -0.343 OA
ATOM     12  C   UNL     1      34.534  13.546   0.552  0.00  0.00    +0.220 C 
ATOM     13  C   UNL     1      35.273  13.798  -0.774  0.00  0.00    +0.076 C 
ATOM     14  C   UNL     1      34.438  13.162  -1.898  0.00  0.00    +0.177 C 
ATOM     15  O   UNL     1      35.099  13.332  -3.144  0.00  0.00    -0.221 OA
ATOM     16  C   UNL     1      33.009  13.787  -1.924  0.00  0.00    +0.155 C 
BRANCH  16  17
ATOM     17  N   UNL     1      32.215  13.191  -2.995  0.00  0.00    -0.202 NA
ATOM     18  C   UNL     1      31.675  11.949  -3.087  0.00  0.00    +0.242 C 
ATOM     19  C   UNL     1      30.654  11.690  -4.165  0.00  0.00    +0.096 C 
ATOM     20  O   UNL     1      32.026  11.074  -2.298  0.00  0.00    -0.273 OA
ENDBRANCH  16  17
BRANCH  12  21
ATOM     21  C   UNL     1      34.697  12.006   1.043  0.00  0.00    +0.391 C 
ATOM     22  O   UNL     1      36.009  11.735   0.907  0.00  0.00    -0.243 OA
ATOM     23  O   UNL     1      33.554  11.694   1.668  0.00  0.00    -0.243 OA
ENDBRANCH  12  21
ENDBRANCH   8  10
ENDBRANCH   6   8
ENDBRANCH   5   6
ENDBRANCH   2   5
BRANCH   1  24
ATOM     24  O   UNL     1      27.884  16.718  -1.820  0.00  0.00    -0.450 OA
BRANCH  24  25
ATOM     25  C   UNL     1      27.087  17.084  -2.923  0.00  0.00    +0.240 C 
BRANCH  25  26
ATOM     26  C   UNL     1      26.762  15.991  -3.959  0.00  0.00    +0.100 C 
BRANCH  26  28
ATOM     27  N   UNL     1      24.580  15.048  -4.638  0.00  0.00    -0.134 NA
ATOM     28  C   UNL     1      25.464  15.363  -3.648  0.00  0.00    +0.086 A 
ATOM     29  C   UNL     1      24.928  15.001  -2.434  0.00  0.00    +0.139 A 
ATOM     30  N   UNL     1      23.703  14.452  -2.735  0.00  0.00    -0.220 N 
ATOM     31  N   UNL     1      23.511  14.499  -4.076  0.00  0.00    -0.061 NA
BRANCH  30  32
ATOM     32  C   UNL     1      22.727  13.913  -1.859  0.00  0.00    +0.069 A 
ATOM     33  C   UNL     1      23.111  12.967  -0.898  0.00  0.00    +0.056 A 
ATOM     34  C   UNL     1      22.144  12.407  -0.055  0.00  0.00    +0.107 A 
ATOM     35  C   UNL     1      20.806  12.795  -0.139  0.00  0.00    +0.028 A 
ATOM     36  C   UNL     1      20.429  13.746  -1.086  0.00  0.00    +0.004 A 
ATOM     37  C   UNL     1      21.381  14.301  -1.947  0.00  0.00    +0.028 A 
BRANCH  34  38
ATOM     38  S   UNL     1      22.637  11.173   1.112  0.00  0.00    +0.056 S 
ATOM     39  O   UNL     1      22.037   9.914   0.739  0.00  0.00    -0.153 OA
ATOM     40  O   UNL     1      24.048  11.314   1.386  0.00  0.00    -0.153 OA
BRANCH  38  41
ATOM     41  N   UNL     1      21.859  11.682   2.508  0.00  0.00    -0.204 NA
ATOM     42  H   UNL     1      22.018  12.679   2.654  0.00  0.00    +0.144 HD
ATOM     43  H   UNL     1      22.137  11.097   3.297  0.00  0.00    +0.144 HD
ENDBRANCH  38  41
ENDBRANCH  34  38
ENDBRANCH  30  32
ENDBRANCH  26  28
ENDBRANCH  25  26
ENDBRANCH  24  25
ENDBRANCH   1  24
TORSDOF 13
