REMARK VINA RESULT:    -6.091      3.332      7.648
REMARK INTER + INTRA:         -13.626
REMARK INTER:                 -10.518
REMARK INTRA:                  -3.107
REMARK UNBOUND:                -1.837
REMARK  Name = lig_assembled_45.pdb
REMARK  19 active torsions:
REMARK  status: ('A' for Active; 'I' for Inactive)
REMARK    1  A    between atoms: _2  and  _9
REMARK    2  A    between atoms: _3  and  _11
REMARK    3  A    between atoms: _3  and  _12
REMARK    4  A    between atoms: _3  and  _13
REMARK    5  A    between atoms: _3  and  _15
REMARK    6  A    between atoms: _5  and  _15
REMARK    7  A    between atoms: _6  and  _7
REMARK    8  A    between atoms: _6  and  _16
REMARK    9  A    between atoms: _9  and  _10
REMARK   10  A    between atoms: _10  and  _11
REMARK   11  A    between atoms: _13  and  _14
REMARK   12  A    between atoms: _16  and  _18
REMARK   13  A    between atoms: _17  and  _22
REMARK   14  A    between atoms: _18  and  _21
REMARK   15  A    between atoms: _26  and  _36
REMARK   16  A    between atoms: _28  and  _29
REMARK   17  A    between atoms: _30  and  _32
REMARK   18  A    between atoms: _32  and  _34
REMARK   19  A    between atoms: _34  and  _36
REMARK                            x       y       z     vdW  Elec       q    Type
REMARK                         _______ _______ _______ _____ _____    ______ ____
ROOT
ATOM      1  C   UNL     1      27.958  17.733  -1.008  0.00  0.00    +0.400 C 
ATOM      2  N   UNL     1      27.187  17.586  -2.137  0.00  0.00    -0.278 N 
ATOM      3  H   UNL     1      26.244  17.999  -1.847  0.00  0.00    +0.152 HD
ATOM      4  O   UNL     1      27.509  18.406  -0.083  0.00  0.00    -0.226 OA
ENDROOT
BRANCH   2   5
ATOM      5  C   UNL     1      27.084  17.144  -3.525  0.00  0.00    +0.152 C 
BRANCH   5   6
ATOM      6  C   UNL     1      25.981  16.109  -3.828  0.00  0.00    +0.193 C 
ATOM      7  O   UNL     1      25.979  15.911  -5.259  0.00  0.00    -0.219 OA
BRANCH   6   8
ATOM      8  C   UNL     1      26.151  14.690  -3.243  0.00  0.00    +0.212 C 
ATOM      9  O   UNL     1      26.888  14.740  -2.011  0.00  0.00    -0.218 OA
BRANCH   8  10
ATOM     10  C   UNL     1      24.782  13.954  -2.982  0.00  0.00    +0.171 C 
ATOM     11  O   UNL     1      23.892  14.722  -2.179  0.00  0.00    -0.343 OA
ATOM     12  C   UNL     1      22.724  14.223  -1.597  0.00  0.00    +0.220 C 
ATOM     13  C   UNL     1      22.986  12.921  -0.820  0.00  0.00    +0.076 C 
ATOM     14  C   UNL     1      23.702  11.949  -1.773  0.00  0.00    +0.177 C 
ATOM     15  O   UNL     1      23.933  10.712  -1.115  0.00  0.00    -0.221 OA
ATOM     16  C   UNL     1      25.036  12.579  -2.281  0.00  0.00    +0.155 C 
BRANCH  16  17
ATOM     17  N   UNL     1      25.722  11.656  -3.181  0.00  0.00    -0.202 NA
ATOM     18  C   UNL     1      26.962  11.112  -3.086  0.00  0.00    +0.242 C 
ATOM     19  C   UNL     1      27.311   9.963  -3.996  0.00  0.00    +0.096 C 
ATOM     20  O   UNL     1      27.762  11.563  -2.269  0.00  0.00    -0.273 OA
ENDBRANCH  16  17
BRANCH  12  21
ATOM     21  C   UNL     1      21.498  14.053  -2.649  0.00  0.00    +0.391 C 
ATOM     22  O   UNL     1      20.598  13.279  -2.012  0.00  0.00    -0.243 OA
ATOM     23  O   UNL     1      21.700  14.969  -3.604  0.00  0.00    -0.243 OA
ENDBRANCH  12  21
ENDBRANCH   8  10
ENDBRANCH   6   8
ENDBRANCH   5   6
ENDBRANCH   2   5
BRANCH   1  24
ATOM     24  O   UNL     1      29.091  17.111  -1.020  0.00  0.00    -0.450 OA
BRANCH  24  25
ATOM     25  C   UNL     1      29.902  16.352  -0.153  0.00  0.00    +0.240 C 
BRANCH  25  26
ATOM     26  C   UNL     1      29.942  14.828  -0.370  0.00  0.00    +0.100 C 
BRANCH  26  28
ATOM     27  N   UNL     1      28.229  14.397   1.370  0.00  0.00    -0.134 NA
ATOM     28  C   UNL     1      29.459  14.128   0.834  0.00  0.00    +0.086 A 
ATOM     29  C   UNL     1      30.079  13.161   1.594  0.00  0.00    +0.133 A 
ATOM     30  N   UNL     1      29.168  12.892   2.568  0.00  0.00    -0.251 N 
ATOM     31  N   UNL     1      28.064  13.633   2.443  0.00  0.00    -0.065 NA
BRANCH  30  32
ATOM     32  C   UNL     1      29.306  11.955   3.663  0.00  0.00    +0.150 C 
BRANCH  32  33
ATOM     33  C   UNL     1      28.716  10.585   3.350  0.00  0.00    +0.074 C 
BRANCH  33  34
ATOM     34  C   UNL     1      27.218  10.397   3.622  0.00  0.00    +0.134 C 
BRANCH  34  35
ATOM     35  N   UNL     1      26.259  10.276   2.392  0.00  0.00    +0.241 N 
ATOM     36  C   UNL     1      25.160  11.345   2.515  0.00  0.00    +0.192 C 
BRANCH  35  37
ATOM     37  C   UNL     1      25.592   8.864   2.501  0.00  0.00    +0.129 C 
ATOM     38  C   UNL     1      24.466   8.788   3.527  0.00  0.00    +0.060 C 
ENDBRANCH  35  37
BRANCH  35  39
ATOM     39  C   UNL     1      26.945  10.421   1.021  0.00  0.00    +0.129 C 
ATOM     40  C   UNL     1      26.948   9.149   0.187  0.00  0.00    +0.060 C 
ENDBRANCH  35  39
ENDBRANCH  34  35
ENDBRANCH  33  34
ENDBRANCH  32  33
ENDBRANCH  30  32
ENDBRANCH  26  28
ENDBRANCH  25  26
ENDBRANCH  24  25
ENDBRANCH   1  24
TORSDOF 16
