REMARK VINA RESULT:    -7.213      0.676      1.550
REMARK INTER + INTRA:         -14.417
REMARK INTER:                 -12.764
REMARK INTRA:                  -1.653
REMARK UNBOUND:                -2.144
REMARK  Name = lig_assembled_63.pdb
REMARK  12 active torsions:
REMARK  status: ('A' for Active; 'I' for Inactive)
REMARK    1  A    between atoms: _2  and  _10
REMARK    2  A    between atoms: _6  and  _14
REMARK    3  A    between atoms: _7  and  _8
REMARK    4  A    between atoms: _7  and  _15
REMARK    5  A    between atoms: _15  and  _17
REMARK    6  A    between atoms: _16  and  _21
REMARK    7  A    between atoms: _17  and  _20
REMARK    8  A    between atoms: _25  and  _35
REMARK    9  A    between atoms: _27  and  _28
REMARK   10  A    between atoms: _29  and  _31
REMARK   11  A    between atoms: _31  and  _33
REMARK   12  A    between atoms: _33  and  _35
REMARK                            x       y       z     vdW  Elec       q    Type
REMARK                         _______ _______ _______ _____ _____    ______ ____
ROOT
ATOM      1  C   UNL     1      27.747  17.474  -1.148  0.00  0.00    +0.400 C 
ATOM      2  N   UNL     1      28.153  16.304  -0.552  0.00  0.00    -0.278 N 
ATOM      3  H   UNL     1      28.339  16.593   0.460  0.00  0.00    +0.152 HD
ATOM      4  O   UNL     1      27.523  18.444  -0.428  0.00  0.00    -0.226 OA
ENDROOT
BRANCH   2   5
ATOM      5  C   UNL     1      28.426  14.874  -0.675  0.00  0.00    +0.152 C 
BRANCH   5   6
ATOM      6  C   UNL     1      29.444  14.288   0.324  0.00  0.00    +0.193 C 
ATOM      7  O   UNL     1      29.586  12.888  -0.001  0.00  0.00    -0.219 OA
BRANCH   6   8
ATOM      8  C   UNL     1      30.886  14.841   0.284  0.00  0.00    +0.212 C 
ATOM      9  O   UNL     1      30.913  16.203   0.740  0.00  0.00    -0.218 OA
BRANCH   8  10
ATOM     10  C   UNL     1      31.902  14.000   1.146  0.00  0.00    +0.171 C 
ATOM     11  O   UNL     1      32.169  14.594   2.412  0.00  0.00    -0.343 OA
ATOM     12  C   UNL     1      33.201  14.199   3.266  0.00  0.00    +0.220 C 
ATOM     13  C   UNL     1      34.552  14.126   2.533  0.00  0.00    +0.076 C 
ATOM     14  C   UNL     1      34.359  13.235   1.295  0.00  0.00    +0.177 C 
ATOM     15  O   UNL     1      35.591  13.101   0.601  0.00  0.00    -0.221 OA
ATOM     16  C   UNL     1      33.250  13.829   0.372  0.00  0.00    +0.155 C 
BRANCH  16  17
ATOM     17  N   UNL     1      33.069  12.989  -0.809  0.00  0.00    -0.202 NA
ATOM     18  C   UNL     1      33.163  13.309  -2.124  0.00  0.00    +0.242 C 
ATOM     19  C   UNL     1      33.220  12.190  -3.131  0.00  0.00    +0.096 C 
ATOM     20  O   UNL     1      33.200  14.491  -2.461  0.00  0.00    -0.273 OA
ENDBRANCH  16  17
BRANCH  12  21
ATOM     21  C   UNL     1      32.884  12.824   4.071  0.00  0.00    +0.391 C 
ATOM     22  O   UNL     1      34.066  12.448   4.597  0.00  0.00    -0.243 OA
ATOM     23  O   UNL     1      31.551  12.748   4.162  0.00  0.00    -0.243 OA
ENDBRANCH  12  21
ENDBRANCH   8  10
ENDBRANCH   6   8
ENDBRANCH   5   6
ENDBRANCH   2   5
BRANCH   1  24
ATOM     24  O   UNL     1      27.668  17.448  -2.438  0.00  0.00    -0.450 OA
BRANCH  24  25
ATOM     25  C   UNL     1      26.686  17.457  -3.449  0.00  0.00    +0.240 C 
BRANCH  25  26
ATOM     26  C   UNL     1      26.600  16.223  -4.367  0.00  0.00    +0.100 C 
BRANCH  26  28
ATOM     27  N   UNL     1      24.744  14.729  -5.025  0.00  0.00    -0.134 NA
ATOM     28  C   UNL     1      25.397  15.431  -4.053  0.00  0.00    +0.087 A 
ATOM     29  C   UNL     1      24.736  15.257  -2.860  0.00  0.00    +0.141 A 
ATOM     30  N   UNL     1      23.649  14.462  -3.165  0.00  0.00    -0.201 N 
ATOM     31  N   UNL     1      23.691  14.141  -4.475  0.00  0.00    -0.059 NA
BRANCH  30  32
ATOM     32  C   UNL     1      22.603  14.079  -2.274  0.00  0.00    +0.173 A 
ATOM     33  C   UNL     1      22.816  13.215  -1.197  0.00  0.00    +0.096 A 
ATOM     34  C   UNL     1      21.696  12.828  -0.443  0.00  0.00    +0.024 A 
ATOM     35  C   UNL     1      20.431  13.316  -0.752  0.00  0.00    +0.021 A 
ATOM     36  C   UNL     1      20.315  14.195  -1.809  0.00  0.00    +0.113 A 
ATOM     37  N   UNL     1      21.360  14.581  -2.571  0.00  0.00    -0.235 NA
BRANCH  33  38
ATOM     38  C   UNL     1      24.087  12.701  -0.780  0.00  0.00    +0.103 C 
ATOM     39  N   UNL     1      25.123  12.367  -0.376  0.00  0.00    -0.191 NA
ENDBRANCH  33  38
ENDBRANCH  30  32
ENDBRANCH  26  28
ENDBRANCH  25  26
ENDBRANCH  24  25
ENDBRANCH   1  24
TORSDOF 12
