REMARK VINA RESULT:    -7.449      2.940      5.353
REMARK INTER + INTRA:         -16.559
REMARK INTER:                 -13.955
REMARK INTRA:                  -2.604
REMARK UNBOUND:                -3.231
REMARK  Name = lig_assembled_34.pdb
REMARK  14 active torsions:
REMARK  status: ('A' for Active; 'I' for Inactive)
REMARK    1  A    between atoms: _2  and  _8
REMARK    2  A    between atoms: _5  and  _6
REMARK    3  A    between atoms: _5  and  _32
REMARK    4  A    between atoms: _10  and  _11
REMARK    5  A    between atoms: _12  and  _13
REMARK    6  A    between atoms: _17  and  _30
REMARK    7  A    between atoms: _32  and  _34
REMARK    8  A    between atoms: _33  and  _38
REMARK    9  A    between atoms: _34  and  _37
REMARK   10  A    between atoms: _42  and  _52
REMARK   11  A    between atoms: _44  and  _45
REMARK   12  A    between atoms: _46  and  _48
REMARK   13  A    between atoms: _48  and  _50
REMARK   14  A    between atoms: _50  and  _52
REMARK                            x       y       z     vdW  Elec       q    Type
REMARK                         _______ _______ _______ _____ _____    ______ ____
ROOT
ATOM      1  N   UNL     1      32.449  14.464  -1.231  0.00  0.00    -0.134 NA
ATOM      2  C   UNL     1      31.686  14.571  -0.103  0.00  0.00    +0.086 A 
ATOM      3  C   UNL     1      32.437  14.187   0.980  0.00  0.00    +0.139 A 
ATOM      4  N   UNL     1      33.680  13.873   0.475  0.00  0.00    -0.220 N 
ATOM      5  N   UNL     1      33.655  14.025  -0.876  0.00  0.00    -0.061 NA
ENDROOT
BRANCH   4   6
ATOM      6  C   UNL     1      34.847  13.497   1.193  0.00  0.00    +0.068 A 
ATOM      7  C   UNL     1      35.807  12.687   0.577  0.00  0.00    +0.038 A 
ATOM      8  C   UNL     1      36.928  12.170   1.270  0.00  0.00    +0.007 A 
ATOM      9  C   UNL     1      37.121  12.547   2.614  0.00  0.00    -0.008 A 
ATOM     10  C   UNL     1      36.170  13.405   3.217  0.00  0.00    +0.011 A 
ATOM     11  C   UNL     1      35.036  13.864   2.525  0.00  0.00    +0.028 A 
BRANCH   9  12
ATOM     12  C   UNL     1      38.226  12.038   3.492  0.00  0.00    +0.004 A 
ATOM     13  C   UNL     1      38.074  10.952   4.300  0.00  0.00    +0.026 A 
ATOM     14  C   UNL     1      36.803  10.227   4.425  0.00  0.00    +0.016 A 
ATOM     15  C   UNL     1      36.622   9.284   5.361  0.00  0.00    +0.051 A 
ATOM     16  C   UNL     1      37.722   8.915   6.285  0.00  0.00    +0.183 A 
ATOM     17  O   UNL     1      37.552   8.099   7.187  0.00  0.00    -0.288 OA
ATOM     18  C   UNL     1      39.051   9.507   6.031  0.00  0.00    +0.097 A 
ATOM     19  C   UNL     1      39.216  10.433   5.078  0.00  0.00    +0.140 A 
ATOM     20  O   UNL     1      40.504  10.854   4.786  0.00  0.00    -0.455 OA
ATOM     21  C   UNL     1      40.666  11.968   4.005  0.00  0.00    +0.140 A 
ATOM     22  C   UNL     1      41.979  12.404   3.817  0.00  0.00    +0.092 A 
ATOM     23  C   UNL     1      42.213  13.558   3.088  0.00  0.00    +0.120 A 
ATOM     24  C   UNL     1      41.151  14.321   2.615  0.00  0.00    +0.046 A 
ATOM     25  C   UNL     1      39.842  13.864   2.800  0.00  0.00    +0.016 A 
ATOM     26  C   UNL     1      39.587  12.645   3.445  0.00  0.00    +0.026 A 
BRANCH  23  27
ATOM     27  O   UNL     1      43.506  13.916   2.840  0.00  0.00    -0.507 OA
ATOM     28  H   UNL     1      44.069  13.161   3.074  0.00  0.00    +0.292 HD
ENDBRANCH  23  27
ENDBRANCH   9  12
BRANCH   8  29
ATOM     29  C   UNL     1      37.793  11.180   0.514  0.00  0.00    +0.072 C 
ATOM     30  O   UNL     1      37.580   9.949   0.760  0.00  0.00    -0.545 OA
ATOM     31  O   UNL     1      38.707  11.632  -0.238  0.00  0.00    -0.545 OA
ENDBRANCH   8  29
ENDBRANCH   4   6
BRANCH   2  32
ATOM     32  C   UNL     1      30.287  15.038  -0.136  0.00  0.00    +0.100 C 
BRANCH  32  33
ATOM     33  C   UNL     1      30.222  16.576  -0.071  0.00  0.00    +0.240 C 
BRANCH  33  34
ATOM     34  O   UNL     1      29.268  17.222  -0.881  0.00  0.00    -0.450 OA
BRANCH  34  35
ATOM     35  C   UNL     1      28.005  17.494  -0.881  0.00  0.00    +0.400 C 
ATOM     36  N   UNL     1      27.192  16.551  -1.465  0.00  0.00    -0.278 N 
ATOM     37  H   UNL     1      26.209  16.865  -1.187  0.00  0.00    +0.152 HD
ATOM     38  O   UNL     1      27.477  18.487  -0.386  0.00  0.00    -0.226 OA
BRANCH  36  39
ATOM     39  C   UNL     1      27.072  15.350  -2.288  0.00  0.00    +0.152 C 
BRANCH  39  40
ATOM     40  C   UNL     1      25.641  14.954  -2.707  0.00  0.00    +0.193 C 
ATOM     41  O   UNL     1      25.543  15.191  -4.128  0.00  0.00    -0.219 OA
BRANCH  40  42
ATOM     42  C   UNL     1      25.230  13.475  -2.533  0.00  0.00    +0.212 C 
ATOM     43  O   UNL     1      26.124  12.617  -3.260  0.00  0.00    -0.218 OA
BRANCH  42  44
ATOM     44  C   UNL     1      25.195  13.009  -1.028  0.00  0.00    +0.171 C 
ATOM     45  O   UNL     1      26.317  12.204  -0.678  0.00  0.00    -0.343 OA
ATOM     46  C   UNL     1      26.418  11.464   0.502  0.00  0.00    +0.220 C 
ATOM     47  C   UNL     1      25.174  10.590   0.736  0.00  0.00    +0.076 C 
ATOM     48  C   UNL     1      23.942  11.506   0.650  0.00  0.00    +0.177 C 
ATOM     49  O   UNL     1      22.763  10.754   0.900  0.00  0.00    -0.221 OA
ATOM     50  C   UNL     1      23.886  12.202  -0.745  0.00  0.00    +0.155 C 
BRANCH  50  51
ATOM     51  N   UNL     1      22.713  13.069  -0.833  0.00  0.00    -0.202 NA
ATOM     52  C   UNL     1      21.540  12.878  -1.488  0.00  0.00    +0.242 C 
ATOM     53  C   UNL     1      20.387  13.795  -1.173  0.00  0.00    +0.096 C 
ATOM     54  O   UNL     1      21.446  11.972  -2.314  0.00  0.00    -0.273 OA
ENDBRANCH  50  51
BRANCH  46  55
ATOM     55  C   UNL     1      26.766  12.369   1.806  0.00  0.00    +0.391 C 
ATOM     56  O   UNL     1      26.389  11.619   2.860  0.00  0.00    -0.243 OA
ATOM     57  O   UNL     1      27.553  13.359   1.369  0.00  0.00    -0.243 OA
ENDBRANCH  46  55
ENDBRANCH  42  44
ENDBRANCH  40  42
ENDBRANCH  39  40
ENDBRANCH  36  39
ENDBRANCH  34  35
ENDBRANCH  33  34
ENDBRANCH  32  33
ENDBRANCH   2  32
TORSDOF 14
