REMARK VINA RESULT:    -7.247      3.580      7.746
REMARK INTER + INTRA:         -13.757
REMARK INTER:                 -11.062
REMARK INTRA:                  -2.695
REMARK UNBOUND:                -1.850
REMARK  Name = lig_assembled_2.pdb
REMARK  11 active torsions:
REMARK  status: ('A' for Active; 'I' for Inactive)
REMARK    1  A    between atoms: _2  and  _8
REMARK    2  A    between atoms: _5  and  _6
REMARK    3  A    between atoms: _5  and  _13
REMARK    4  A    between atoms: _13  and  _15
REMARK    5  A    between atoms: _14  and  _19
REMARK    6  A    between atoms: _15  and  _18
REMARK    7  A    between atoms: _23  and  _33
REMARK    8  A    between atoms: _25  and  _26
REMARK    9  A    between atoms: _27  and  _29
REMARK   10  A    between atoms: _29  and  _31
REMARK   11  A    between atoms: _31  and  _33
REMARK                            x       y       z     vdW  Elec       q    Type
REMARK                         _______ _______ _______ _____ _____    ______ ____
ROOT
ATOM      1  C   UNL     1      27.955  17.722  -0.865  0.00  0.00    +0.400 C 
ATOM      2  N   UNL     1      27.203  17.545  -2.002  0.00  0.00    -0.278 N 
ATOM      3  H   UNL     1      26.223  17.847  -1.701  0.00  0.00    +0.152 HD
ATOM      4  O   UNL     1      27.439  18.306   0.085  0.00  0.00    -0.226 OA
ENDROOT
BRANCH   1   5
ATOM      5  O   UNL     1      29.145  17.218  -0.897  0.00  0.00    -0.450 OA
BRANCH   5   6
ATOM      6  C   UNL     1      30.264  17.068  -0.055  0.00  0.00    +0.240 C 
BRANCH   6   7
ATOM      7  C   UNL     1      30.930  15.680   0.002  0.00  0.00    +0.100 C 
BRANCH   7   9
ATOM      8  N   UNL     1      29.866  13.627  -0.880  0.00  0.00    -0.134 NA
ATOM      9  C   UNL     1      29.904  14.622   0.054  0.00  0.00    +0.086 A 
ATOM     10  C   UNL     1      28.886  14.427   0.960  0.00  0.00    +0.139 A 
ATOM     11  N   UNL     1      28.262  13.271   0.550  0.00  0.00    -0.220 N 
ATOM     12  N   UNL     1      28.863  12.815  -0.576  0.00  0.00    -0.061 NA
BRANCH  11  13
ATOM     13  C   UNL     1      27.184  12.579   1.161  0.00  0.00    +0.067 A 
ATOM     14  C   UNL     1      27.228  12.232   2.520  0.00  0.00    +0.029 A 
ATOM     15  C   UNL     1      26.170  11.517   3.094  0.00  0.00    +0.022 A 
ATOM     16  C   UNL     1      25.073  11.150   2.318  0.00  0.00    +0.041 A 
ATOM     17 CL   UNL     1      23.789  10.253   3.027  0.00  0.00    -0.084 Cl
ATOM     18  C   UNL     1      25.014  11.503   0.971  0.00  0.00    +0.022 A 
ATOM     19  C   UNL     1      26.066  12.218   0.391  0.00  0.00    +0.029 A 
ENDBRANCH  11  13
ENDBRANCH   7   9
ENDBRANCH   6   7
ENDBRANCH   5   6
ENDBRANCH   1   5
BRANCH   2  20
ATOM     20  C   UNL     1      27.147  17.152  -3.408  0.00  0.00    +0.152 C 
BRANCH  20  21
ATOM     21  C   UNL     1      25.959  16.257  -3.817  0.00  0.00    +0.193 C 
ATOM     22  O   UNL     1      26.063  16.054  -5.243  0.00  0.00    -0.219 OA
BRANCH  21  23
ATOM     23  C   UNL     1      25.904  14.830  -3.228  0.00  0.00    +0.212 C 
ATOM     24  O   UNL     1      26.508  14.800  -1.925  0.00  0.00    -0.218 OA
BRANCH  23  25
ATOM     25  C   UNL     1      24.440  14.256  -3.118  0.00  0.00    +0.171 C 
ATOM     26  O   UNL     1      23.658  14.934  -2.140  0.00  0.00    -0.343 OA
ATOM     27  C   UNL     1      22.423  14.483  -1.667  0.00  0.00    +0.220 C 
ATOM     28  C   UNL     1      22.485  13.012  -1.221  0.00  0.00    +0.076 C 
ATOM     29  C   UNL     1      23.067  12.199  -2.390  0.00  0.00    +0.177 C 
ATOM     30  O   UNL     1      23.109  10.822  -2.044  0.00  0.00    -0.221 OA
ATOM     31  C   UNL     1      24.485  12.733  -2.763  0.00  0.00    +0.155 C 
BRANCH  31  32
ATOM     32  N   UNL     1      25.044  11.959  -3.868  0.00  0.00    -0.202 NA
ATOM     33  C   UNL     1      26.135  11.153  -3.898  0.00  0.00    +0.242 C 
ATOM     34  C   UNL     1      26.320  10.242  -5.084  0.00  0.00    +0.096 C 
ATOM     35  O   UNL     1      26.938  11.183  -2.968  0.00  0.00    -0.273 OA
ENDBRANCH  31  32
BRANCH  27  36
ATOM     36  C   UNL     1      21.200  14.742  -2.704  0.00  0.00    +0.391 C 
ATOM     37  O   UNL     1      20.181  13.996  -2.234  0.00  0.00    -0.243 OA
ATOM     38  O   UNL     1      21.556  15.803  -3.439  0.00  0.00    -0.243 OA
ENDBRANCH  27  36
ENDBRANCH  23  25
ENDBRANCH  21  23
ENDBRANCH  20  21
ENDBRANCH   2  20
TORSDOF 11
