REMARK VINA RESULT:    -6.079      4.293     10.095
REMARK INTER + INTRA:         -12.183
REMARK INTER:                 -10.344
REMARK INTRA:                  -1.839
REMARK UNBOUND:                -1.839
REMARK  Name = lig_assembled_61.pdb
REMARK  12 active torsions:
REMARK  status: ('A' for Active; 'I' for Inactive)
REMARK    1  A    between atoms: _2  and  _8
REMARK    2  A    between atoms: _5  and  _6
REMARK    3  A    between atoms: _5  and  _12
REMARK    4  A    between atoms: _8  and  _9
REMARK    5  A    between atoms: _12  and  _14
REMARK    6  A    between atoms: _13  and  _18
REMARK    7  A    between atoms: _14  and  _17
REMARK    8  A    between atoms: _22  and  _32
REMARK    9  A    between atoms: _24  and  _25
REMARK   10  A    between atoms: _26  and  _28
REMARK   11  A    between atoms: _28  and  _30
REMARK   12  A    between atoms: _30  and  _32
REMARK                            x       y       z     vdW  Elec       q    Type
REMARK                         _______ _______ _______ _____ _____    ______ ____
ROOT
ATOM      1  C   UNL     1      27.231  14.171  -2.458  0.00  0.00    +0.152 C 
ENDROOT
BRANCH   1   3
ATOM      2  C   UNL     1      26.782  16.819  -2.936  0.00  0.00    +0.400 C 
ATOM      3  N   UNL     1      26.652  15.453  -2.850  0.00  0.00    -0.278 N 
ATOM      4  H   UNL     1      25.690  15.269  -3.278  0.00  0.00    +0.152 HD
ATOM      5  O   UNL     1      25.947  17.441  -3.588  0.00  0.00    -0.226 OA
BRANCH   2   6
ATOM      6  O   UNL     1      27.774  17.329  -2.283  0.00  0.00    -0.450 OA
BRANCH   6   7
ATOM      7  C   UNL     1      28.097  17.731  -0.972  0.00  0.00    +0.240 C 
BRANCH   7   8
ATOM      8  C   UNL     1      29.567  17.602  -0.530  0.00  0.00    +0.100 C 
BRANCH   8  10
ATOM      9  N   UNL     1      28.789  15.388   0.255  0.00  0.00    -0.134 NA
ATOM     10  C   UNL     1      29.778  16.335   0.193  0.00  0.00    +0.086 A 
ATOM     11  C   UNL     1      30.883  15.880   0.881  0.00  0.00    +0.134 A 
ATOM     12  N   UNL     1      30.480  14.679   1.386  0.00  0.00    -0.247 N 
ATOM     13  N   UNL     1      29.238  14.366   0.974  0.00  0.00    -0.065 NA
BRANCH  12  14
ATOM     14  C   UNL     1      31.228  13.762   2.228  0.00  0.00    +0.180 C 
BRANCH  14  15
ATOM     15  C   UNL     1      32.581  13.452   1.650  0.00  0.00    -0.019 A 
ATOM     16  C   UNL     1      32.798  12.810   0.382  0.00  0.00    +0.013 A 
ATOM     17  C   UNL     1      34.133  12.608   0.108  0.00  0.00    +0.045 A 
ATOM     18  S   UNL     1      35.139  13.195   1.356  0.00  0.00    -0.105 S 
ATOM     19  C   UNL     1      33.791  13.709   2.273  0.00  0.00    +0.050 A 
ENDBRANCH  14  15
ENDBRANCH  12  14
ENDBRANCH   8  10
ENDBRANCH   7   8
ENDBRANCH   6   7
ENDBRANCH   2   6
ENDBRANCH   1   3
BRANCH   1  20
ATOM     20  C   UNL     1      26.417  12.915  -2.833  0.00  0.00    +0.193 C 
ATOM     21  O   UNL     1      27.307  11.786  -2.694  0.00  0.00    -0.219 OA
BRANCH  20  22
ATOM     22  C   UNL     1      25.202  12.559  -1.947  0.00  0.00    +0.212 C 
ATOM     23  O   UNL     1      25.326  13.175  -0.655  0.00  0.00    -0.218 OA
BRANCH  22  24
ATOM     24  C   UNL     1      23.823  12.986  -2.579  0.00  0.00    +0.171 C 
ATOM     25  O   UNL     1      23.862  14.288  -3.152  0.00  0.00    -0.343 OA
ATOM     26  C   UNL     1      22.734  15.006  -3.557  0.00  0.00    +0.220 C 
ATOM     27  C   UNL     1      21.663  15.055  -2.454  0.00  0.00    +0.076 C 
ATOM     28  C   UNL     1      21.386  13.608  -2.012  0.00  0.00    +0.177 C 
ATOM     29  O   UNL     1      20.371  13.594  -1.018  0.00  0.00    -0.221 OA
ATOM     30  C   UNL     1      22.699  12.945  -1.492  0.00  0.00    +0.155 C 
BRANCH  30  31
ATOM     31  N   UNL     1      22.439  11.572  -1.065  0.00  0.00    -0.202 NA
ATOM     32  C   UNL     1      22.455  11.033   0.180  0.00  0.00    +0.242 C 
ATOM     33  C   UNL     1      21.861   9.662   0.374  0.00  0.00    +0.096 C 
ATOM     34  O   UNL     1      22.945  11.669   1.111  0.00  0.00    -0.273 OA
ENDBRANCH  30  31
BRANCH  26  35
ATOM     35  C   UNL     1      22.114  14.493  -4.969  0.00  0.00    +0.391 C 
ATOM     36  O   UNL     1      21.038  15.277  -5.180  0.00  0.00    -0.243 OA
ATOM     37  O   UNL     1      23.051  13.716  -5.524  0.00  0.00    -0.243 OA
ENDBRANCH  26  35
ENDBRANCH  22  24
ENDBRANCH  20  22
ENDBRANCH   1  20
TORSDOF 12
