REMARK VINA RESULT:    -6.853      3.500      9.777
REMARK INTER + INTRA:         -12.928
REMARK INTER:                 -11.260
REMARK INTRA:                  -1.669
REMARK UNBOUND:                -1.669
REMARK  Name = lig_assembled_70.pdb
REMARK  11 active torsions:
REMARK  status: ('A' for Active; 'I' for Inactive)
REMARK    1  A    between atoms: _2  and  _9
REMARK    2  A    between atoms: _6  and  _7
REMARK    3  A    between atoms: _6  and  _17
REMARK    4  A    between atoms: _17  and  _19
REMARK    5  A    between atoms: _18  and  _23
REMARK    6  A    between atoms: _19  and  _22
REMARK    7  A    between atoms: _27  and  _37
REMARK    8  A    between atoms: _29  and  _30
REMARK    9  A    between atoms: _31  and  _33
REMARK   10  A    between atoms: _33  and  _35
REMARK   11  A    between atoms: _35  and  _37
REMARK                            x       y       z     vdW  Elec       q    Type
REMARK                         _______ _______ _______ _____ _____    ______ ____
ROOT
ATOM      1  C   UNL     1      27.364  17.385  -2.162  0.00  0.00    +0.400 C 
ATOM      2  N   UNL     1      26.532  17.076  -3.212  0.00  0.00    -0.278 N 
ATOM      3  H   UNL     1      25.931  17.954  -3.318  0.00  0.00    +0.152 HD
ATOM      4  O   UNL     1      27.369  18.541  -1.748  0.00  0.00    -0.226 OA
ENDROOT
BRANCH   1   5
ATOM      5  O   UNL     1      28.052  16.400  -1.685  0.00  0.00    -0.450 OA
BRANCH   5   6
ATOM      6  C   UNL     1      28.665  16.011  -0.478  0.00  0.00    +0.240 C 
BRANCH   6   7
ATOM      7  C   UNL     1      29.995  16.692  -0.104  0.00  0.00    +0.100 C 
BRANCH   7   9
ATOM      8  N   UNL     1      31.870  15.136  -0.564  0.00  0.00    -0.134 NA
ATOM      9  C   UNL     1      30.988  15.687   0.321  0.00  0.00    +0.086 A 
ATOM     10  C   UNL     1      31.212  15.153   1.568  0.00  0.00    +0.140 A 
ATOM     11  N   UNL     1      32.260  14.278   1.398  0.00  0.00    -0.218 N 
ATOM     12  N   UNL     1      32.634  14.276   0.098  0.00  0.00    -0.060 NA
BRANCH  11  13
ATOM     13  C   UNL     1      32.912  13.496   2.373  0.00  0.00    +0.086 A 
ATOM     14  C   UNL     1      34.174  12.976   2.128  0.00  0.00    +0.139 A 
ATOM     15  N   UNL     1      34.878  12.254   3.037  0.00  0.00    -0.253 NA
ATOM     16  C   UNL     1      34.326  12.037   4.245  0.00  0.00    +0.071 A 
ATOM     17  C   UNL     1      33.041  12.514   4.578  0.00  0.00    +0.002 A 
ATOM     18  C   UNL     1      32.497  12.267   5.851  0.00  0.00    +0.010 A 
ATOM     19  C   UNL     1      33.231  11.569   6.805  0.00  0.00    +0.001 A 
ATOM     20  C   UNL     1      34.501  11.104   6.487  0.00  0.00    +0.002 A 
ATOM     21  C   UNL     1      35.031  11.336   5.213  0.00  0.00    +0.028 A 
ATOM     22  C   UNL     1      32.332  13.243   3.616  0.00  0.00    +0.039 A 
ENDBRANCH  11  13
ENDBRANCH   7   9
ENDBRANCH   6   7
ENDBRANCH   5   6
ENDBRANCH   1   5
BRANCH   2  23
ATOM     23  C   UNL     1      26.120  16.116  -4.233  0.00  0.00    +0.152 C 
BRANCH  23  24
ATOM     24  C   UNL     1      25.424  14.838  -3.722  0.00  0.00    +0.193 C 
ATOM     25  O   UNL     1      26.466  13.966  -3.229  0.00  0.00    -0.219 OA
BRANCH  24  26
ATOM     26  C   UNL     1      24.448  14.981  -2.533  0.00  0.00    +0.212 C 
ATOM     27  O   UNL     1      23.950  16.327  -2.453  0.00  0.00    -0.218 OA
BRANCH  26  28
ATOM     28  C   UNL     1      23.222  13.993  -2.609  0.00  0.00    +0.171 C 
ATOM     29  O   UNL     1      21.971  14.673  -2.618  0.00  0.00    -0.343 OA
ATOM     30  C   UNL     1      20.734  14.050  -2.436  0.00  0.00    +0.220 C 
ATOM     31  C   UNL     1      20.726  13.152  -1.187  0.00  0.00    +0.076 C 
ATOM     32  C   UNL     1      21.923  12.194  -1.297  0.00  0.00    +0.177 C 
ATOM     33  O   UNL     1      21.940  11.312  -0.184  0.00  0.00    -0.221 OA
ATOM     34  C   UNL     1      23.253  13.005  -1.398  0.00  0.00    +0.155 C 
BRANCH  34  35
ATOM     35  N   UNL     1      24.394  12.098  -1.496  0.00  0.00    -0.202 NA
ATOM     36  C   UNL     1      25.340  11.791  -0.573  0.00  0.00    +0.242 C 
ATOM     37  C   UNL     1      26.232  10.605  -0.830  0.00  0.00    +0.096 C 
ATOM     38  O   UNL     1      25.445  12.478   0.441  0.00  0.00    -0.273 OA
ENDBRANCH  34  35
BRANCH  30  39
ATOM     39  C   UNL     1      20.214  13.249  -3.751  0.00  0.00    +0.391 C 
ATOM     40  O   UNL     1      19.286  12.388  -3.289  0.00  0.00    -0.243 OA
ATOM     41  O   UNL     1      20.668  13.936  -4.806  0.00  0.00    -0.243 OA
ENDBRANCH  30  39
ENDBRANCH  26  28
ENDBRANCH  24  26
ENDBRANCH  23  24
ENDBRANCH   2  23
TORSDOF 11
