REMARK VINA RESULT:    -7.214      2.551      4.016
REMARK INTER + INTRA:         -12.900
REMARK INTER:                 -11.799
REMARK INTRA:                  -1.102
REMARK UNBOUND:                -0.626
REMARK  Name = lig_assembled_5.pdb
REMARK  13 active torsions:
REMARK  status: ('A' for Active; 'I' for Inactive)
REMARK    1  A    between atoms: _2  and  _8
REMARK    2  A    between atoms: _5  and  _6
REMARK    3  A    between atoms: _5  and  _15
REMARK    4  A    between atoms: _11  and  _14
REMARK    5  A    between atoms: _12  and  _14
REMARK    6  A    between atoms: _15  and  _17
REMARK    7  A    between atoms: _16  and  _21
REMARK    8  A    between atoms: _17  and  _20
REMARK    9  A    between atoms: _25  and  _35
REMARK   10  A    between atoms: _27  and  _28
REMARK   11  A    between atoms: _29  and  _31
REMARK   12  A    between atoms: _31  and  _33
REMARK   13  A    between atoms: _33  and  _35
REMARK                            x       y       z     vdW  Elec       q    Type
REMARK                         _______ _______ _______ _____ _____    ______ ____
ROOT
ATOM      1  C   UNL     1      28.199  17.096  -0.728  0.00  0.00    +0.400 C 
ATOM      2  N   UNL     1      28.993  16.136  -0.147  0.00  0.00    -0.278 N 
ATOM      3  H   UNL     1      29.295  16.588   0.774  0.00  0.00    +0.152 HD
ATOM      4  O   UNL     1      27.886  18.075  -0.054  0.00  0.00    -0.226 OA
ENDROOT
BRANCH   2   5
ATOM      5  C   UNL     1      29.583  14.802  -0.214  0.00  0.00    +0.152 C 
BRANCH   5   6
ATOM      6  C   UNL     1      31.116  14.728  -0.059  0.00  0.00    +0.193 C 
ATOM      7  O   UNL     1      31.651  15.938  -0.637  0.00  0.00    -0.219 OA
BRANCH   6   8
ATOM      8  C   UNL     1      31.689  14.701   1.376  0.00  0.00    +0.212 C 
ATOM      9  O   UNL     1      31.184  15.809   2.139  0.00  0.00    -0.218 OA
BRANCH   8  10
ATOM     10  C   UNL     1      31.366  13.367   2.152  0.00  0.00    +0.171 C 
ATOM     11  O   UNL     1      30.008  13.291   2.570  0.00  0.00    -0.343 OA
ATOM     12  C   UNL     1      29.513  12.348   3.474  0.00  0.00    +0.220 C 
ATOM     13  C   UNL     1      30.360  12.288   4.757  0.00  0.00    +0.076 C 
ATOM     14  C   UNL     1      31.823  12.075   4.335  0.00  0.00    +0.177 C 
ATOM     15  O   UNL     1      32.647  11.972   5.488  0.00  0.00    -0.221 OA
ATOM     16  C   UNL     1      32.290  13.239   3.407  0.00  0.00    +0.155 C 
BRANCH  16  17
ATOM     17  N   UNL     1      33.682  13.043   3.010  0.00  0.00    -0.202 NA
ATOM     18  C   UNL     1      34.787  13.762   3.335  0.00  0.00    +0.242 C 
ATOM     19  C   UNL     1      36.139  13.173   3.031  0.00  0.00    +0.096 C 
ATOM     20  O   UNL     1      34.660  14.864   3.867  0.00  0.00    -0.273 OA
ENDBRANCH  16  17
BRANCH  12  21
ATOM     21  C   UNL     1      29.308  10.873   2.824  0.00  0.00    +0.391 C 
ATOM     22  O   UNL     1      29.370  11.069   1.492  0.00  0.00    -0.243 OA
ATOM     23  O   UNL     1      29.459  10.002   3.829  0.00  0.00    -0.243 OA
ENDBRANCH  12  21
ENDBRANCH   8  10
ENDBRANCH   6   8
ENDBRANCH   5   6
ENDBRANCH   2   5
BRANCH   1  24
ATOM     24  O   UNL     1      27.879  16.886  -1.962  0.00  0.00    -0.450 OA
BRANCH  24  25
ATOM     25  C   UNL     1      26.913  17.300  -2.900  0.00  0.00    +0.240 C 
BRANCH  25  26
ATOM     26  C   UNL     1      26.362  16.236  -3.869  0.00  0.00    +0.100 C 
BRANCH  26  28
ATOM     27  N   UNL     1      25.169  14.935  -2.135  0.00  0.00    -0.134 NA
ATOM     28  C   UNL     1      25.142  15.622  -3.314  0.00  0.00    +0.086 A 
ATOM     29  C   UNL     1      23.857  15.617  -3.807  0.00  0.00    +0.139 A 
ATOM     30  N   UNL     1      23.118  14.930  -2.869  0.00  0.00    -0.220 N 
ATOM     31  N   UNL     1      23.940  14.511  -1.875  0.00  0.00    -0.061 NA
BRANCH  30  32
ATOM     32  C   UNL     1      21.721  14.682  -2.848  0.00  0.00    +0.067 A 
ATOM     33  C   UNL     1      20.886  15.199  -3.845  0.00  0.00    +0.031 A 
ATOM     34  C   UNL     1      19.505  14.995  -3.772  0.00  0.00    +0.048 A 
ATOM     35  C   UNL     1      18.944  14.261  -2.726  0.00  0.00    +0.120 A 
ATOM     36  C   UNL     1      19.775  13.730  -1.741  0.00  0.00    +0.048 A 
ATOM     37  C   UNL     1      21.160  13.938  -1.799  0.00  0.00    +0.031 A 
BRANCH  35  38
ATOM     38  O   UNL     1      17.579  14.190  -2.742  0.00  0.00    -0.495 OA
ATOM     39  C   UNL     1      16.899  15.251  -3.401  0.00  0.00    +0.277 C 
ENDBRANCH  35  38
ENDBRANCH  30  32
ENDBRANCH  26  28
ENDBRANCH  25  26
ENDBRANCH  24  25
ENDBRANCH   1  24
TORSDOF 12
