REMARK VINA RESULT:    -7.234      1.937      3.021
REMARK INTER + INTRA:         -14.424
REMARK INTER:                 -11.840
REMARK INTRA:                  -2.584
REMARK UNBOUND:                -1.904
REMARK  Name = lig_assembled_73.pdb
REMARK  13 active torsions:
REMARK  status: ('A' for Active; 'I' for Inactive)
REMARK    1  A    between atoms: _2  and  _9
REMARK    2  A    between atoms: _3  and  _13
REMARK    3  A    between atoms: _6  and  _7
REMARK    4  A    between atoms: _6  and  _17
REMARK    5  A    between atoms: _12  and  _15
REMARK    6  A    between atoms: _17  and  _19
REMARK    7  A    between atoms: _18  and  _23
REMARK    8  A    between atoms: _19  and  _22
REMARK    9  A    between atoms: _27  and  _37
REMARK   10  A    between atoms: _29  and  _30
REMARK   11  A    between atoms: _31  and  _33
REMARK   12  A    between atoms: _33  and  _35
REMARK   13  A    between atoms: _35  and  _37
REMARK                            x       y       z     vdW  Elec       q    Type
REMARK                         _______ _______ _______ _____ _____    ______ ____
ROOT
ATOM      1  C   UNL     1      27.579  17.219  -1.638  0.00  0.00    +0.400 C 
ATOM      2  N   UNL     1      28.048  16.080  -1.027  0.00  0.00    -0.278 N 
ATOM      3  H   UNL     1      28.428  16.439  -0.094  0.00  0.00    +0.152 HD
ATOM      4  O   UNL     1      27.527  18.253  -0.975  0.00  0.00    -0.226 OA
ENDROOT
BRANCH   2   5
ATOM      5  C   UNL     1      28.242  14.633  -1.073  0.00  0.00    +0.152 C 
BRANCH   5   6
ATOM      6  C   UNL     1      29.506  14.094  -0.372  0.00  0.00    +0.193 C 
ATOM      7  O   UNL     1      30.547  15.074  -0.583  0.00  0.00    -0.219 OA
BRANCH   6   8
ATOM      8  C   UNL     1      29.452  13.913   1.161  0.00  0.00    +0.212 C 
ATOM      9  O   UNL     1      28.180  14.344   1.672  0.00  0.00    -0.218 OA
BRANCH   8  10
ATOM     10  C   UNL     1      29.705  12.428   1.623  0.00  0.00    +0.171 C 
ATOM     11  O   UNL     1      28.595  11.877   2.325  0.00  0.00    -0.343 OA
ATOM     12  C   UNL     1      28.635  10.683   3.050  0.00  0.00    +0.220 C 
ATOM     13  C   UNL     1      29.822  10.650   4.029  0.00  0.00    +0.076 C 
ATOM     14  C   UNL     1      31.095  10.961   3.224  0.00  0.00    +0.177 C 
ATOM     15  O   UNL     1      32.230  10.904   4.076  0.00  0.00    -0.221 OA
ATOM     16  C   UNL     1      30.969  12.358   2.540  0.00  0.00    +0.155 C 
BRANCH  16  17
ATOM     17  N   UNL     1      32.179  12.661   1.780  0.00  0.00    -0.202 NA
ATOM     18  C   UNL     1      33.143  13.587   2.016  0.00  0.00    +0.242 C 
ATOM     19  C   UNL     1      34.432  13.491   1.242  0.00  0.00    +0.096 C 
ATOM     20  O   UNL     1      32.946  14.471   2.847  0.00  0.00    -0.273 OA
ENDBRANCH  16  17
BRANCH  12  21
ATOM     21  C   UNL     1      28.596   9.356   2.114  0.00  0.00    +0.391 C 
ATOM     22  O   UNL     1      28.998   8.352   2.917  0.00  0.00    -0.243 OA
ATOM     23  O   UNL     1      27.908   9.697   1.018  0.00  0.00    -0.243 OA
ENDBRANCH  12  21
ENDBRANCH   8  10
ENDBRANCH   6   8
ENDBRANCH   5   6
ENDBRANCH   2   5
BRANCH   1  24
ATOM     24  O   UNL     1      27.261  17.095  -2.884  0.00  0.00    -0.450 OA
BRANCH  24  25
ATOM     25  C   UNL     1      26.111  17.085  -3.698  0.00  0.00    +0.240 C 
BRANCH  25  26
ATOM     26  C   UNL     1      25.671  15.733  -4.289  0.00  0.00    +0.100 C 
BRANCH  26  28
ATOM     27  N   UNL     1      23.329  15.468  -3.535  0.00  0.00    -0.134 NA
ATOM     28  C   UNL     1      24.642  15.110  -3.435  0.00  0.00    +0.086 A 
ATOM     29  C   UNL     1      24.771  14.143  -2.465  0.00  0.00    +0.139 A 
ATOM     30  N   UNL     1      23.494  13.934  -1.999  0.00  0.00    -0.220 N 
ATOM     31  N   UNL     1      22.638  14.749  -2.660  0.00  0.00    -0.061 NA
BRANCH  30  32
ATOM     32  C   UNL     1      23.050  13.039  -0.991  0.00  0.00    +0.074 A 
ATOM     33  C   UNL     1      21.673  12.883  -0.754  0.00  0.00    +0.032 A 
ATOM     34  C   UNL     1      21.211  12.011   0.241  0.00  0.00    +0.054 A 
ATOM     35  C   UNL     1      22.121  11.291   1.013  0.00  0.00    +0.195 A 
ATOM     36  C   UNL     1      23.485  11.450   0.774  0.00  0.00    +0.316 A 
ATOM     37  C   UNL     1      23.968  12.310  -0.223  0.00  0.00    +0.116 A 
BRANCH  36  38
ATOM     38  N   UNL     1      24.457  10.723   1.567  0.00  0.00    +0.083 N 
ATOM     39  O   UNL     1      24.457   9.488   1.481  0.00  0.00    +0.042 OA
ATOM     40  O   UNL     1      25.155  11.393   2.342  0.00  0.00    -0.576 OA
ENDBRANCH  36  38
BRANCH  35  41
ATOM     41  O   UNL     1      21.671  10.429   1.967  0.00  0.00    -0.501 OA
ATOM     42  H   UNL     1      20.764  10.144   1.759  0.00  0.00    +0.292 HD
ENDBRANCH  35  41
ENDBRANCH  30  32
ENDBRANCH  26  28
ENDBRANCH  25  26
ENDBRANCH  24  25
ENDBRANCH   1  24
TORSDOF 13
