REMARK VINA RESULT:    -6.061      3.679      7.940
REMARK INTER + INTRA:         -13.185
REMARK INTER:                 -11.004
REMARK INTRA:                  -2.181
REMARK UNBOUND:                -1.808
REMARK  Name = lig_assembled_43.pdb
REMARK  15 active torsions:
REMARK  status: ('A' for Active; 'I' for Inactive)
REMARK    1  A    between atoms: _2  and  _8
REMARK    2  A    between atoms: _5  and  _6
REMARK    3  A    between atoms: _5  and  _13
REMARK    4  A    between atoms: _8  and  _9
REMARK    5  A    between atoms: _9  and  _10
REMARK    6  A    between atoms: _10  and  _11
REMARK    7  A    between atoms: _11  and  _12
REMARK    8  A    between atoms: _13  and  _15
REMARK    9  A    between atoms: _14  and  _19
REMARK   10  A    between atoms: _15  and  _18
REMARK   11  A    between atoms: _23  and  _33
REMARK   12  A    between atoms: _25  and  _26
REMARK   13  A    between atoms: _27  and  _29
REMARK   14  A    between atoms: _29  and  _31
REMARK   15  A    between atoms: _31  and  _33
REMARK                            x       y       z     vdW  Elec       q    Type
REMARK                         _______ _______ _______ _____ _____    ______ ____
ROOT
ATOM      1  C   UNL     1      26.509  16.062  -2.274  0.00  0.00    +0.152 C 
ENDROOT
BRANCH   1   3
ATOM      2  C   UNL     1      28.636  16.876  -0.771  0.00  0.00    +0.400 C 
ATOM      3  N   UNL     1      27.593  16.829  -1.666  0.00  0.00    -0.278 N 
ATOM      4  H   UNL     1      27.608  17.799  -2.115  0.00  0.00    +0.152 HD
ATOM      5  O   UNL     1      29.394  17.842  -0.815  0.00  0.00    -0.226 OA
BRANCH   2   6
ATOM      6  O   UNL     1      28.700  15.893   0.066  0.00  0.00    -0.450 OA
BRANCH   6   7
ATOM      7  C   UNL     1      28.827  14.491   0.058  0.00  0.00    +0.240 C 
BRANCH   7   8
ATOM      8  C   UNL     1      28.843  13.771   1.421  0.00  0.00    +0.100 C 
BRANCH   8  10
ATOM      9  N   UNL     1      27.098  12.790   2.878  0.00  0.00    -0.134 NA
ATOM     10  C   UNL     1      27.589  13.021   1.619  0.00  0.00    +0.086 A 
ATOM     11  C   UNL     1      26.744  12.450   0.695  0.00  0.00    +0.133 A 
ATOM     12  N   UNL     1      25.764  11.885   1.453  0.00  0.00    -0.251 N 
ATOM     13  N   UNL     1      25.976  12.091   2.764  0.00  0.00    -0.065 NA
BRANCH  12  14
ATOM     14  C   UNL     1      24.623  11.115   1.007  0.00  0.00    +0.145 C 
BRANCH  14  15
ATOM     15  C   UNL     1      23.766  10.654   2.182  0.00  0.00    +0.024 C 
BRANCH  15  16
ATOM     16  C   UNL     1      22.350  11.227   2.121  0.00  0.00    +0.006 C 
BRANCH  16  17
ATOM     17  C   UNL     1      21.729  10.980   0.744  0.00  0.00    +0.026 C 
BRANCH  17  18
ATOM     18  C   UNL     1      21.071  12.211   0.195  0.00  0.00    -0.034 C 
ATOM     19  C   UNL     1      21.308  12.700  -1.030  0.00  0.00    +0.004 C 
ENDBRANCH  17  18
ENDBRANCH  16  17
ENDBRANCH  15  16
ENDBRANCH  14  15
ENDBRANCH  12  14
ENDBRANCH   8  10
ENDBRANCH   7   8
ENDBRANCH   6   7
ENDBRANCH   2   6
ENDBRANCH   1   3
BRANCH   1  20
ATOM     20  C   UNL     1      26.006  16.565  -3.643  0.00  0.00    +0.193 C 
ATOM     21  O   UNL     1      27.082  17.334  -4.224  0.00  0.00    -0.219 OA
BRANCH  20  22
ATOM     22  C   UNL     1      25.668  15.504  -4.714  0.00  0.00    +0.212 C 
ATOM     23  O   UNL     1      26.744  15.385  -5.659  0.00  0.00    -0.218 OA
BRANCH  22  24
ATOM     24  C   UNL     1      25.369  14.080  -4.110  0.00  0.00    +0.171 C 
ATOM     25  O   UNL     1      26.263  13.081  -4.590  0.00  0.00    -0.343 OA
ATOM     26  C   UNL     1      26.080  11.708  -4.413  0.00  0.00    +0.220 C 
ATOM     27  C   UNL     1      24.671  11.261  -4.838  0.00  0.00    +0.076 C 
ATOM     28  C   UNL     1      23.660  12.150  -4.095  0.00  0.00    +0.177 C 
ATOM     29  O   UNL     1      22.336  11.751  -4.422  0.00  0.00    -0.221 OA
ATOM     30  C   UNL     1      23.903  13.650  -4.446  0.00  0.00    +0.155 C 
BRANCH  30  31
ATOM     31  N   UNL     1      22.940  14.498  -3.747  0.00  0.00    -0.202 NA
ATOM     32  C   UNL     1      21.762  15.012  -4.181  0.00  0.00    +0.242 C 
ATOM     33  C   UNL     1      20.823  15.607  -3.164  0.00  0.00    +0.096 C 
ATOM     34  O   UNL     1      21.489  14.979  -5.379  0.00  0.00    -0.273 OA
ENDBRANCH  30  31
BRANCH  26  35
ATOM     35  C   UNL     1      26.443  11.194  -2.916  0.00  0.00    +0.391 C 
ATOM     36  O   UNL     1      25.639  10.134  -2.707  0.00  0.00    -0.243 OA
ATOM     37  O   UNL     1      27.584  11.809  -2.580  0.00  0.00    -0.243 OA
ENDBRANCH  26  35
ENDBRANCH  22  24
ENDBRANCH  20  22
ENDBRANCH   1  20
TORSDOF 15
