REMARK VINA RESULT:    -5.878      3.128      9.573
REMARK INTER + INTRA:         -12.659
REMARK INTER:                 -11.341
REMARK INTRA:                  -1.317
REMARK UNBOUND:                -2.657
REMARK  Name = lig_assembled_46.pdb
REMARK  12 active torsions:
REMARK  status: ('A' for Active; 'I' for Inactive)
REMARK    1  A    between atoms: _2  and  _8
REMARK    2  A    between atoms: _5  and  _6
REMARK    3  A    between atoms: _5  and  _14
REMARK    4  A    between atoms: _8  and  _9
REMARK    5  A    between atoms: _14  and  _16
REMARK    6  A    between atoms: _15  and  _20
REMARK    7  A    between atoms: _16  and  _19
REMARK    8  A    between atoms: _24  and  _34
REMARK    9  A    between atoms: _26  and  _27
REMARK   10  A    between atoms: _28  and  _30
REMARK   11  A    between atoms: _30  and  _32
REMARK   12  A    between atoms: _32  and  _34
REMARK                            x       y       z     vdW  Elec       q    Type
REMARK                         _______ _______ _______ _____ _____    ______ ____
ROOT
ATOM      1  C   UNL     1      27.724  17.726  -1.565  0.00  0.00    +0.400 C 
ATOM      2  N   UNL     1      26.751  16.912  -2.095  0.00  0.00    -0.278 N 
ATOM      3  H   UNL     1      25.896  17.552  -2.151  0.00  0.00    +0.152 HD
ATOM      4  O   UNL     1      27.483  18.927  -1.463  0.00  0.00    -0.226 OA
ENDROOT
BRANCH   2   5
ATOM      5  C   UNL     1      26.374  15.602  -2.618  0.00  0.00    +0.152 C 
BRANCH   5   6
ATOM      6  C   UNL     1      25.467  15.603  -3.866  0.00  0.00    +0.193 C 
ATOM      7  O   UNL     1      26.332  15.788  -5.008  0.00  0.00    -0.219 OA
BRANCH   6   8
ATOM      8  C   UNL     1      24.684  14.309  -4.182  0.00  0.00    +0.212 C 
ATOM      9  O   UNL     1      25.567  13.303  -4.703  0.00  0.00    -0.218 OA
BRANCH   8  10
ATOM     10  C   UNL     1      23.926  13.717  -2.933  0.00  0.00    +0.171 C 
ATOM     11  O   UNL     1      24.414  12.434  -2.554  0.00  0.00    -0.343 OA
ATOM     12  C   UNL     1      23.774  11.584  -1.649  0.00  0.00    +0.220 C 
ATOM     13  C   UNL     1      22.288  11.392  -1.999  0.00  0.00    +0.076 C 
ATOM     14  C   UNL     1      21.659  12.789  -2.130  0.00  0.00    +0.177 C 
ATOM     15  O   UNL     1      20.273  12.668  -2.415  0.00  0.00    -0.221 OA
ATOM     16  C   UNL     1      22.396  13.608  -3.235  0.00  0.00    +0.155 C 
BRANCH  16  17
ATOM     17  N   UNL     1      21.797  14.934  -3.367  0.00  0.00    -0.202 NA
ATOM     18  C   UNL     1      21.126  15.482  -4.412  0.00  0.00    +0.242 C 
ATOM     19  C   UNL     1      20.357  16.757  -4.179  0.00  0.00    +0.096 C 
ATOM     20  O   UNL     1      21.159  14.933  -5.511  0.00  0.00    -0.273 OA
ENDBRANCH  16  17
BRANCH  12  21
ATOM     21  C   UNL     1      23.970  12.025  -0.097  0.00  0.00    +0.391 C 
ATOM     22  O   UNL     1      22.934  11.465   0.557  0.00  0.00    -0.243 OA
ATOM     23  O   UNL     1      25.215  12.508  -0.004  0.00  0.00    -0.243 OA
ENDBRANCH  12  21
ENDBRANCH   8  10
ENDBRANCH   6   8
ENDBRANCH   5   6
ENDBRANCH   2   5
BRANCH   1  24
ATOM     24  O   UNL     1      28.808  17.131  -1.189  0.00  0.00    -0.450 OA
BRANCH  24  25
ATOM     25  C   UNL     1      29.718  17.148  -0.114  0.00  0.00    +0.240 C 
BRANCH  25  26
ATOM     26  C   UNL     1      30.969  16.256  -0.228  0.00  0.00    +0.100 C 
BRANCH  26  28
ATOM     27  N   UNL     1      29.653  14.630   1.098  0.00  0.00    -0.134 NA
ATOM     28  C   UNL     1      30.872  15.114   0.701  0.00  0.00    +0.086 A 
ATOM     29  C   UNL     1      31.867  14.348   1.268  0.00  0.00    +0.134 A 
ATOM     30  N   UNL     1      31.190  13.380   1.953  0.00  0.00    -0.247 N 
ATOM     31  N   UNL     1      29.858  13.563   1.858  0.00  0.00    -0.065 NA
BRANCH  30  32
ATOM     32  C   UNL     1      31.722  12.140   2.491  0.00  0.00    +0.180 C 
BRANCH  32  33
ATOM     33  C   UNL     1      32.107  12.225   3.947  0.00  0.00    -0.026 A 
ATOM     34  C   UNL     1      33.391  12.642   4.331  0.00  0.00    +0.005 A 
ATOM     35  C   UNL     1      33.708  12.810   5.682  0.00  0.00    +0.000 A 
ATOM     36  C   UNL     1      32.747  12.565   6.661  0.00  0.00    +0.000 A 
ATOM     37  C   UNL     1      31.472  12.143   6.294  0.00  0.00    +0.000 A 
ATOM     38  C   UNL     1      31.153  11.974   4.945  0.00  0.00    +0.005 A 
ENDBRANCH  32  33
ENDBRANCH  30  32
ENDBRANCH  26  28
ENDBRANCH  25  26
ENDBRANCH  24  25
ENDBRANCH   1  24
TORSDOF 12
