REMARK VINA RESULT:    -6.189      2.192      3.198
REMARK INTER + INTRA:         -16.326
REMARK INTER:                 -13.141
REMARK INTRA:                  -3.185
REMARK UNBOUND:                -2.358
REMARK  Name = lig_assembled_30.pdb
REMARK  22 active torsions:
REMARK  status: ('A' for Active; 'I' for Inactive)
REMARK    1  A    between atoms: _2  and  _8
REMARK    2  A    between atoms: _4  and  _17
REMARK    3  A    between atoms: _4  and  _18
REMARK    4  A    between atoms: _5  and  _6
REMARK    5  A    between atoms: _5  and  _20
REMARK    6  A    between atoms: _8  and  _9
REMARK    7  A    between atoms: _9  and  _10
REMARK    8  A    between atoms: _10  and  _11
REMARK    9  A    between atoms: _11  and  _12
REMARK   10  A    between atoms: _12  and  _13
REMARK   11  A    between atoms: _13  and  _14
REMARK   12  A    between atoms: _14  and  _15
REMARK   13  A    between atoms: _15  and  _16
REMARK   14  A    between atoms: _16  and  _17
REMARK   15  A    between atoms: _20  and  _22
REMARK   16  A    between atoms: _21  and  _26
REMARK   17  A    between atoms: _22  and  _25
REMARK   18  A    between atoms: _30  and  _40
REMARK   19  A    between atoms: _32  and  _33
REMARK   20  A    between atoms: _34  and  _36
REMARK   21  A    between atoms: _36  and  _38
REMARK   22  A    between atoms: _38  and  _40
REMARK                            x       y       z     vdW  Elec       q    Type
REMARK                         _______ _______ _______ _____ _____    ______ ____
ROOT
ATOM      1  C   UNL     1      27.739  14.504  -1.575  0.00  0.00    +0.400 C 
ATOM      2  N   UNL     1      27.967  14.055  -0.295  0.00  0.00    -0.278 N 
ATOM      3  H   UNL     1      27.573  13.061  -0.308  0.00  0.00    +0.152 HD
ATOM      4  O   UNL     1      27.354  13.693  -2.413  0.00  0.00    -0.226 OA
ENDROOT
BRANCH   1   5
ATOM      5  O   UNL     1      27.926  15.769  -1.766  0.00  0.00    -0.450 OA
BRANCH   5   6
ATOM      6  C   UNL     1      27.178  16.929  -2.047  0.00  0.00    +0.240 C 
BRANCH   6   7
ATOM      7  C   UNL     1      26.720  17.144  -3.502  0.00  0.00    +0.100 C 
BRANCH   7   9
ATOM      8  N   UNL     1      25.687  15.486  -5.023  0.00  0.00    -0.134 NA
ATOM      9  C   UNL     1      25.650  16.192  -3.848  0.00  0.00    +0.086 A 
ATOM     10  C   UNL     1      24.513  15.848  -3.151  0.00  0.00    +0.133 A 
ATOM     11  N   UNL     1      23.905  14.931  -3.954  0.00  0.00    -0.251 N 
ATOM     12  N   UNL     1      24.608  14.717  -5.077  0.00  0.00    -0.065 NA
BRANCH  11  13
ATOM     13  C   UNL     1      22.642  14.259  -3.738  0.00  0.00    +0.145 C 
BRANCH  13  14
ATOM     14  C   UNL     1      22.244  14.293  -2.267  0.00  0.00    +0.023 C 
BRANCH  14  15
ATOM     15  C   UNL     1      20.729  14.216  -2.083  0.00  0.00    +0.002 C 
BRANCH  15  16
ATOM     16  C   UNL     1      20.393  13.563  -0.742  0.00  0.00    +0.000 C 
BRANCH  16  17
ATOM     17  C   UNL     1      21.213  12.298  -0.507  0.00  0.00    +0.000 C 
BRANCH  17  18
ATOM     18  C   UNL     1      21.482  12.096   0.986  0.00  0.00    +0.000 C 
BRANCH  18  19
ATOM     19  C   UNL     1      21.940  10.669   1.269  0.00  0.00    +0.000 C 
BRANCH  19  20
ATOM     20  C   UNL     1      22.964  10.191   0.239  0.00  0.00    +0.001 C 
BRANCH  20  21
ATOM     21  C   UNL     1      24.379  10.289   0.808  0.00  0.00    +0.011 C 
BRANCH  21  22
ATOM     22  C   UNL     1      25.403  10.636  -0.270  0.00  0.00    +0.120 C 
BRANCH  22  23
ATOM     23  C   UNL     1      24.947  11.811  -1.106  0.00  0.00    +0.305 C 
ATOM     24  O   UNL     1      24.569  11.753  -2.265  0.00  0.00    -0.251 OA
BRANCH  23  25
ATOM     25  O   UNL     1      24.999  12.979  -0.425  0.00  0.00    -0.481 OA
ATOM     26  H   UNL     1      24.127  13.398  -0.298  0.00  0.00    +0.295 HD
ENDBRANCH  23  25
ENDBRANCH  22  23
ENDBRANCH  21  22
ENDBRANCH  20  21
ENDBRANCH  19  20
ENDBRANCH  18  19
ENDBRANCH  17  18
ENDBRANCH  16  17
ENDBRANCH  15  16
ENDBRANCH  14  15
ENDBRANCH  13  14
ENDBRANCH  11  13
ENDBRANCH   7   9
ENDBRANCH   6   7
ENDBRANCH   5   6
ENDBRANCH   1   5
BRANCH   2  27
ATOM     27  C   UNL     1      28.505  14.316   1.037  0.00  0.00    +0.152 C 
BRANCH  27  28
ATOM     28  C   UNL     1      29.920  14.928   1.091  0.00  0.00    +0.193 C 
ATOM     29  O   UNL     1      30.739  14.016   1.855  0.00  0.00    -0.219 OA
BRANCH  28  30
ATOM     30  C   UNL     1      30.676  15.098  -0.245  0.00  0.00    +0.212 C 
ATOM     31  O   UNL     1      31.147  16.448  -0.388  0.00  0.00    -0.218 OA
BRANCH  30  32
ATOM     32  C   UNL     1      31.902  14.119  -0.398  0.00  0.00    +0.171 C 
ATOM     33  O   UNL     1      33.122  14.805  -0.659  0.00  0.00    -0.343 OA
ATOM     34  C   UNL     1      34.303  14.183  -1.074  0.00  0.00    +0.220 C 
ATOM     35  C   UNL     1      34.066  13.255  -2.278  0.00  0.00    +0.076 C 
ATOM     36  C   UNL     1      32.925  12.294  -1.904  0.00  0.00    +0.177 C 
ATOM     37  O   UNL     1      32.692  11.386  -2.971  0.00  0.00    -0.221 OA
ATOM     38  C   UNL     1      31.636  13.100  -1.554  0.00  0.00    +0.155 C 
BRANCH  38  39
ATOM     39  N   UNL     1      30.548  12.191  -1.206  0.00  0.00    -0.202 NA
ATOM     40  C   UNL     1      30.454  11.301  -0.185  0.00  0.00    +0.242 C 
ATOM     41  C   UNL     1      29.106  10.701   0.119  0.00  0.00    +0.096 C 
ATOM     42  O   UNL     1      31.459  11.010   0.461  0.00  0.00    -0.273 OA
ENDBRANCH  38  39
BRANCH  34  43
ATOM     43  C   UNL     1      35.087  13.417   0.125  0.00  0.00    +0.391 C 
ATOM     44  O   UNL     1      34.229  13.429   1.165  0.00  0.00    -0.243 OA
ATOM     45  O   UNL     1      36.135  12.812  -0.446  0.00  0.00    -0.243 OA
ENDBRANCH  34  43
ENDBRANCH  30  32
ENDBRANCH  28  30
ENDBRANCH  27  28
ENDBRANCH   2  27
TORSDOF 22
