REMARK VINA RESULT:    -7.134      2.212      4.037
REMARK INTER + INTRA:         -15.092
REMARK INTER:                 -13.183
REMARK INTRA:                  -1.909
REMARK UNBOUND:                -2.327
REMARK  Name = lig_assembled_68.pdb
REMARK  14 active torsions:
REMARK  status: ('A' for Active; 'I' for Inactive)
REMARK    1  A    between atoms: _2  and  _8
REMARK    2  A    between atoms: _5  and  _6
REMARK    3  A    between atoms: _5  and  _16
REMARK    4  A    between atoms: _8  and  _9
REMARK    5  A    between atoms: _9  and  _10
REMARK    6  A    between atoms: _9  and  _15
REMARK    7  A    between atoms: _16  and  _18
REMARK    8  A    between atoms: _17  and  _22
REMARK    9  A    between atoms: _18  and  _21
REMARK   10  A    between atoms: _26  and  _36
REMARK   11  A    between atoms: _28  and  _29
REMARK   12  A    between atoms: _30  and  _32
REMARK   13  A    between atoms: _32  and  _34
REMARK   14  A    between atoms: _34  and  _36
REMARK                            x       y       z     vdW  Elec       q    Type
REMARK                         _______ _______ _______ _____ _____    ______ ____
ROOT
ATOM      1  C   UNL     1      28.315  17.618  -0.563  0.00  0.00    +0.400 C 
ATOM      2  N   UNL     1      29.519  17.483   0.088  0.00  0.00    -0.278 N 
ATOM      3  H   UNL     1      29.504  18.276   0.804  0.00  0.00    +0.152 HD
ATOM      4  O   UNL     1      27.494  18.408  -0.104  0.00  0.00    -0.226 OA
ENDROOT
BRANCH   2   5
ATOM      5  C   UNL     1      30.772  16.750   0.246  0.00  0.00    +0.152 C 
BRANCH   5   6
ATOM      6  C   UNL     1      30.683  15.215   0.119  0.00  0.00    +0.193 C 
ATOM      7  O   UNL     1      31.596  14.832  -0.933  0.00  0.00    -0.219 OA
BRANCH   6   8
ATOM      8  C   UNL     1      31.119  14.370   1.336  0.00  0.00    +0.212 C 
ATOM      9  O   UNL     1      31.437  15.221   2.449  0.00  0.00    -0.218 OA
BRANCH   8  10
ATOM     10  C   UNL     1      30.031  13.326   1.794  0.00  0.00    +0.171 C 
ATOM     11  O   UNL     1      28.723  13.886   1.846  0.00  0.00    -0.343 OA
ATOM     12  C   UNL     1      27.623  13.266   2.444  0.00  0.00    +0.220 C 
ATOM     13  C   UNL     1      27.943  12.791   3.872  0.00  0.00    +0.076 C 
ATOM     14  C   UNL     1      29.213  11.926   3.798  0.00  0.00    +0.177 C 
ATOM     15  O   UNL     1      29.531  11.426   5.089  0.00  0.00    -0.221 OA
ATOM     16  C   UNL     1      30.394  12.755   3.204  0.00  0.00    +0.155 C 
BRANCH  16  17
ATOM     17  N   UNL     1      31.603  11.940   3.138  0.00  0.00    -0.202 NA
ATOM     18  C   UNL     1      32.750  12.028   3.860  0.00  0.00    +0.242 C 
ATOM     19  C   UNL     1      33.724  10.881   3.798  0.00  0.00    +0.096 C 
ATOM     20  O   UNL     1      32.964  13.029   4.540  0.00  0.00    -0.273 OA
ENDBRANCH  16  17
BRANCH  12  21
ATOM     21  C   UNL     1      26.986  12.072   1.546  0.00  0.00    +0.391 C 
ATOM     22  O   UNL     1      26.191  11.388   2.391  0.00  0.00    -0.243 OA
ATOM     23  O   UNL     1      27.243  12.391   0.271  0.00  0.00    -0.243 OA
ENDBRANCH  12  21
ENDBRANCH   8  10
ENDBRANCH   6   8
ENDBRANCH   5   6
ENDBRANCH   2   5
BRANCH   1  24
ATOM     24  O   UNL     1      28.176  16.909  -1.634  0.00  0.00    -0.450 OA
BRANCH  24  25
ATOM     25  C   UNL     1      27.185  16.158  -2.296  0.00  0.00    +0.240 C 
BRANCH  25  26
ATOM     26  C   UNL     1      26.669  16.694  -3.645  0.00  0.00    +0.100 C 
BRANCH  26  28
ATOM     27  N   UNL     1      25.617  15.261  -5.375  0.00  0.00    -0.134 NA
ATOM     28  C   UNL     1      25.561  15.861  -4.142  0.00  0.00    +0.086 A 
ATOM     29  C   UNL     1      24.361  15.546  -3.546  0.00  0.00    +0.133 A 
ATOM     30  N   UNL     1      23.737  14.749  -4.460  0.00  0.00    -0.249 N 
ATOM     31  N   UNL     1      24.490  14.589  -5.563  0.00  0.00    -0.065 NA
BRANCH  30  32
ATOM     32  C   UNL     1      22.400  14.199  -4.391  0.00  0.00    +0.181 C 
BRANCH  32  33
ATOM     33  C   UNL     1      22.388  12.781  -3.804  0.00  0.00    +0.166 C 
BRANCH  33  34
ATOM     34  C   UNL     1      21.852  12.695  -2.382  0.00  0.00    -0.017 A 
ATOM     35  C   UNL     1      22.336  11.681  -1.535  0.00  0.00    +0.006 A 
ATOM     36  C   UNL     1      21.891  11.581  -0.215  0.00  0.00    +0.000 A 
ATOM     37  C   UNL     1      20.963  12.492   0.280  0.00  0.00    +0.000 A 
ATOM     38  C   UNL     1      20.489  13.512  -0.537  0.00  0.00    +0.000 A 
ATOM     39  C   UNL     1      20.933  13.616  -1.859  0.00  0.00    +0.006 A 
ENDBRANCH  33  34
BRANCH  33  40
ATOM     40  O   UNL     1      23.723  12.263  -3.805  0.00  0.00    -0.385 OA
ATOM     41  H   UNL     1      24.051  12.270  -2.890  0.00  0.00    +0.210 HD
ENDBRANCH  33  40
ENDBRANCH  32  33
ENDBRANCH  30  32
ENDBRANCH  26  28
ENDBRANCH  25  26
ENDBRANCH  24  25
ENDBRANCH   1  24
TORSDOF 14
