REMARK VINA RESULT:    -5.906      1.496      2.053
REMARK INTER + INTRA:         -12.681
REMARK INTER:                 -11.079
REMARK INTRA:                  -1.602
REMARK UNBOUND:                -2.287
REMARK  Name = lig_assembled_67.pdb
REMARK  13 active torsions:
REMARK  status: ('A' for Active; 'I' for Inactive)
REMARK    1  A    between atoms: _2  and  _8
REMARK    2  A    between atoms: _5  and  _6
REMARK    3  A    between atoms: _5  and  _14
REMARK    4  A    between atoms: _8  and  _9
REMARK    5  A    between atoms: _9  and  _10
REMARK    6  A    between atoms: _14  and  _16
REMARK    7  A    between atoms: _15  and  _20
REMARK    8  A    between atoms: _16  and  _19
REMARK    9  A    between atoms: _24  and  _34
REMARK   10  A    between atoms: _26  and  _27
REMARK   11  A    between atoms: _28  and  _30
REMARK   12  A    between atoms: _30  and  _32
REMARK   13  A    between atoms: _32  and  _34
REMARK                            x       y       z     vdW  Elec       q    Type
REMARK                         _______ _______ _______ _____ _____    ______ ____
ROOT
ATOM      1  C   UNL     1      27.811  17.416  -1.172  0.00  0.00    +0.400 C 
ATOM      2  N   UNL     1      28.265  16.263  -0.575  0.00  0.00    -0.278 N 
ATOM      3  H   UNL     1      28.434  16.559   0.437  0.00  0.00    +0.152 HD
ATOM      4  O   UNL     1      27.543  18.375  -0.452  0.00  0.00    -0.226 OA
ENDROOT
BRANCH   2   5
ATOM      5  C   UNL     1      28.598  14.847  -0.699  0.00  0.00    +0.152 C 
BRANCH   5   6
ATOM      6  C   UNL     1      29.194  14.177   0.557  0.00  0.00    +0.193 C 
ATOM      7  O   UNL     1      28.180  14.242   1.583  0.00  0.00    -0.219 OA
BRANCH   6   8
ATOM      8  C   UNL     1      29.555  12.678   0.464  0.00  0.00    +0.212 C 
ATOM      9  O   UNL     1      29.822  12.309  -0.898  0.00  0.00    -0.218 OA
BRANCH   8  10
ATOM     10  C   UNL     1      30.798  12.279   1.348  0.00  0.00    +0.171 C 
ATOM     11  O   UNL     1      30.467  12.138   2.726  0.00  0.00    -0.343 OA
ATOM     12  C   UNL     1      31.406  12.032   3.755  0.00  0.00    +0.220 C 
ATOM     13  C   UNL     1      32.463  13.148   3.680  0.00  0.00    +0.076 C 
ATOM     14  C   UNL     1      33.053  13.131   2.260  0.00  0.00    +0.177 C 
ATOM     15  O   UNL     1      34.067  14.120   2.148  0.00  0.00    -0.221 OA
ATOM     16  C   UNL     1      31.925  13.354   1.206  0.00  0.00    +0.155 C 
BRANCH  16  17
ATOM     17  N   UNL     1      32.483  13.346  -0.144  0.00  0.00    -0.202 NA
ATOM     18  C   UNL     1      32.695  14.377  -1.001  0.00  0.00    +0.242 C 
ATOM     19  C   UNL     1      33.555  14.132  -2.214  0.00  0.00    +0.096 C 
ATOM     20  O   UNL     1      32.189  15.473  -0.771  0.00  0.00    -0.273 OA
ENDBRANCH  16  17
BRANCH  12  21
ATOM     21  C   UNL     1      32.095  10.563   3.854  0.00  0.00    +0.391 C 
ATOM     22  O   UNL     1      33.211  10.751   4.585  0.00  0.00    -0.243 OA
ATOM     23  O   UNL     1      31.165   9.691   3.445  0.00  0.00    -0.243 OA
ENDBRANCH  12  21
ENDBRANCH   8  10
ENDBRANCH   6   8
ENDBRANCH   5   6
ENDBRANCH   2   5
BRANCH   1  24
ATOM     24  O   UNL     1      27.738  17.387  -2.462  0.00  0.00    -0.450 OA
BRANCH  24  25
ATOM     25  C   UNL     1      26.761  17.391  -3.477  0.00  0.00    +0.240 C 
BRANCH  25  26
ATOM     26  C   UNL     1      26.363  16.033  -4.086  0.00  0.00    +0.100 C 
BRANCH  26  28
ATOM     27  N   UNL     1      24.069  15.935  -3.164  0.00  0.00    -0.134 NA
ATOM     28  C   UNL     1      25.321  15.387  -3.266  0.00  0.00    +0.086 A 
ATOM     29  C   UNL     1      25.371  14.235  -2.515  0.00  0.00    +0.133 A 
ATOM     30  N   UNL     1      24.122  14.139  -1.978  0.00  0.00    -0.251 N 
ATOM     31  N   UNL     1      23.343  15.161  -2.367  0.00  0.00    -0.065 NA
BRANCH  30  32
ATOM     32  C   UNL     1      23.597  13.109  -1.109  0.00  0.00    +0.150 C 
BRANCH  32  33
ATOM     33  C   UNL     1      24.673  12.375  -0.312  0.00  0.00    +0.084 C 
BRANCH  33  34
ATOM     34  C   UNL     1      24.084  11.388   0.686  0.00  0.00    +0.252 C 
ATOM     35  O   UNL     1      22.749  11.774   1.034  0.00  0.00    -0.349 OA
ATOM     36  C   UNL     1      22.122  10.530   1.340  0.00  0.00    +0.191 C 
ATOM     37  C   UNL     1      22.742   9.575   0.352  0.00  0.00    +0.191 C 
ATOM     38  O   UNL     1      24.064  10.068   0.132  0.00  0.00    -0.349 OA
ENDBRANCH  33  34
ENDBRANCH  32  33
ENDBRANCH  30  32
ENDBRANCH  26  28
ENDBRANCH  25  26
ENDBRANCH  24  25
ENDBRANCH   1  24
TORSDOF 13
