REMARK VINA RESULT:    -6.212      1.844      2.321
REMARK INTER + INTRA:         -13.468
REMARK INTER:                 -12.176
REMARK INTRA:                  -1.292
REMARK UNBOUND:                -1.808
REMARK  Name = lig_assembled_43.pdb
REMARK  15 active torsions:
REMARK  status: ('A' for Active; 'I' for Inactive)
REMARK    1  A    between atoms: _2  and  _8
REMARK    2  A    between atoms: _5  and  _6
REMARK    3  A    between atoms: _5  and  _13
REMARK    4  A    between atoms: _8  and  _9
REMARK    5  A    between atoms: _9  and  _10
REMARK    6  A    between atoms: _10  and  _11
REMARK    7  A    between atoms: _11  and  _12
REMARK    8  A    between atoms: _13  and  _15
REMARK    9  A    between atoms: _14  and  _19
REMARK   10  A    between atoms: _15  and  _18
REMARK   11  A    between atoms: _23  and  _33
REMARK   12  A    between atoms: _25  and  _26
REMARK   13  A    between atoms: _27  and  _29
REMARK   14  A    between atoms: _29  and  _31
REMARK   15  A    between atoms: _31  and  _33
REMARK                            x       y       z     vdW  Elec       q    Type
REMARK                         _______ _______ _______ _____ _____    ______ ____
ROOT
ATOM      1  C   UNL     1      29.040  14.855  -0.165  0.00  0.00    +0.152 C 
ENDROOT
BRANCH   1   3
ATOM      2  C   UNL     1      27.933  17.269  -0.790  0.00  0.00    +0.400 C 
ATOM      3  N   UNL     1      28.529  16.222  -0.127  0.00  0.00    -0.278 N 
ATOM      4  H   UNL     1      28.655  16.598   0.865  0.00  0.00    +0.152 HD
ATOM      5  O   UNL     1      27.543  18.228  -0.128  0.00  0.00    -0.226 OA
BRANCH   2   6
ATOM      6  O   UNL     1      27.868  17.153  -2.076  0.00  0.00    -0.450 OA
BRANCH   6   7
ATOM      7  C   UNL     1      27.016  17.510  -3.140  0.00  0.00    +0.240 C 
BRANCH   7   8
ATOM      8  C   UNL     1      26.453  16.372  -4.012  0.00  0.00    +0.100 C 
BRANCH   8  10
ATOM      9  N   UNL     1      25.978  14.425  -2.558  0.00  0.00    -0.134 NA
ATOM     10  C   UNL     1      25.528  15.534  -3.227  0.00  0.00    +0.086 A 
ATOM     11  C   UNL     1      24.173  15.662  -3.025  0.00  0.00    +0.133 A 
ATOM     12  N   UNL     1      23.858  14.601  -2.232  0.00  0.00    -0.251 N 
ATOM     13  N   UNL     1      24.942  13.860  -1.950  0.00  0.00    -0.065 NA
BRANCH  12  14
ATOM     14  C   UNL     1      22.556  14.215  -1.733  0.00  0.00    +0.145 C 
BRANCH  14  15
ATOM     15  C   UNL     1      22.214  12.779  -2.117  0.00  0.00    +0.024 C 
BRANCH  15  16
ATOM     16  C   UNL     1      20.943  12.284  -1.424  0.00  0.00    +0.006 C 
BRANCH  16  17
ATOM     17  C   UNL     1      20.957  12.667   0.058  0.00  0.00    +0.026 C 
BRANCH  17  18
ATOM     18  C   UNL     1      21.836  11.757   0.865  0.00  0.00    -0.034 C 
ATOM     19  C   UNL     1      21.651  11.505   2.168  0.00  0.00    +0.004 C 
ENDBRANCH  17  18
ENDBRANCH  16  17
ENDBRANCH  15  16
ENDBRANCH  14  15
ENDBRANCH  12  14
ENDBRANCH   8  10
ENDBRANCH   7   8
ENDBRANCH   6   7
ENDBRANCH   2   6
ENDBRANCH   1   3
BRANCH   1  20
ATOM     20  C   UNL     1      30.466  14.647   0.384  0.00  0.00    +0.193 C 
ATOM     21  O   UNL     1      31.228  15.818   0.015  0.00  0.00    -0.219 OA
BRANCH  20  22
ATOM     22  C   UNL     1      30.635  14.544   1.916  0.00  0.00    +0.212 C 
ATOM     23  O   UNL     1      29.460  13.971   2.513  0.00  0.00    -0.218 OA
BRANCH  22  24
ATOM     24  C   UNL     1      31.888  13.692   2.351  0.00  0.00    +0.171 C 
ATOM     25  O   UNL     1      33.095  14.446   2.334  0.00  0.00    -0.343 OA
ATOM     26  C   UNL     1      34.373  13.890   2.436  0.00  0.00    +0.220 C 
ATOM     27  C   UNL     1      34.574  12.736   1.439  0.00  0.00    +0.076 C 
ATOM     28  C   UNL     1      33.418  11.743   1.641  0.00  0.00    +0.177 C 
ATOM     29  O   UNL     1      33.578  10.633   0.768  0.00  0.00    -0.221 OA
ATOM     30  C   UNL     1      32.050  12.455   1.407  0.00  0.00    +0.155 C 
BRANCH  30  31
ATOM     31  N   UNL     1      30.949  11.513   1.592  0.00  0.00    -0.202 NA
ATOM     32  C   UNL     1      30.130  10.944   0.671  0.00  0.00    +0.242 C 
ATOM     33  C   UNL     1      29.271   9.783   1.098  0.00  0.00    +0.096 C 
ATOM     34  O   UNL     1      30.109  11.383  -0.477  0.00  0.00    -0.273 OA
ENDBRANCH  30  31
BRANCH  26  35
ATOM     35  C   UNL     1      34.767  13.448   3.949  0.00  0.00    +0.391 C 
ATOM     36  O   UNL     1      35.790  12.584   3.803  0.00  0.00    -0.243 OA
ATOM     37  O   UNL     1      34.149  14.315   4.761  0.00  0.00    -0.243 OA
ENDBRANCH  26  35
ENDBRANCH  22  24
ENDBRANCH  20  22
ENDBRANCH   1  20
TORSDOF 15
