REMARK VINA RESULT:    -6.968      2.746      9.738
REMARK INTER + INTRA:         -14.938
REMARK INTER:                 -12.391
REMARK INTRA:                  -2.548
REMARK UNBOUND:                -1.860
REMARK  Name = lig_assembled_37.pdb
REMARK  16 active torsions:
REMARK  status: ('A' for Active; 'I' for Inactive)
REMARK    1  A    between atoms: _2  and  _8
REMARK    2  A    between atoms: _5  and  _6
REMARK    3  A    between atoms: _5  and  _19
REMARK    4  A    between atoms: _8  and  _9
REMARK    5  A    between atoms: _8  and  _10
REMARK    6  A    between atoms: _10  and  _17
REMARK    7  A    between atoms: _11  and  _12
REMARK    8  A    between atoms: _11  and  _17
REMARK    9  A    between atoms: _19  and  _21
REMARK   10  A    between atoms: _20  and  _25
REMARK   11  A    between atoms: _21  and  _24
REMARK   12  A    between atoms: _29  and  _39
REMARK   13  A    between atoms: _31  and  _32
REMARK   14  A    between atoms: _33  and  _35
REMARK   15  A    between atoms: _35  and  _37
REMARK   16  A    between atoms: _37  and  _39
REMARK                            x       y       z     vdW  Elec       q    Type
REMARK                         _______ _______ _______ _____ _____    ______ ____
ROOT
ATOM      1  C   UNL     1      27.969  17.852  -1.035  0.00  0.00    +0.400 C 
ATOM      2  N   UNL     1      27.188  17.647  -2.148  0.00  0.00    -0.278 N 
ATOM      3  H   UNL     1      26.215  17.953  -1.827  0.00  0.00    +0.152 HD
ATOM      4  O   UNL     1      27.477  18.455  -0.085  0.00  0.00    -0.226 OA
ENDROOT
BRANCH   2   5
ATOM      5  C   UNL     1      27.095  17.222  -3.542  0.00  0.00    +0.152 C 
BRANCH   5   6
ATOM      6  C   UNL     1      26.042  16.139  -3.855  0.00  0.00    +0.193 C 
ATOM      7  O   UNL     1      26.080  15.923  -5.282  0.00  0.00    -0.219 OA
BRANCH   6   8
ATOM      8  C   UNL     1      26.257  14.736  -3.246  0.00  0.00    +0.212 C 
ATOM      9  O   UNL     1      26.981  14.831  -2.009  0.00  0.00    -0.218 OA
BRANCH   8  10
ATOM     10  C   UNL     1      24.912  13.956  -2.984  0.00  0.00    +0.171 C 
ATOM     11  O   UNL     1      23.977  14.717  -2.227  0.00  0.00    -0.343 OA
ATOM     12  C   UNL     1      22.818  14.193  -1.650  0.00  0.00    +0.220 C 
ATOM     13  C   UNL     1      23.114  12.931  -0.821  0.00  0.00    +0.076 C 
ATOM     14  C   UNL     1      23.887  11.955  -1.724  0.00  0.00    +0.177 C 
ATOM     15  O   UNL     1      24.152  10.752  -1.017  0.00  0.00    -0.221 OA
ATOM     16  C   UNL     1      25.205  12.619  -2.229  0.00  0.00    +0.155 C 
BRANCH  16  17
ATOM     17  N   UNL     1      25.945  11.692  -3.081  0.00  0.00    -0.202 NA
ATOM     18  C   UNL     1      27.179  11.152  -2.911  0.00  0.00    +0.242 C 
ATOM     19  C   UNL     1      27.583   9.998  -3.791  0.00  0.00    +0.096 C 
ATOM     20  O   UNL     1      27.929  11.610  -2.051  0.00  0.00    -0.273 OA
ENDBRANCH  16  17
BRANCH  12  21
ATOM     21  C   UNL     1      21.621  13.937  -2.718  0.00  0.00    +0.391 C 
ATOM     22  O   UNL     1      20.760  13.116  -2.086  0.00  0.00    -0.243 OA
ATOM     23  O   UNL     1      21.782  14.854  -3.680  0.00  0.00    -0.243 OA
ENDBRANCH  12  21
ENDBRANCH   8  10
ENDBRANCH   6   8
ENDBRANCH   5   6
ENDBRANCH   2   5
BRANCH   1  24
ATOM     24  O   UNL     1      29.160  17.352  -1.087  0.00  0.00    -0.450 OA
BRANCH  24  25
ATOM     25  C   UNL     1      30.143  16.842  -0.218  0.00  0.00    +0.240 C 
BRANCH  25  26
ATOM     26  C   UNL     1      30.297  15.311  -0.138  0.00  0.00    +0.100 C 
BRANCH  26  28
ATOM     27  N   UNL     1      31.357  15.677   2.072  0.00  0.00    -0.134 NA
ATOM     28  C   UNL     1      31.257  14.945   0.920  0.00  0.00    +0.086 A 
ATOM     29  C   UNL     1      32.156  13.903   0.970  0.00  0.00    +0.134 A 
ATOM     30  N   UNL     1      32.792  14.070   2.164  0.00  0.00    -0.238 N 
ATOM     31  N   UNL     1      32.295  15.129   2.832  0.00  0.00    -0.065 NA
BRANCH  30  32
ATOM     32  C   UNL     1      33.821  13.254   2.781  0.00  0.00    +0.214 C 
ATOM     33  C   UNL     1      35.055  14.084   3.132  0.00  0.00    +0.045 C 
BRANCH  32  34
ATOM     34  C   UNL     1      33.296  12.551   4.012  0.00  0.00    +0.332 C 
ATOM     35  O   UNL     1      33.783  12.671   5.131  0.00  0.00    -0.248 OA
BRANCH  34  36
ATOM     36  O   UNL     1      32.222  11.772   3.712  0.00  0.00    -0.458 OA
BRANCH  36  37
ATOM     37  C   UNL     1      31.261  11.589   4.764  0.00  0.00    +0.267 C 
BRANCH  37  38
ATOM     38  C   UNL     1      29.871  11.844   4.241  0.00  0.00    -0.010 A 
ATOM     39  C   UNL     1      29.584  13.019   3.532  0.00  0.00    +0.007 A 
ATOM     40  C   UNL     1      28.303  13.244   3.022  0.00  0.00    +0.000 A 
ATOM     41  C   UNL     1      27.297  12.299   3.217  0.00  0.00    +0.000 A 
ATOM     42  C   UNL     1      27.570  11.130   3.926  0.00  0.00    +0.000 A 
ATOM     43  C   UNL     1      28.850  10.903   4.438  0.00  0.00    +0.007 A 
ENDBRANCH  37  38
ENDBRANCH  36  37
ENDBRANCH  34  36
ENDBRANCH  32  34
ENDBRANCH  30  32
ENDBRANCH  26  28
ENDBRANCH  25  26
ENDBRANCH  24  25
ENDBRANCH   1  24
TORSDOF 15
