REMARK VINA RESULT:    -5.881      2.153      3.685
REMARK INTER + INTRA:         -14.510
REMARK INTER:                 -11.939
REMARK INTRA:                  -2.571
REMARK UNBOUND:                -2.957
REMARK  Name = lig_assembled_74.pdb
REMARK  19 active torsions:
REMARK  status: ('A' for Active; 'I' for Inactive)
REMARK    1  A    between atoms: _2  and  _8
REMARK    2  A    between atoms: _4  and  _13
REMARK    3  A    between atoms: _5  and  _6
REMARK    4  A    between atoms: _5  and  _17
REMARK    5  A    between atoms: _8  and  _9
REMARK    6  A    between atoms: _9  and  _10
REMARK    7  A    between atoms: _9  and  _12
REMARK    8  A    between atoms: _10  and  _11
REMARK    9  A    between atoms: _11  and  _15
REMARK   10  A    between atoms: _12  and  _13
REMARK   11  A    between atoms: _13  and  _14
REMARK   12  A    between atoms: _17  and  _19
REMARK   13  A    between atoms: _18  and  _23
REMARK   14  A    between atoms: _19  and  _22
REMARK   15  A    between atoms: _27  and  _37
REMARK   16  A    between atoms: _29  and  _30
REMARK   17  A    between atoms: _31  and  _33
REMARK   18  A    between atoms: _33  and  _35
REMARK   19  A    between atoms: _35  and  _37
REMARK                            x       y       z     vdW  Elec       q    Type
REMARK                         _______ _______ _______ _____ _____    ______ ____
ROOT
ATOM      1  C   UNL     1      27.647  14.701  -1.460  0.00  0.00    +0.400 C 
ATOM      2  N   UNL     1      28.326  15.288  -0.417  0.00  0.00    -0.278 N 
ATOM      3  H   UNL     1      28.208  14.586   0.380  0.00  0.00    +0.152 HD
ATOM      4  O   UNL     1      27.263  13.542  -1.321  0.00  0.00    -0.226 OA
ENDROOT
BRANCH   1   5
ATOM      5  O   UNL     1      27.450  15.452  -2.493  0.00  0.00    -0.450 OA
BRANCH   5   6
ATOM      6  C   UNL     1      26.727  16.607  -2.851  0.00  0.00    +0.240 C 
BRANCH   6   7
ATOM      7  C   UNL     1      25.569  16.439  -3.853  0.00  0.00    +0.100 C 
BRANCH   7   9
ATOM      8  N   UNL     1      24.705  14.127  -4.129  0.00  0.00    -0.134 NA
ATOM      9  C   UNL     1      24.693  15.320  -3.455  0.00  0.00    +0.086 A 
ATOM     10  C   UNL     1      23.837  15.219  -2.380  0.00  0.00    +0.133 A 
ATOM     11  N   UNL     1      23.509  13.893  -2.355  0.00  0.00    -0.251 N 
ATOM     12  N   UNL     1      23.954  13.264  -3.461  0.00  0.00    -0.065 NA
BRANCH  11  13
ATOM     13  C   UNL     1      23.083  13.123  -1.203  0.00  0.00    +0.149 C 
BRANCH  13  14
ATOM     14  C   UNL     1      22.103  11.967  -1.500  0.00  0.00    +0.021 C 
BRANCH  14  15
ATOM     15  C   UNL     1      20.716  12.445  -1.978  0.00  0.00    +0.125 C 
BRANCH  15  16
ATOM     16  C   UNL     1      20.256  13.757  -1.378  0.00  0.00    +0.305 C 
ATOM     17  O   UNL     1      20.028  13.942  -0.194  0.00  0.00    -0.251 OA
BRANCH  16  18
ATOM     18  O   UNL     1      20.182  14.751  -2.282  0.00  0.00    -0.481 OA
ATOM     19  H   UNL     1      20.422  14.508  -3.194  0.00  0.00    +0.295 HD
ENDBRANCH  16  18
ENDBRANCH  15  16
ENDBRANCH  14  15
BRANCH  14  20
ATOM     20  C   UNL     1      22.029  11.031  -0.259  0.00  0.00    +0.009 C 
BRANCH  20  21
ATOM     21  C   UNL     1      22.615  11.599   1.052  0.00  0.00    -0.017 C 
ATOM     22  C   UNL     1      21.559  11.725   2.151  0.00  0.00    +0.007 C 
ATOM     23  C   UNL     1      23.759  10.712   1.558  0.00  0.00    +0.007 C 
ENDBRANCH  20  21
ENDBRANCH  14  20
ENDBRANCH  13  14
ENDBRANCH  11  13
ENDBRANCH   7   9
ENDBRANCH   6   7
ENDBRANCH   5   6
ENDBRANCH   1   5
BRANCH   2  24
ATOM     24  C   UNL     1      29.128  16.406   0.072  0.00  0.00    +0.152 C 
BRANCH  24  25
ATOM     25  C   UNL     1      30.655  16.191   0.086  0.00  0.00    +0.193 C 
ATOM     26  O   UNL     1      31.130  16.663   1.366  0.00  0.00    -0.219 OA
BRANCH  25  27
ATOM     27  C   UNL     1      31.175  14.739  -0.006  0.00  0.00    +0.212 C 
ATOM     28  O   UNL     1      32.253  14.651  -0.951  0.00  0.00    -0.218 OA
BRANCH  27  29
ATOM     29  C   UNL     1      31.667  14.164   1.376  0.00  0.00    +0.171 C 
ATOM     30  O   UNL     1      33.077  13.967   1.417  0.00  0.00    -0.343 OA
ATOM     31  C   UNL     1      33.745  13.251   2.413  0.00  0.00    +0.220 C 
ATOM     32  C   UNL     1      33.112  11.868   2.643  0.00  0.00    +0.076 C 
ATOM     33  C   UNL     1      31.610  12.082   2.895  0.00  0.00    +0.177 C 
ATOM     34  O   UNL     1      30.983  10.834   3.154  0.00  0.00    -0.221 OA
ATOM     35  C   UNL     1      30.958  12.803   1.675  0.00  0.00    +0.155 C 
BRANCH  35  36
ATOM     36  N   UNL     1      29.529  13.002   1.908  0.00  0.00    -0.202 NA
ATOM     37  C   UNL     1      28.476  12.223   1.555  0.00  0.00    +0.242 C 
ATOM     38  C   UNL     1      27.133  12.511   2.175  0.00  0.00    +0.096 C 
ATOM     39  O   UNL     1      28.638  11.310   0.747  0.00  0.00    -0.273 OA
ENDBRANCH  35  36
BRANCH  31  40
ATOM     40  C   UNL     1      33.903  14.074   3.805  0.00  0.00    +0.391 C 
ATOM     41  O   UNL     1      34.637  13.272   4.601  0.00  0.00    -0.243 OA
ATOM     42  O   UNL     1      33.518  15.328   3.539  0.00  0.00    -0.243 OA
ENDBRANCH  31  40
ENDBRANCH  27  29
ENDBRANCH  25  27
ENDBRANCH  24  25
ENDBRANCH   2  24
TORSDOF 17
