REMARK VINA RESULT:    -6.903      1.927      3.270
REMARK INTER + INTRA:         -13.664
REMARK INTER:                 -11.963
REMARK INTRA:                  -1.701
REMARK UNBOUND:                -1.919
REMARK  Name = lig_assembled_41.pdb
REMARK  13 active torsions:
REMARK  status: ('A' for Active; 'I' for Inactive)
REMARK    1  A    between atoms: _2  and  _8
REMARK    2  A    between atoms: _5  and  _6
REMARK    3  A    between atoms: _5  and  _16
REMARK    4  A    between atoms: _9  and  _10
REMARK    5  A    between atoms: _10  and  _11
REMARK    6  A    between atoms: _16  and  _18
REMARK    7  A    between atoms: _17  and  _22
REMARK    8  A    between atoms: _18  and  _21
REMARK    9  A    between atoms: _26  and  _36
REMARK   10  A    between atoms: _28  and  _29
REMARK   11  A    between atoms: _30  and  _32
REMARK   12  A    between atoms: _32  and  _34
REMARK   13  A    between atoms: _34  and  _36
REMARK                            x       y       z     vdW  Elec       q    Type
REMARK                         _______ _______ _______ _____ _____    ______ ____
ROOT
ATOM      1  C   UNL     1      28.166  17.038  -0.721  0.00  0.00    +0.400 C 
ATOM      2  N   UNL     1      28.515  15.895  -0.041  0.00  0.00    -0.278 N 
ATOM      3  H   UNL     1      28.975  16.267   0.849  0.00  0.00    +0.152 HD
ATOM      4  O   UNL     1      28.270  18.114  -0.137  0.00  0.00    -0.226 OA
ENDROOT
BRANCH   2   5
ATOM      5  C   UNL     1      28.526  14.435   0.015  0.00  0.00    +0.152 C 
BRANCH   5   6
ATOM      6  C   UNL     1      29.739  13.739  -0.635  0.00  0.00    +0.193 C 
ATOM      7  O   UNL     1      30.792  14.725  -0.711  0.00  0.00    -0.219 OA
BRANCH   6   8
ATOM      8  C   UNL     1      30.375  12.553   0.123  0.00  0.00    +0.212 C 
ATOM      9  O   UNL     1      31.466  12.002  -0.631  0.00  0.00    -0.218 OA
BRANCH   8  10
ATOM     10  C   UNL     1      30.898  12.940   1.559  0.00  0.00    +0.171 C 
ATOM     11  O   UNL     1      32.308  12.785   1.688  0.00  0.00    -0.343 OA
ATOM     12  C   UNL     1      32.997  12.820   2.902  0.00  0.00    +0.220 C 
ATOM     13  C   UNL     1      32.365  11.881   3.944  0.00  0.00    +0.076 C 
ATOM     14  C   UNL     1      30.871  12.231   4.037  0.00  0.00    +0.177 C 
ATOM     15  O   UNL     1      30.246  11.416   5.019  0.00  0.00    -0.221 OA
ATOM     16  C   UNL     1      30.191  12.062   2.643  0.00  0.00    +0.155 C 
BRANCH  16  17
ATOM     17  N   UNL     1      28.770  12.387   2.729  0.00  0.00    -0.202 NA
ATOM     18  C   UNL     1      27.687  11.630   2.419  0.00  0.00    +0.242 C 
ATOM     19  C   UNL     1      26.331  12.100   2.879  0.00  0.00    +0.096 C 
ATOM     20  O   UNL     1      27.834  10.590   1.780  0.00  0.00    -0.273 OA
ENDBRANCH  16  17
BRANCH  12  21
ATOM     21  C   UNL     1      33.192  14.321   3.492  0.00  0.00    +0.391 C 
ATOM     22  O   UNL     1      32.335  15.086   2.787  0.00  0.00    -0.243 OA
ATOM     23  O   UNL     1      33.884  14.185   4.629  0.00  0.00    -0.243 OA
ENDBRANCH  12  21
ENDBRANCH   8  10
ENDBRANCH   6   8
ENDBRANCH   5   6
ENDBRANCH   2   5
BRANCH   1  24
ATOM     24  O   UNL     1      27.784  16.868  -1.944  0.00  0.00    -0.450 OA
BRANCH  24  25
ATOM     25  C   UNL     1      26.927  17.466  -2.889  0.00  0.00    +0.240 C 
BRANCH  25  26
ATOM     26  C   UNL     1      26.377  16.571  -4.016  0.00  0.00    +0.100 C 
BRANCH  26  28
ATOM     27  N   UNL     1      25.999  14.141  -3.827  0.00  0.00    -0.134 NA
ATOM     28  C   UNL     1      25.670  15.408  -3.451  0.00  0.00    +0.086 A 
ATOM     29  C   UNL     1      24.661  15.352  -2.514  0.00  0.00    +0.139 A 
ATOM     30  N   UNL     1      24.326  14.020  -2.428  0.00  0.00    -0.219 N 
ATOM     31  N   UNL     1      25.218  13.301  -3.165  0.00  0.00    -0.061 NA
BRANCH  30  32
ATOM     32  C   UNL     1      23.335  13.358  -1.647  0.00  0.00    +0.077 A 
ATOM     33  C   UNL     1      21.944  13.453  -1.865  0.00  0.00    +0.043 A 
ATOM     34  C   UNL     1      21.071  12.783  -0.983  0.00  0.00    +0.013 A 
ATOM     35  C   UNL     1      21.559  12.041   0.096  0.00  0.00    +0.001 A 
ATOM     36  C   UNL     1      22.926  11.927   0.296  0.00  0.00    +0.002 A 
ATOM     37  C   UNL     1      23.806  12.570  -0.574  0.00  0.00    +0.028 A 
BRANCH  33  38
ATOM     38  C   UNL     1      21.331  14.046  -3.094  0.00  0.00    +0.162 C 
ATOM     39  O   UNL     1      21.194  13.346  -4.095  0.00  0.00    -0.292 OA
ATOM     40  C   UNL     1      20.884  15.487  -3.102  0.00  0.00    +0.091 C 
ENDBRANCH  33  38
ENDBRANCH  30  32
ENDBRANCH  26  28
ENDBRANCH  25  26
ENDBRANCH  24  25
ENDBRANCH   1  24
TORSDOF 12
