REMARK VINA RESULT:    -6.721      2.829      5.077
REMARK INTER + INTRA:         -13.832
REMARK INTER:                 -12.025
REMARK INTRA:                  -1.807
REMARK UNBOUND:                -1.807
REMARK  Name = lig_assembled_75.pdb
REMARK  14 active torsions:
REMARK  status: ('A' for Active; 'I' for Inactive)
REMARK    1  A    between atoms: _2  and  _8
REMARK    2  A    between atoms: _5  and  _6
REMARK    3  A    between atoms: _5  and  _18
REMARK    4  A    between atoms: _10  and  _11
REMARK    5  A    between atoms: _12  and  _13
REMARK    6  A    between atoms: _13  and  _16
REMARK    7  A    between atoms: _18  and  _20
REMARK    8  A    between atoms: _19  and  _24
REMARK    9  A    between atoms: _20  and  _23
REMARK   10  A    between atoms: _28  and  _38
REMARK   11  A    between atoms: _30  and  _31
REMARK   12  A    between atoms: _32  and  _34
REMARK   13  A    between atoms: _34  and  _36
REMARK   14  A    between atoms: _36  and  _38
REMARK                            x       y       z     vdW  Elec       q    Type
REMARK                         _______ _______ _______ _____ _____    ______ ____
ROOT
ATOM      1  C   UNL     1      29.023  13.944   1.586  0.00  0.00    +0.400 C 
ATOM      2  N   UNL     1      28.970  12.887   0.709  0.00  0.00    -0.278 N 
ATOM      3  H   UNL     1      28.298  12.205   1.184  0.00  0.00    +0.152 HD
ATOM      4  O   UNL     1      28.230  13.960   2.524  0.00  0.00    -0.226 OA
ENDROOT
BRANCH   2   5
ATOM      5  C   UNL     1      29.397  12.299  -0.558  0.00  0.00    +0.152 C 
BRANCH   5   6
ATOM      6  C   UNL     1      29.970  10.869  -0.484  0.00  0.00    +0.193 C 
ATOM      7  O   UNL     1      29.530  10.183  -1.677  0.00  0.00    -0.219 OA
BRANCH   6   8
ATOM      8  C   UNL     1      31.507  10.714  -0.496  0.00  0.00    +0.212 C 
ATOM      9  O   UNL     1      31.912   9.812  -1.539  0.00  0.00    -0.218 OA
BRANCH   8  10
ATOM     10  C   UNL     1      32.271  12.079  -0.685  0.00  0.00    +0.171 C 
ATOM     11  O   UNL     1      33.114  12.081  -1.833  0.00  0.00    -0.343 OA
ATOM     12  C   UNL     1      34.078  13.055  -2.102  0.00  0.00    +0.220 C 
ATOM     13  C   UNL     1      35.000  13.295  -0.893  0.00  0.00    +0.076 C 
ATOM     14  C   UNL     1      34.103  13.588   0.321  0.00  0.00    +0.177 C 
ATOM     15  O   UNL     1      34.909  13.857   1.460  0.00  0.00    -0.221 OA
ATOM     16  C   UNL     1      33.138  12.390   0.579  0.00  0.00    +0.155 C 
BRANCH  16  17
ATOM     17  N   UNL     1      32.290  12.662   1.737  0.00  0.00    -0.202 NA
ATOM     18  C   UNL     1      32.159  11.972   2.898  0.00  0.00    +0.242 C 
ATOM     19  C   UNL     1      31.436  12.630   4.044  0.00  0.00    +0.096 C 
ATOM     20  O   UNL     1      32.629  10.839   2.988  0.00  0.00    -0.273 OA
ENDBRANCH  16  17
BRANCH  12  21
ATOM     21  C   UNL     1      33.453  14.447  -2.660  0.00  0.00    +0.391 C 
ATOM     22  O   UNL     1      33.467  15.283  -1.604  0.00  0.00    -0.243 OA
ATOM     23  O   UNL     1      33.444  14.339  -3.995  0.00  0.00    -0.243 OA
ENDBRANCH  12  21
ENDBRANCH   8  10
ENDBRANCH   6   8
ENDBRANCH   5   6
ENDBRANCH   2   5
BRANCH   1  24
ATOM     24  O   UNL     1      29.944  14.821   1.351  0.00  0.00    -0.450 OA
BRANCH  24  25
ATOM     25  C   UNL     1      30.441  15.586   0.278  0.00  0.00    +0.240 C 
BRANCH  25  26
ATOM     26  C   UNL     1      29.891  17.015   0.109  0.00  0.00    +0.100 C 
BRANCH  26  28
ATOM     27  N   UNL     1      28.102  18.175  -1.145  0.00  0.00    -0.134 NA
ATOM     28  C   UNL     1      28.737  17.015  -0.809  0.00  0.00    +0.086 A 
ATOM     29  C   UNL     1      28.120  15.964  -1.447  0.00  0.00    +0.139 A 
ATOM     30  N   UNL     1      27.100  16.535  -2.172  0.00  0.00    -0.220 N 
ATOM     31  N   UNL     1      27.109  17.877  -1.972  0.00  0.00    -0.061 NA
BRANCH  30  32
ATOM     32  C   UNL     1      26.130  15.906  -2.994  0.00  0.00    +0.068 A 
ATOM     33  C   UNL     1      24.972  15.369  -2.404  0.00  0.00    +0.035 A 
ATOM     34  C   UNL     1      24.025  14.683  -3.177  0.00  0.00    -0.023 A 
ATOM     35  C   UNL     1      24.220  14.597  -4.561  0.00  0.00    +0.008 A 
ATOM     36  C   UNL     1      25.359  15.148  -5.155  0.00  0.00    +0.003 A 
ATOM     37  C   UNL     1      26.317  15.794  -4.376  0.00  0.00    +0.028 A 
BRANCH  34  38
ATOM     38  C   UNL     1      22.824  14.068  -2.591  0.00  0.00    +0.015 C 
ATOM     39  C   UNL     1      21.667  14.723  -2.402  0.00  0.00    +0.092 C 
BRANCH  39  40
ATOM     40  C   UNL     1      20.533  14.032  -1.758  0.00  0.00    +0.330 C 
ATOM     41  O   UNL     1      20.359  13.956  -0.554  0.00  0.00    -0.246 OA
BRANCH  40  42
ATOM     42  O   UNL     1      19.690  13.496  -2.663  0.00  0.00    -0.478 OA
ATOM     43  H   UNL     1      19.883  12.579  -2.930  0.00  0.00    +0.295 HD
ENDBRANCH  40  42
ENDBRANCH  39  40
ENDBRANCH  34  38
ENDBRANCH  30  32
ENDBRANCH  26  28
ENDBRANCH  25  26
ENDBRANCH  24  25
ENDBRANCH   1  24
TORSDOF 14
