REMARK VINA RESULT:    -6.693      4.286     11.052
REMARK INTER + INTRA:         -13.164
REMARK INTER:                 -10.996
REMARK INTRA:                  -2.168
REMARK UNBOUND:                -2.168
REMARK  Name = lig_assembled_86.pdb
REMARK  12 active torsions:
REMARK  status: ('A' for Active; 'I' for Inactive)
REMARK    1  A    between atoms: _2  and  _9
REMARK    2  A    between atoms: _3  and  _12
REMARK    3  A    between atoms: _6  and  _7
REMARK    4  A    between atoms: _6  and  _16
REMARK    5  A    between atoms: _16  and  _18
REMARK    6  A    between atoms: _17  and  _22
REMARK    7  A    between atoms: _18  and  _21
REMARK    8  A    between atoms: _26  and  _36
REMARK    9  A    between atoms: _28  and  _29
REMARK   10  A    between atoms: _30  and  _32
REMARK   11  A    between atoms: _32  and  _34
REMARK   12  A    between atoms: _34  and  _36
REMARK                            x       y       z     vdW  Elec       q    Type
REMARK                         _______ _______ _______ _____ _____    ______ ____
ROOT
ATOM      1  C   UNL     1      31.481  14.069   2.457  0.00  0.00    +0.400 C 
ATOM      2  N   UNL     1      30.737  15.010   1.786  0.00  0.00    -0.278 N 
ATOM      3  H   UNL     1      29.749  14.861   2.165  0.00  0.00    +0.152 HD
ATOM      4  O   UNL     1      30.948  13.461   3.382  0.00  0.00    -0.226 OA
ENDROOT
BRANCH   1   5
ATOM      5  O   UNL     1      32.684  13.890   2.019  0.00  0.00    -0.450 OA
BRANCH   5   6
ATOM      6  C   UNL     1      34.011  13.945   2.489  0.00  0.00    +0.240 C 
BRANCH   6   7
ATOM      7  C   UNL     1      34.229  14.360   3.956  0.00  0.00    +0.100 C 
BRANCH   7   9
ATOM      8  N   UNL     1      35.261  12.201   4.607  0.00  0.00    -0.134 NA
ATOM      9  C   UNL     1      34.308  13.164   4.817  0.00  0.00    +0.086 A 
ATOM     10  C   UNL     1      33.542  12.806   5.900  0.00  0.00    +0.134 A 
ATOM     11  N   UNL     1      34.097  11.639   6.326  0.00  0.00    -0.248 N 
ATOM     12  N   UNL     1      35.111  11.260   5.530  0.00  0.00    -0.065 NA
BRANCH  11  13
ATOM     13  C   UNL     1      33.711  10.849   7.487  0.00  0.00    +0.112 C 
ATOM     14  C   UNL     1      34.677  11.056   8.671  0.00  0.00    +0.045 C 
ATOM     15  C   UNL     1      33.994  11.286  10.021  0.00  0.00    +0.059 C 
ATOM     16  C   UNL     1      33.443  12.713  10.126  0.00  0.00    +0.020 C 
ATOM     17  C   UNL     1      31.990  12.597   9.673  0.00  0.00    +0.020 C 
ATOM     18  C   UNL     1      31.831  11.132   9.262  0.00  0.00    +0.059 C 
ATOM     19  N   UNL     1      32.774  10.494  10.181  0.00  0.00    -0.299 NA
ATOM     20  C   UNL     1      32.911   9.054  10.070  0.00  0.00    +0.105 C 
ATOM     21  C   UNL     1      32.195  10.924   7.786  0.00  0.00    +0.045 C 
ENDBRANCH  11  13
ENDBRANCH   7   9
ENDBRANCH   6   7
ENDBRANCH   5   6
ENDBRANCH   1   5
BRANCH   2  22
ATOM     22  C   UNL     1      30.694  16.106   0.821  0.00  0.00    +0.152 C 
BRANCH  22  23
ATOM     23  C   UNL     1      29.409  16.217  -0.025  0.00  0.00    +0.193 C 
ATOM     24  O   UNL     1      29.665  17.214  -1.039  0.00  0.00    -0.219 OA
BRANCH  23  25
ATOM     25  C   UNL     1      28.964  14.968  -0.817  0.00  0.00    +0.212 C 
ATOM     26  O   UNL     1      30.099  14.151  -1.146  0.00  0.00    -0.218 OA
BRANCH  25  27
ATOM     27  C   UNL     1      27.912  14.083  -0.045  0.00  0.00    +0.171 C 
ATOM     28  O   UNL     1      28.523  13.183   0.874  0.00  0.00    -0.343 OA
ATOM     29  C   UNL     1      27.859  12.128   1.504  0.00  0.00    +0.220 C 
ATOM     30  C   UNL     1      27.092  11.254   0.495  0.00  0.00    +0.076 C 
ATOM     31  C   UNL     1      26.190  12.186  -0.331  0.00  0.00    +0.177 C 
ATOM     32  O   UNL     1      25.427  11.422  -1.255  0.00  0.00    -0.221 OA
ATOM     33  C   UNL     1      27.053  13.261  -1.062  0.00  0.00    +0.155 C 
BRANCH  33  34
ATOM     34  N   UNL     1      26.201  14.144  -1.854  0.00  0.00    -0.202 NA
ATOM     35  C   UNL     1      26.180  14.357  -3.194  0.00  0.00    +0.242 C 
ATOM     36  C   UNL     1      25.006  15.095  -3.783  0.00  0.00    +0.096 C 
ATOM     37  O   UNL     1      27.107  13.946  -3.889  0.00  0.00    -0.273 OA
ENDBRANCH  33  34
BRANCH  29  38
ATOM     38  C   UNL     1      26.905  12.603   2.729  0.00  0.00    +0.391 C 
ATOM     39  O   UNL     1      25.995  11.618   2.863  0.00  0.00    -0.243 OA
ATOM     40  O   UNL     1      27.546  13.615   3.327  0.00  0.00    -0.243 OA
ENDBRANCH  29  38
ENDBRANCH  25  27
ENDBRANCH  23  25
ENDBRANCH  22  23
ENDBRANCH   2  22
TORSDOF 11
