REMARK VINA RESULT:    -6.509     23.008     25.524
REMARK INTER + INTRA:         -15.912
REMARK INTER:                 -12.788
REMARK INTRA:                  -3.125
REMARK UNBOUND:                -3.125
REMARK  Name = lig_assembled_47.pdb
REMARK  17 active torsions:
REMARK  status: ('A' for Active; 'I' for Inactive)
REMARK    1  A    between atoms: _2  and  _8
REMARK    2  A    between atoms: _5  and  _6
REMARK    3  A    between atoms: _5  and  _25
REMARK    4  A    between atoms: _8  and  _9
REMARK    5  A    between atoms: _9  and  _10
REMARK    6  A    between atoms: _9  and  _11
REMARK    7  A    between atoms: _10  and  _23
REMARK    8  A    between atoms: _11  and  _12
REMARK    9  A    between atoms: _11  and  _18
REMARK   10  A    between atoms: _25  and  _27
REMARK   11  A    between atoms: _26  and  _31
REMARK   12  A    between atoms: _27  and  _30
REMARK   13  A    between atoms: _35  and  _45
REMARK   14  A    between atoms: _37  and  _38
REMARK   15  A    between atoms: _39  and  _41
REMARK   16  A    between atoms: _41  and  _43
REMARK   17  A    between atoms: _43  and  _45
REMARK                            x       y       z     vdW  Elec       q    Type
REMARK                         _______ _______ _______ _____ _____    ______ ____
ROOT
ATOM      1  C   UNL     1      23.987  38.780  10.628  0.00  0.00    +0.100 C 
ENDROOT
BRANCH   1   3
ATOM      2  N   UNL     1      24.156  38.843   8.151  0.00  0.00    -0.134 NA
ATOM      3  C   UNL     1      24.749  38.982   9.380  0.00  0.00    +0.086 A 
ATOM      4  C   UNL     1      26.081  39.289   9.199  0.00  0.00    +0.133 A 
ATOM      5  N   UNL     1      26.244  39.273   7.845  0.00  0.00    -0.251 N 
ATOM      6  N   UNL     1      25.082  39.025   7.218  0.00  0.00    -0.065 NA
BRANCH   5   7
ATOM      7  C   UNL     1      27.487  39.332   7.092  0.00  0.00    +0.160 C 
BRANCH   7   8
ATOM      8  C   UNL     1      27.949  37.975   6.551  0.00  0.00    +0.131 C 
BRANCH   8   9
ATOM      9  C   UNL     1      28.435  38.192   5.125  0.00  0.00    +0.311 C 
ATOM     10  O   UNL     1      27.842  38.894   4.321  0.00  0.00    -0.251 OA
BRANCH   9  11
ATOM     11  O   UNL     1      29.631  37.658   4.801  0.00  0.00    -0.480 OA
ATOM     12  H   UNL     1      30.067  37.946   3.982  0.00  0.00    +0.295 HD
ENDBRANCH   9  11
ENDBRANCH   8   9
BRANCH   8  13
ATOM     13  C   UNL     1      29.020  37.253   7.429  0.00  0.00    +0.064 C 
BRANCH  13  14
ATOM     14  C   UNL     1      29.846  38.157   8.346  0.00  0.00    -0.039 A 
ATOM     15  C   UNL     1      29.413  38.396   9.665  0.00  0.00    +0.004 A 
ATOM     16  C   UNL     1      30.145  39.217  10.529  0.00  0.00    +0.000 A 
ATOM     17  C   UNL     1      31.314  39.829  10.088  0.00  0.00    +0.000 A 
ATOM     18  C   UNL     1      31.748  39.621   8.783  0.00  0.00    +0.000 A 
ATOM     19  C   UNL     1      31.027  38.785   7.923  0.00  0.00    +0.004 A 
ENDBRANCH  13  14
BRANCH  13  20
ATOM     20  C   UNL     1      28.385  36.068   8.169  0.00  0.00    -0.039 A 
ATOM     21  C   UNL     1      29.195  35.075   8.747  0.00  0.00    +0.004 A 
ATOM     22  C   UNL     1      28.625  33.911   9.270  0.00  0.00    +0.000 A 
ATOM     23  C   UNL     1      27.243  33.734   9.250  0.00  0.00    +0.000 A 
ATOM     24  C   UNL     1      26.427  34.725   8.718  0.00  0.00    +0.000 A 
ATOM     25  C   UNL     1      26.993  35.881   8.184  0.00  0.00    +0.004 A 
ENDBRANCH  13  20
ENDBRANCH   8  13
ENDBRANCH   7   8
ENDBRANCH   5   7
ENDBRANCH   1   3
BRANCH   1  26
ATOM     26  C   UNL     1      22.879  37.727  10.435  0.00  0.00    +0.240 C 
BRANCH  26  27
ATOM     27  O   UNL     1      23.274  36.379  10.336  0.00  0.00    -0.450 OA
BRANCH  27  28
ATOM     28  C   UNL     1      23.414  35.340  11.093  0.00  0.00    +0.400 C 
ATOM     29  N   UNL     1      24.556  35.310  11.858  0.00  0.00    -0.278 N 
ATOM     30  H   UNL     1      24.381  34.499  12.532  0.00  0.00    +0.152 HD
ATOM     31  O   UNL     1      22.616  34.413  11.206  0.00  0.00    -0.226 OA
BRANCH  29  32
ATOM     32  C   UNL     1      25.875  35.866  12.148  0.00  0.00    +0.152 C 
BRANCH  32  33
ATOM     33  C   UNL     1      26.908  34.890  12.747  0.00  0.00    +0.193 C 
ATOM     34  O   UNL     1      28.213  35.402  12.400  0.00  0.00    -0.219 OA
BRANCH  33  35
ATOM     35  C   UNL     1      26.947  34.745  14.284  0.00  0.00    +0.212 C 
ATOM     36  O   UNL     1      26.018  35.654  14.897  0.00  0.00    -0.218 OA
BRANCH  35  37
ATOM     37  C   UNL     1      26.627  33.284  14.782  0.00  0.00    +0.171 C 
ATOM     38  O   UNL     1      25.229  33.021  14.843  0.00  0.00    -0.343 OA
ATOM     39  C   UNL     1      24.664  31.909  15.472  0.00  0.00    +0.220 C 
ATOM     40  C   UNL     1      25.197  31.731  16.905  0.00  0.00    +0.076 C 
ATOM     41  C   UNL     1      26.732  31.721  16.829  0.00  0.00    +0.177 C 
ATOM     42  O   UNL     1      27.277  31.519  18.125  0.00  0.00    -0.221 OA
ATOM     43  C   UNL     1      27.248  33.051  16.198  0.00  0.00    +0.155 C 
BRANCH  43  44
ATOM     44  N   UNL     1      28.708  33.048  16.131  0.00  0.00    -0.202 NA
ATOM     45  C   UNL     1      29.542  32.241  15.428  0.00  0.00    +0.242 C 
ATOM     46  C   UNL     1      30.990  32.641  15.306  0.00  0.00    +0.096 C 
ATOM     47  O   UNL     1      29.103  31.215  14.912  0.00  0.00    -0.273 OA
ENDBRANCH  43  44
BRANCH  39  48
ATOM     48  C   UNL     1      24.801  30.539  14.610  0.00  0.00    +0.391 C 
ATOM     49  O   UNL     1      25.180  30.938  13.381  0.00  0.00    -0.243 OA
ATOM     50  O   UNL     1      24.783  29.539  15.500  0.00  0.00    -0.243 OA
ENDBRANCH  39  48
ENDBRANCH  35  37
ENDBRANCH  33  35
ENDBRANCH  32  33
ENDBRANCH  29  32
ENDBRANCH  27  28
ENDBRANCH  26  27
ENDBRANCH   1  26
TORSDOF 17
