REMARK VINA RESULT:    -6.828      2.301      3.560
REMARK INTER + INTRA:         -12.843
REMARK INTER:                 -10.795
REMARK INTRA:                  -2.047
REMARK UNBOUND:                -1.624
REMARK  Name = lig_assembled_3.pdb
REMARK  11 active torsions:
REMARK  status: ('A' for Active; 'I' for Inactive)
REMARK    1  A    between atoms: _2  and  _8
REMARK    2  A    between atoms: _5  and  _6
REMARK    3  A    between atoms: _5  and  _13
REMARK    4  A    between atoms: _13  and  _15
REMARK    5  A    between atoms: _14  and  _19
REMARK    6  A    between atoms: _15  and  _18
REMARK    7  A    between atoms: _23  and  _33
REMARK    8  A    between atoms: _25  and  _26
REMARK    9  A    between atoms: _27  and  _29
REMARK   10  A    between atoms: _29  and  _31
REMARK   11  A    between atoms: _31  and  _33
REMARK                            x       y       z     vdW  Elec       q    Type
REMARK                         _______ _______ _______ _____ _____    ______ ____
ROOT
ATOM      1  C   UNL     1      28.834  15.251  -0.280  0.00  0.00    +0.152 C 
ENDROOT
BRANCH   1   3
ATOM      2  C   UNL     1      27.746  17.676  -0.896  0.00  0.00    +0.400 C 
ATOM      3  N   UNL     1      28.358  16.631  -0.245  0.00  0.00    -0.278 N 
ATOM      4  H   UNL     1      28.555  17.028   0.728  0.00  0.00    +0.152 HD
ATOM      5  O   UNL     1      27.421  18.659  -0.236  0.00  0.00    -0.226 OA
BRANCH   2   6
ATOM      6  O   UNL     1      27.598  17.530  -2.172  0.00  0.00    -0.450 OA
BRANCH   6   7
ATOM      7  C   UNL     1      26.593  17.191  -3.099  0.00  0.00    +0.240 C 
BRANCH   7   8
ATOM      8  C   UNL     1      26.710  15.827  -3.806  0.00  0.00    +0.100 C 
BRANCH   8  10
ATOM      9  N   UNL     1      26.342  13.558  -2.891  0.00  0.00    -0.134 NA
ATOM     10  C   UNL     1      25.879  14.821  -3.118  0.00  0.00    +0.086 A 
ATOM     11  C   UNL     1      24.606  14.932  -2.607  0.00  0.00    +0.139 A 
ATOM     12  N   UNL     1      24.338  13.704  -2.046  0.00  0.00    -0.220 N 
ATOM     13  N   UNL     1      25.399  12.883  -2.246  0.00  0.00    -0.061 NA
BRANCH  12  14
ATOM     14  C   UNL     1      23.182  13.283  -1.340  0.00  0.00    +0.067 A 
ATOM     15  C   UNL     1      21.939  13.894  -1.564  0.00  0.00    +0.028 A 
ATOM     16  C   UNL     1      20.818  13.484  -0.835  0.00  0.00    +0.002 A 
ATOM     17  C   UNL     1      20.929  12.469   0.112  0.00  0.00    +0.000 A 
ATOM     18  C   UNL     1      22.159  11.852   0.332  0.00  0.00    +0.002 A 
ATOM     19  C   UNL     1      23.285  12.254  -0.391  0.00  0.00    +0.028 A 
ENDBRANCH  12  14
ENDBRANCH   8  10
ENDBRANCH   7   8
ENDBRANCH   6   7
ENDBRANCH   2   6
ENDBRANCH   1   3
BRANCH   1  20
ATOM     20  C   UNL     1      30.344  15.046  -0.038  0.00  0.00    +0.193 C 
ATOM     21  O   UNL     1      30.812  16.213   0.673  0.00  0.00    -0.219 OA
BRANCH  20  22
ATOM     22  C   UNL     1      30.771  13.857   0.850  0.00  0.00    +0.212 C 
ATOM     23  O   UNL     1      31.418  14.328   2.043  0.00  0.00    -0.218 OA
BRANCH  22  24
ATOM     24  C   UNL     1      29.570  12.923   1.263  0.00  0.00    +0.171 C 
ATOM     25  O   UNL     1      29.554  12.636   2.658  0.00  0.00    -0.343 OA
ATOM     26  C   UNL     1      28.758  11.653   3.251  0.00  0.00    +0.220 C 
ATOM     27  C   UNL     1      28.898  10.298   2.536  0.00  0.00    +0.076 C 
ATOM     28  C   UNL     1      28.628  10.534   1.041  0.00  0.00    +0.177 C 
ATOM     29  O   UNL     1      28.705   9.302   0.337  0.00  0.00    -0.221 OA
ATOM     30  C   UNL     1      29.638  11.577   0.470  0.00  0.00    +0.155 C 
BRANCH  30  31
ATOM     31  N   UNL     1      29.390  11.798  -0.952  0.00  0.00    -0.202 NA
ATOM     32  C   UNL     1      30.235  11.686  -2.008  0.00  0.00    +0.242 C 
ATOM     33  C   UNL     1      29.648  11.684  -3.396  0.00  0.00    +0.096 C 
ATOM     34  O   UNL     1      31.444  11.588  -1.811  0.00  0.00    -0.273 OA
ENDBRANCH  30  31
BRANCH  26  35
ATOM     35  C   UNL     1      27.200  12.088   3.406  0.00  0.00    +0.391 C 
ATOM     36  O   UNL     1      26.517  10.928   3.442  0.00  0.00    -0.243 OA
ATOM     37  O   UNL     1      27.210  13.385   3.739  0.00  0.00    -0.243 OA
ENDBRANCH  26  35
ENDBRANCH  22  24
ENDBRANCH  20  22
ENDBRANCH   1  20
TORSDOF 11
