REMARK VINA RESULT:    -7.228      1.303      2.373
REMARK INTER + INTRA:         -14.298
REMARK INTER:                 -12.668
REMARK INTRA:                  -1.630
REMARK UNBOUND:                -1.577
REMARK  Name = lig_assembled_66.pdb
REMARK  13 active torsions:
REMARK  status: ('A' for Active; 'I' for Inactive)
REMARK    1  A    between atoms: _2  and  _9
REMARK    2  A    between atoms: _6  and  _7
REMARK    3  A    between atoms: _6  and  _16
REMARK    4  A    between atoms: _9  and  _10
REMARK    5  A    between atoms: _14  and  _15
REMARK    6  A    between atoms: _16  and  _18
REMARK    7  A    between atoms: _17  and  _22
REMARK    8  A    between atoms: _18  and  _21
REMARK    9  A    between atoms: _26  and  _36
REMARK   10  A    between atoms: _28  and  _29
REMARK   11  A    between atoms: _30  and  _32
REMARK   12  A    between atoms: _32  and  _34
REMARK   13  A    between atoms: _34  and  _36
REMARK                            x       y       z     vdW  Elec       q    Type
REMARK                         _______ _______ _______ _____ _____    ______ ____
ROOT
ATOM      1  C   UNL     1      28.089  17.165  -0.730  0.00  0.00    +0.400 C 
ATOM      2  N   UNL     1      28.542  16.060  -0.048  0.00  0.00    -0.278 N 
ATOM      3  H   UNL     1      28.917  16.470   0.865  0.00  0.00    +0.152 HD
ATOM      4  O   UNL     1      28.041  18.236  -0.131  0.00  0.00    -0.226 OA
ENDROOT
BRANCH   1   5
ATOM      5  O   UNL     1      27.780  16.969  -1.970  0.00  0.00    -0.450 OA
BRANCH   5   6
ATOM      6  C   UNL     1      26.739  17.265  -2.871  0.00  0.00    +0.240 C 
BRANCH   6   7
ATOM      7  C   UNL     1      26.773  16.574  -4.248  0.00  0.00    +0.100 C 
BRANCH   7   9
ATOM      8  N   UNL     1      25.310  15.043  -5.534  0.00  0.00    -0.134 NA
ATOM      9  C   UNL     1      25.727  15.536  -4.327  0.00  0.00    +0.086 A 
ATOM     10  C   UNL     1      25.056  14.881  -3.317  0.00  0.00    +0.134 A 
ATOM     11  N   UNL     1      24.287  13.962  -3.974  0.00  0.00    -0.247 N 
ATOM     12  N   UNL     1      24.428  14.077  -5.307  0.00  0.00    -0.065 NA
BRANCH  11  13
ATOM     13  C   UNL     1      23.614  12.810  -3.406  0.00  0.00    +0.180 C 
BRANCH  13  14
ATOM     14  C   UNL     1      22.320  13.154  -2.714  0.00  0.00    -0.025 A 
ATOM     15  C   UNL     1      22.081  12.720  -1.402  0.00  0.00    +0.005 A 
ATOM     16  C   UNL     1      20.922  13.104  -0.724  0.00  0.00    +0.002 A 
ATOM     17  C   UNL     1      19.977  13.911  -1.357  0.00  0.00    +0.019 A 
ATOM     18  C   UNL     1      20.182  14.323  -2.677  0.00  0.00    +0.052 A 
ATOM     19  C   UNL     1      21.351  13.947  -3.352  0.00  0.00    +0.024 A 
BRANCH  18  20
ATOM     20  C   UNL     1      19.204  15.138  -3.335  0.00  0.00    +0.099 C 
ATOM     21  N   UNL     1      18.418  15.801  -3.876  0.00  0.00    -0.191 NA
ENDBRANCH  18  20
ENDBRANCH  13  14
ENDBRANCH  11  13
ENDBRANCH   7   9
ENDBRANCH   6   7
ENDBRANCH   5   6
ENDBRANCH   1   5
BRANCH   2  22
ATOM     22  C   UNL     1      28.723  14.612  -0.006  0.00  0.00    +0.152 C 
BRANCH  22  23
ATOM     23  C   UNL     1      29.804  14.090   0.962  0.00  0.00    +0.193 C 
ATOM     24  O   UNL     1      30.075  12.722   0.584  0.00  0.00    -0.219 OA
BRANCH  23  25
ATOM     25  C   UNL     1      31.186  14.780   0.931  0.00  0.00    +0.212 C 
ATOM     26  O   UNL     1      31.124  16.056   1.587  0.00  0.00    -0.218 OA
BRANCH  25  27
ATOM     27  C   UNL     1      32.327  13.923   1.601  0.00  0.00    +0.171 C 
ATOM     28  O   UNL     1      32.732  14.443   2.863  0.00  0.00    -0.343 OA
ATOM     29  C   UNL     1      33.874  14.032   3.554  0.00  0.00    +0.220 C 
ATOM     30  C   UNL     1      35.125  14.060   2.658  0.00  0.00    +0.076 C 
ATOM     31  C   UNL     1      34.806  13.245   1.394  0.00  0.00    +0.177 C 
ATOM     32  O   UNL     1      35.945  13.206   0.546  0.00  0.00    -0.221 OA
ATOM     33  C   UNL     1      33.573  13.856   0.658  0.00  0.00    +0.155 C 
BRANCH  33  34
ATOM     34  N   UNL     1      33.271  13.089  -0.548  0.00  0.00    -0.202 NA
ATOM     35  C   UNL     1      33.210  13.495  -1.842  0.00  0.00    +0.242 C 
ATOM     36  C   UNL     1      33.169  12.443  -2.920  0.00  0.00    +0.096 C 
ATOM     37  O   UNL     1      33.192  14.696  -2.102  0.00  0.00    -0.273 OA
ENDBRANCH  33  34
BRANCH  29  38
ATOM     38  C   UNL     1      33.702  12.596   4.294  0.00  0.00    +0.391 C 
ATOM     39  O   UNL     1      34.948  12.244   4.666  0.00  0.00    -0.243 OA
ATOM     40  O   UNL     1      32.390  12.451   4.520  0.00  0.00    -0.243 OA
ENDBRANCH  29  38
ENDBRANCH  25  27
ENDBRANCH  23  25
ENDBRANCH  22  23
ENDBRANCH   2  22
TORSDOF 13
