REMARK VINA RESULT:    -6.427      3.606      9.424
REMARK INTER + INTRA:         -12.819
REMARK INTER:                 -10.792
REMARK INTRA:                  -2.027
REMARK UNBOUND:                -1.696
REMARK  Name = lig_assembled_72.pdb
REMARK  15 active torsions:
REMARK  status: ('A' for Active; 'I' for Inactive)
REMARK    1  A    between atoms: _2  and  _8
REMARK    2  A    between atoms: _4  and  _8
REMARK    3  A    between atoms: _4  and  _11
REMARK    4  A    between atoms: _5  and  _6
REMARK    5  A    between atoms: _5  and  _12
REMARK    6  A    between atoms: _8  and  _9
REMARK    7  A    between atoms: _8  and  _10
REMARK    8  A    between atoms: _12  and  _14
REMARK    9  A    between atoms: _13  and  _18
REMARK   10  A    between atoms: _14  and  _17
REMARK   11  A    between atoms: _22  and  _32
REMARK   12  A    between atoms: _24  and  _25
REMARK   13  A    between atoms: _26  and  _28
REMARK   14  A    between atoms: _28  and  _30
REMARK   15  A    between atoms: _30  and  _32
REMARK                            x       y       z     vdW  Elec       q    Type
REMARK                         _______ _______ _______ _____ _____    ______ ____
ROOT
ATOM      1  C   UNL     1      26.534  15.572  -2.689  0.00  0.00    +0.152 C 
ENDROOT
BRANCH   1   3
ATOM      2  C   UNL     1      27.737  17.668  -1.422  0.00  0.00    +0.400 C 
ATOM      3  N   UNL     1      26.823  16.850  -2.044  0.00  0.00    -0.278 N 
ATOM      4  H   UNL     1      25.933  17.441  -2.061  0.00  0.00    +0.152 HD
ATOM      5  O   UNL     1      27.424  18.838  -1.220  0.00  0.00    -0.226 OA
BRANCH   2   6
ATOM      6  O   UNL     1      28.849  17.105  -1.077  0.00  0.00    -0.450 OA
BRANCH   6   7
ATOM      7  C   UNL     1      29.846  17.226  -0.090  0.00  0.00    +0.240 C 
BRANCH   7   8
ATOM      8  C   UNL     1      30.874  16.084   0.027  0.00  0.00    +0.100 C 
BRANCH   8  10
ATOM      9  N   UNL     1      29.538  14.009  -0.140  0.00  0.00    -0.134 NA
ATOM     10  C   UNL     1      30.248  14.892   0.626  0.00  0.00    +0.086 A 
ATOM     11  C   UNL     1      30.243  14.456   1.934  0.00  0.00    +0.134 A 
ATOM     12  N   UNL     1      29.512  13.300   1.901  0.00  0.00    -0.244 N 
ATOM     13  N   UNL     1      29.093  13.041   0.645  0.00  0.00    -0.065 NA
BRANCH  12  14
ATOM     14  C   UNL     1      29.184  12.399   3.015  0.00  0.00    +0.083 C 
ATOM     15  C   UNL     1      30.272  12.516   4.098  0.00  0.00    +0.038 C 
ATOM     16  C   UNL     1      29.122  10.945   2.504  0.00  0.00    +0.038 C 
BRANCH  14  17
ATOM     17  C   UNL     1      27.824  12.767   3.668  0.00  0.00    +0.185 C 
BRANCH  17  18
ATOM     18  O   UNL     1      26.764  12.862   2.718  0.00  0.00    -0.393 OA
ATOM     19  H   UNL     1      26.414  11.951   2.615  0.00  0.00    +0.209 HD
ENDBRANCH  17  18
ENDBRANCH  14  17
ENDBRANCH  12  14
ENDBRANCH   8  10
ENDBRANCH   7   8
ENDBRANCH   6   7
ENDBRANCH   2   6
ENDBRANCH   1   3
BRANCH   1  20
ATOM     20  C   UNL     1      25.528  15.612  -3.857  0.00  0.00    +0.193 C 
ATOM     21  O   UNL     1      26.296  15.841  -5.059  0.00  0.00    -0.219 OA
BRANCH  20  22
ATOM     22  C   UNL     1      24.723  14.327  -4.153  0.00  0.00    +0.212 C 
ATOM     23  O   UNL     1      25.574  13.324  -4.730  0.00  0.00    -0.218 OA
BRANCH  22  24
ATOM     24  C   UNL     1      24.023  13.721  -2.877  0.00  0.00    +0.171 C 
ATOM     25  O   UNL     1      24.564  12.458  -2.504  0.00  0.00    -0.343 OA
ATOM     26  C   UNL     1      23.981  11.595  -1.574  0.00  0.00    +0.220 C 
ATOM     27  C   UNL     1      22.492  11.351  -1.877  0.00  0.00    +0.076 C 
ATOM     28  C   UNL     1      21.814  12.725  -2.000  0.00  0.00    +0.177 C 
ATOM     29  O   UNL     1      20.424  12.556  -2.241  0.00  0.00    -0.221 OA
ATOM     30  C   UNL     1      22.489  13.559  -3.132  0.00  0.00    +0.155 C 
BRANCH  30  31
ATOM     31  N   UNL     1      21.842  14.863  -3.256  0.00  0.00    -0.202 NA
ATOM     32  C   UNL     1      21.184  15.408  -4.310  0.00  0.00    +0.242 C 
ATOM     33  C   UNL     1      20.358  16.646  -4.075  0.00  0.00    +0.096 C 
ATOM     34  O   UNL     1      21.274  14.885  -5.419  0.00  0.00    -0.273 OA
ENDBRANCH  30  31
BRANCH  26  35
ATOM     35  C   UNL     1      24.208  12.055  -0.032  0.00  0.00    +0.391 C 
ATOM     36  O   UNL     1      23.215  11.461   0.658  0.00  0.00    -0.243 OA
ATOM     37  O   UNL     1      25.436  12.585   0.018  0.00  0.00    -0.243 OA
ENDBRANCH  26  35
ENDBRANCH  22  24
ENDBRANCH  20  22
ENDBRANCH   1  20
TORSDOF 13
