REMARK VINA RESULT:    -8.205      1.831      4.125
REMARK INTER + INTRA:         -15.248
REMARK INTER:                 -13.393
REMARK INTRA:                  -1.856
REMARK UNBOUND:                -1.768
REMARK  Name = lig_assembled_91.pdb
REMARK  11 active torsions:
REMARK  status: ('A' for Active; 'I' for Inactive)
REMARK    1  A    between atoms: _2  and  _9
REMARK    2  A    between atoms: _6  and  _7
REMARK    3  A    between atoms: _6  and  _21
REMARK    4  A    between atoms: _21  and  _23
REMARK    5  A    between atoms: _22  and  _27
REMARK    6  A    between atoms: _23  and  _26
REMARK    7  A    between atoms: _31  and  _41
REMARK    8  A    between atoms: _33  and  _34
REMARK    9  A    between atoms: _35  and  _37
REMARK   10  A    between atoms: _37  and  _39
REMARK   11  A    between atoms: _39  and  _41
REMARK                            x       y       z     vdW  Elec       q    Type
REMARK                         _______ _______ _______ _____ _____    ______ ____
ROOT
ATOM      1  C   UNL     1      28.996  16.965  -0.522  0.00  0.00    +0.400 C 
ATOM      2  N   UNL     1      28.899  15.645  -0.148  0.00  0.00    -0.278 N 
ATOM      3  H   UNL     1      29.581  15.569   0.671  0.00  0.00    +0.152 HD
ATOM      4  O   UNL     1      29.626  17.728   0.206  0.00  0.00    -0.226 OA
ENDROOT
BRANCH   1   5
ATOM      5  O   UNL     1      28.429  17.273  -1.642  0.00  0.00    -0.450 OA
BRANCH   5   6
ATOM      6  C   UNL     1      27.140  17.514  -2.156  0.00  0.00    +0.240 C 
BRANCH   6   7
ATOM      7  C   UNL     1      26.812  16.943  -3.548  0.00  0.00    +0.100 C 
BRANCH   7   9
ATOM      8  N   UNL     1      25.637  14.912  -4.318  0.00  0.00    -0.134 NA
ATOM      9  C   UNL     1      25.707  15.969  -3.462  0.00  0.00    +0.086 A 
ATOM     10  C   UNL     1      24.643  15.907  -2.591  0.00  0.00    +0.139 A 
ATOM     11  N   UNL     1      23.908  14.806  -2.982  0.00  0.00    -0.219 N 
ATOM     12  N   UNL     1      24.552  14.214  -4.021  0.00  0.00    -0.060 NA
BRANCH  11  13
ATOM     13  C   UNL     1      22.676  14.300  -2.461  0.00  0.00    +0.085 A 
ATOM     14  C   UNL     1      21.420  14.791  -2.968  0.00  0.00    +0.026 A 
ATOM     15  C   UNL     1      20.268  14.245  -2.369  0.00  0.00    +0.074 A 
ATOM     16  C   UNL     1      19.002  14.641  -2.771  0.00  0.00    +0.028 A 
ATOM     17  C   UNL     1      18.802  15.579  -3.780  0.00  0.00    +0.002 A 
ATOM     18  C   UNL     1      19.901  16.114  -4.420  0.00  0.00    +0.001 A 
ATOM     19  N   UNL     1      20.296  13.318  -1.414  0.00  0.00    -0.247 NA
ATOM     20  C   UNL     1      21.460  12.846  -0.968  0.00  0.00    +0.074 A 
ATOM     21  C   UNL     1      21.373  11.883   0.031  0.00  0.00    +0.028 A 
ATOM     22  C   UNL     1      22.501  11.322   0.623  0.00  0.00    +0.002 A 
ATOM     23  C   UNL     1      23.750  11.745   0.214  0.00  0.00    +0.001 A 
ATOM     24  C   UNL     1      23.854  12.717  -0.786  0.00  0.00    +0.012 A 
ATOM     25  C   UNL     1      21.186  15.712  -4.038  0.00  0.00    +0.012 A 
ATOM     26  C   UNL     1      22.710  13.290  -1.430  0.00  0.00    +0.026 A 
ENDBRANCH  11  13
ENDBRANCH   7   9
ENDBRANCH   6   7
ENDBRANCH   5   6
ENDBRANCH   1   5
BRANCH   2  27
ATOM     27  C   UNL     1      28.285  14.336  -0.354  0.00  0.00    +0.152 C 
BRANCH  27  28
ATOM     28  C   UNL     1      29.184  13.257  -0.993  0.00  0.00    +0.193 C 
ATOM     29  O   UNL     1      30.330  13.943  -1.542  0.00  0.00    -0.219 OA
BRANCH  28  30
ATOM     30  C   UNL     1      29.788  12.185  -0.059  0.00  0.00    +0.212 C 
ATOM     31  O   UNL     1      30.846  11.477  -0.725  0.00  0.00    -0.218 OA
BRANCH  30  32
ATOM     32  C   UNL     1      30.350  12.777   1.290  0.00  0.00    +0.171 C 
ATOM     33  O   UNL     1      31.743  13.063   1.224  0.00  0.00    -0.343 OA
ATOM     34  C   UNL     1      32.540  13.361   2.333  0.00  0.00    +0.220 C 
ATOM     35  C   UNL     1      32.367  12.323   3.455  0.00  0.00    +0.076 C 
ATOM     36  C   UNL     1      30.863  12.207   3.751  0.00  0.00    +0.177 C 
ATOM     37  O   UNL     1      30.650  11.287   4.812  0.00  0.00    -0.221 OA
ATOM     38  C   UNL     1      30.093  11.776   2.464  0.00  0.00    +0.155 C 
BRANCH  38  39
ATOM     39  N   UNL     1      28.664  11.659   2.743  0.00  0.00    -0.202 NA
ATOM     40  C   UNL     1      27.736  12.629   2.942  0.00  0.00    +0.242 C 
ATOM     41  C   UNL     1      26.280  12.241   2.918  0.00  0.00    +0.096 C 
ATOM     42  O   UNL     1      28.100  13.787   3.134  0.00  0.00    -0.273 OA
ENDBRANCH  38  39
BRANCH  34  43
ATOM     43  C   UNL     1      32.339  14.876   2.885  0.00  0.00    +0.391 C 
ATOM     44  O   UNL     1      33.405  15.101   3.677  0.00  0.00    -0.243 OA
ATOM     45  O   UNL     1      31.381  15.422   2.126  0.00  0.00    -0.243 OA
ENDBRANCH  34  43
ENDBRANCH  30  32
ENDBRANCH  28  30
ENDBRANCH  27  28
ENDBRANCH   2  27
TORSDOF 11
