REMARK VINA RESULT:    -6.764      3.465      8.731
REMARK INTER + INTRA:         -13.482
REMARK INTER:                 -11.271
REMARK INTRA:                  -2.211
REMARK UNBOUND:                -1.577
REMARK  Name = lig_assembled_66.pdb
REMARK  13 active torsions:
REMARK  status: ('A' for Active; 'I' for Inactive)
REMARK    1  A    between atoms: _2  and  _9
REMARK    2  A    between atoms: _6  and  _7
REMARK    3  A    between atoms: _6  and  _16
REMARK    4  A    between atoms: _9  and  _10
REMARK    5  A    between atoms: _14  and  _15
REMARK    6  A    between atoms: _16  and  _18
REMARK    7  A    between atoms: _17  and  _22
REMARK    8  A    between atoms: _18  and  _21
REMARK    9  A    between atoms: _26  and  _36
REMARK   10  A    between atoms: _28  and  _29
REMARK   11  A    between atoms: _30  and  _32
REMARK   12  A    between atoms: _32  and  _34
REMARK   13  A    between atoms: _34  and  _36
REMARK                            x       y       z     vdW  Elec       q    Type
REMARK                         _______ _______ _______ _____ _____    ______ ____
ROOT
ATOM      1  C   UNL     1      28.593  17.089  -0.538  0.00  0.00    +0.400 C 
ATOM      2  N   UNL     1      27.550  16.564  -1.265  0.00  0.00    -0.278 N 
ATOM      3  H   UNL     1      26.697  17.083  -0.883  0.00  0.00    +0.152 HD
ATOM      4  O   UNL     1      28.370  18.066   0.172  0.00  0.00    -0.226 OA
ENDROOT
BRANCH   1   5
ATOM      5  O   UNL     1      29.722  16.470  -0.652  0.00  0.00    -0.450 OA
BRANCH   5   6
ATOM      6  C   UNL     1      30.297  15.227  -0.325  0.00  0.00    +0.240 C 
BRANCH   6   7
ATOM      7  C   UNL     1      30.936  15.084   1.070  0.00  0.00    +0.100 C 
BRANCH   7   9
ATOM      8  N   UNL     1      30.686  13.493   2.953  0.00  0.00    -0.134 NA
ATOM      9  C   UNL     1      30.123  14.191   1.918  0.00  0.00    +0.086 A 
ATOM     10  C   UNL     1      28.770  13.932   1.884  0.00  0.00    +0.134 A 
ATOM     11  N   UNL     1      28.563  13.115   2.959  0.00  0.00    -0.247 N 
ATOM     12  N   UNL     1      29.721  12.839   3.587  0.00  0.00    -0.065 NA
BRANCH  11  13
ATOM     13  C   UNL     1      27.296  12.782   3.580  0.00  0.00    +0.180 C 
BRANCH  13  14
ATOM     14  C   UNL     1      26.560  11.670   2.877  0.00  0.00    -0.025 A 
ATOM     15  C   UNL     1      27.266  10.598   2.314  0.00  0.00    +0.005 A 
ATOM     16  C   UNL     1      26.589   9.523   1.733  0.00  0.00    +0.002 A 
ATOM     17  C   UNL     1      25.195   9.517   1.691  0.00  0.00    +0.019 A 
ATOM     18  C   UNL     1      24.475  10.594   2.215  0.00  0.00    +0.052 A 
ATOM     19  C   UNL     1      25.156  11.666   2.807  0.00  0.00    +0.024 A 
BRANCH  18  20
ATOM     20  C   UNL     1      23.043  10.598   2.157  0.00  0.00    +0.099 C 
ATOM     21  N   UNL     1      21.883  10.604   2.100  0.00  0.00    -0.191 NA
ENDBRANCH  18  20
ENDBRANCH  13  14
ENDBRANCH  11  13
ENDBRANCH   7   9
ENDBRANCH   6   7
ENDBRANCH   5   6
ENDBRANCH   1   5
BRANCH   2  22
ATOM     22  C   UNL     1      27.098  15.648  -2.309  0.00  0.00    +0.152 C 
BRANCH  22  23
ATOM     23  C   UNL     1      25.783  16.025  -3.021  0.00  0.00    +0.193 C 
ATOM     24  O   UNL     1      26.009  17.298  -3.664  0.00  0.00    -0.219 OA
BRANCH  23  25
ATOM     25  C   UNL     1      25.294  15.100  -4.157  0.00  0.00    +0.212 C 
ATOM     26  O   UNL     1      26.266  14.076  -4.424  0.00  0.00    -0.218 OA
BRANCH  25  27
ATOM     27  C   UNL     1      23.909  14.412  -3.850  0.00  0.00    +0.171 C 
ATOM     28  O   UNL     1      22.823  15.332  -3.873  0.00  0.00    -0.343 OA
ATOM     29  C   UNL     1      21.539  15.047  -3.404  0.00  0.00    +0.220 C 
ATOM     30  C   UNL     1      21.569  14.455  -1.984  0.00  0.00    +0.076 C 
ATOM     31  C   UNL     1      22.531  13.256  -2.003  0.00  0.00    +0.177 C 
ATOM     32  O   UNL     1      22.566  12.646  -0.721  0.00  0.00    -0.221 OA
ATOM     33  C   UNL     1      23.954  13.716  -2.450  0.00  0.00    +0.155 C 
BRANCH  33  34
ATOM     34  N   UNL     1      24.873  12.582  -2.462  0.00  0.00    -0.202 NA
ATOM     35  C   UNL     1      25.704  12.126  -1.490  0.00  0.00    +0.242 C 
ATOM     36  C   UNL     1      26.324  10.764  -1.659  0.00  0.00    +0.096 C 
ATOM     37  O   UNL     1      25.926  12.827  -0.504  0.00  0.00    -0.273 OA
ENDBRANCH  33  34
BRANCH  29  38
ATOM     38  C   UNL     1      20.669  14.123  -4.418  0.00  0.00    +0.391 C 
ATOM     39  O   UNL     1      19.830  13.430  -3.624  0.00  0.00    -0.243 OA
ATOM     40  O   UNL     1      20.895  14.608  -5.645  0.00  0.00    -0.243 OA
ENDBRANCH  29  38
ENDBRANCH  25  27
ENDBRANCH  23  25
ENDBRANCH  22  23
ENDBRANCH   2  22
TORSDOF 13
