REMARK VINA RESULT:    -6.568      2.743      8.743
REMARK INTER + INTRA:         -12.177
REMARK INTER:                  -9.880
REMARK INTRA:                  -2.296
REMARK UNBOUND:                -1.385
REMARK  Name = lig_assembled_56.pdb
REMARK  11 active torsions:
REMARK  status: ('A' for Active; 'I' for Inactive)
REMARK    1  A    between atoms: _2  and  _9
REMARK    2  A    between atoms: _6  and  _7
REMARK    3  A    between atoms: _6  and  _13
REMARK    4  A    between atoms: _13  and  _15
REMARK    5  A    between atoms: _14  and  _19
REMARK    6  A    between atoms: _15  and  _18
REMARK    7  A    between atoms: _23  and  _33
REMARK    8  A    between atoms: _25  and  _26
REMARK    9  A    between atoms: _27  and  _29
REMARK   10  A    between atoms: _29  and  _31
REMARK   11  A    between atoms: _31  and  _33
REMARK                            x       y       z     vdW  Elec       q    Type
REMARK                         _______ _______ _______ _____ _____    ______ ____
ROOT
ATOM      1  C   UNL     1      31.518  15.130   1.340  0.00  0.00    +0.152 C 
ENDROOT
BRANCH   1   3
ATOM      2  C   UNL     1      31.562  13.260   3.326  0.00  0.00    +0.400 C 
ATOM      3  N   UNL     1      31.226  13.999   2.216  0.00  0.00    -0.278 N 
ATOM      4  H   UNL     1      30.345  13.514   1.854  0.00  0.00    +0.152 HD
ATOM      5  O   UNL     1      30.761  12.420   3.727  0.00  0.00    -0.226 OA
BRANCH   2   6
ATOM      6  O   UNL     1      32.726  13.506   3.831  0.00  0.00    -0.450 OA
BRANCH   6   7
ATOM      7  C   UNL     1      34.066  13.099   3.676  0.00  0.00    +0.240 C 
BRANCH   7   8
ATOM      8  C   UNL     1      34.928  13.865   2.654  0.00  0.00    +0.100 C 
BRANCH   8  10
ATOM      9  N   UNL     1      34.343  12.024   1.110  0.00  0.00    -0.134 NA
ATOM     10  C   UNL     1      34.722  13.321   1.299  0.00  0.00    +0.086 A 
ATOM     11  C   UNL     1      34.848  13.936   0.074  0.00  0.00    +0.139 A 
ATOM     12  N   UNL     1      34.517  12.968  -0.845  0.00  0.00    -0.220 N 
ATOM     13  N   UNL     1      34.224  11.815  -0.195  0.00  0.00    -0.061 NA
BRANCH  12  14
ATOM     14  C   UNL     1      34.450  13.069  -2.256  0.00  0.00    +0.070 A 
ATOM     15  C   UNL     1      33.566  13.957  -2.874  0.00  0.00    +0.047 A 
ATOM     16  C   UNL     1      33.542  13.992  -4.260  0.00  0.00    +0.113 A 
ATOM     17  N   UNL     1      34.323  13.223  -5.045  0.00  0.00    -0.263 NA
ATOM     18  C   UNL     1      35.171  12.376  -4.423  0.00  0.00    +0.113 A 
ATOM     19  C   UNL     1      35.273  12.262  -3.048  0.00  0.00    +0.047 A 
ENDBRANCH  12  14
ENDBRANCH   8  10
ENDBRANCH   7   8
ENDBRANCH   6   7
ENDBRANCH   2   6
ENDBRANCH   1   3
BRANCH   1  20
ATOM     20  C   UNL     1      30.365  15.597   0.427  0.00  0.00    +0.193 C 
ATOM     21  O   UNL     1      30.934  16.537  -0.512  0.00  0.00    -0.219 OA
BRANCH  20  22
ATOM     22  C   UNL     1      29.680  14.534  -0.459  0.00  0.00    +0.212 C 
ATOM     23  O   UNL     1      30.602  13.481  -0.784  0.00  0.00    -0.218 OA
BRANCH  22  24
ATOM     24  C   UNL     1      28.401  13.897   0.206  0.00  0.00    +0.171 C 
ATOM     25  O   UNL     1      28.717  12.809   1.068  0.00  0.00    -0.343 OA
ATOM     26  C   UNL     1      27.776  11.918   1.590  0.00  0.00    +0.220 C 
ATOM     27  C   UNL     1      26.863  11.344   0.492  0.00  0.00    +0.076 C 
ATOM     28  C   UNL     1      26.269  12.532  -0.284  0.00  0.00    +0.177 C 
ATOM     29  O   UNL     1      25.384  12.057  -1.288  0.00  0.00    -0.221 OA
ATOM     30  C   UNL     1      27.413  13.398  -0.899  0.00  0.00    +0.155 C 
BRANCH  30  31
ATOM     31  N   UNL     1      26.853  14.523  -1.642  0.00  0.00    -0.202 NA
ATOM     32  C   UNL     1      26.662  14.672  -2.978  0.00  0.00    +0.242 C 
ATOM     33  C   UNL     1      25.795  15.809  -3.454  0.00  0.00    +0.096 C 
ATOM     34  O   UNL     1      27.192  13.885  -3.759  0.00  0.00    -0.273 OA
ENDBRANCH  30  31
BRANCH  26  35
ATOM     35  C   UNL     1      26.913  12.535   2.821  0.00  0.00    +0.391 C 
ATOM     36  O   UNL     1      27.572  13.654   3.179  0.00  0.00    -0.243 OA
ATOM     37  O   UNL     1      25.743  11.885   2.814  0.00  0.00    -0.243 OA
ENDBRANCH  26  35
ENDBRANCH  22  24
ENDBRANCH  20  22
ENDBRANCH   1  20
TORSDOF 11
