REMARK VINA RESULT:    -5.556      4.065      6.692
REMARK INTER + INTRA:         -12.651
REMARK INTER:                 -10.457
REMARK INTRA:                  -2.194
REMARK UNBOUND:                -3.035
REMARK  Name = lig_assembled_22.pdb
REMARK  15 active torsions:
REMARK  status: ('A' for Active; 'I' for Inactive)
REMARK    1  A    between atoms: _2  and  _8
REMARK    2  A    between atoms: _4  and  _8
REMARK    3  A    between atoms: _4  and  _11
REMARK    4  A    between atoms: _5  and  _6
REMARK    5  A    between atoms: _5  and  _13
REMARK    6  A    between atoms: _8  and  _9
REMARK    7  A    between atoms: _8  and  _10
REMARK    8  A    between atoms: _13  and  _15
REMARK    9  A    between atoms: _14  and  _19
REMARK   10  A    between atoms: _15  and  _18
REMARK   11  A    between atoms: _23  and  _33
REMARK   12  A    between atoms: _25  and  _26
REMARK   13  A    between atoms: _27  and  _29
REMARK   14  A    between atoms: _29  and  _31
REMARK   15  A    between atoms: _31  and  _33
REMARK                            x       y       z     vdW  Elec       q    Type
REMARK                         _______ _______ _______ _____ _____    ______ ____
ROOT
ATOM      1  C   UNL     1      31.616  15.487  -0.244  0.00  0.00    +0.400 C 
ATOM      2  N   UNL     1      31.188  14.595   0.711  0.00  0.00    -0.278 N 
ATOM      3  H   UNL     1      31.715  13.698   0.464  0.00  0.00    +0.152 HD
ATOM      4  O   UNL     1      32.551  15.156  -0.969  0.00  0.00    -0.226 OA
ENDROOT
BRANCH   1   5
ATOM      5  O   UNL     1      30.960  16.599  -0.305  0.00  0.00    -0.450 OA
BRANCH   5   6
ATOM      6  C   UNL     1      29.764  17.162   0.183  0.00  0.00    +0.240 C 
BRANCH   6   7
ATOM      7  C   UNL     1      28.824  17.830  -0.838  0.00  0.00    +0.100 C 
BRANCH   7   9
ATOM      8  N   UNL     1      28.135  15.488  -1.207  0.00  0.00    -0.134 NA
ATOM      9  C   UNL     1      27.990  16.814  -1.506  0.00  0.00    +0.086 A 
ATOM     10  C   UNL     1      27.007  16.953  -2.461  0.00  0.00    +0.135 A 
ATOM     11  N   UNL     1      26.588  15.675  -2.703  0.00  0.00    -0.235 N 
ATOM     12  N   UNL     1      27.277  14.801  -1.944  0.00  0.00    -0.064 NA
BRANCH  11  13
ATOM     13  C   UNL     1      25.571  15.192  -3.639  0.00  0.00    +0.155 C 
ATOM     14  C   UNL     1      25.914  15.541  -5.104  0.00  0.00    +0.048 C 
ATOM     15  C   UNL     1      24.223  15.848  -3.285  0.00  0.00    +0.048 C 
BRANCH  13  16
ATOM     16  C   UNL     1      25.443  13.669  -3.544  0.00  0.00    +0.332 C 
ATOM     17  O   UNL     1      25.878  12.889  -4.383  0.00  0.00    -0.248 OA
BRANCH  16  18
ATOM     18  O   UNL     1      24.802  13.208  -2.443  0.00  0.00    -0.479 OA
ATOM     19  H   UNL     1      23.826  13.265  -2.452  0.00  0.00    +0.295 HD
ENDBRANCH  16  18
ENDBRANCH  13  16
ENDBRANCH  11  13
ENDBRANCH   7   9
ENDBRANCH   6   7
ENDBRANCH   5   6
ENDBRANCH   1   5
BRANCH   2  20
ATOM     20  C   UNL     1      30.367  14.333   1.890  0.00  0.00    +0.152 C 
BRANCH  20  21
ATOM     21  C   UNL     1      28.973  13.728   1.626  0.00  0.00    +0.193 C 
ATOM     22  O   UNL     1      29.127  12.786   0.541  0.00  0.00    -0.219 OA
BRANCH  21  23
ATOM     23  C   UNL     1      28.324  12.906   2.761  0.00  0.00    +0.212 C 
ATOM     24  O   UNL     1      27.568  13.762   3.632  0.00  0.00    -0.218 OA
BRANCH  23  25
ATOM     25  C   UNL     1      27.379  11.757   2.239  0.00  0.00    +0.171 C 
ATOM     26  O   UNL     1      26.177  12.257   1.661  0.00  0.00    -0.343 OA
ATOM     27  C   UNL     1      25.068  11.470   1.344  0.00  0.00    +0.220 C 
ATOM     28  C   UNL     1      24.639  10.585   2.528  0.00  0.00    +0.076 C 
ATOM     29  C   UNL     1      25.878   9.801   2.992  0.00  0.00    +0.177 C 
ATOM     30  O   UNL     1      25.527   8.936   4.063  0.00  0.00    -0.221 OA
ATOM     31  C   UNL     1      27.013  10.788   3.410  0.00  0.00    +0.155 C 
BRANCH  31  32
ATOM     32  N   UNL     1      28.189  10.048   3.858  0.00  0.00    -0.202 NA
ATOM     33  C   UNL     1      28.815  10.060   5.063  0.00  0.00    +0.242 C 
ATOM     34  C   UNL     1      29.827   8.982   5.354  0.00  0.00    +0.096 C 
ATOM     35  O   UNL     1      28.544  10.938   5.879  0.00  0.00    -0.273 OA
ENDBRANCH  31  32
BRANCH  27  36
ATOM     36  C   UNL     1      25.260  10.598  -0.013  0.00  0.00    +0.391 C 
ATOM     37  O   UNL     1      24.248   9.708  -0.001  0.00  0.00    -0.243 OA
ATOM     38  O   UNL     1      26.141  11.271  -0.763  0.00  0.00    -0.243 OA
ENDBRANCH  27  36
ENDBRANCH  23  25
ENDBRANCH  21  23
ENDBRANCH  20  21
ENDBRANCH   2  20
TORSDOF 13
