REMARK VINA RESULT:    -7.254      1.247      2.065
REMARK INTER + INTRA:         -14.262
REMARK INTER:                 -12.437
REMARK INTRA:                  -1.825
REMARK UNBOUND:                -1.919
REMARK  Name = lig_assembled_41.pdb
REMARK  13 active torsions:
REMARK  status: ('A' for Active; 'I' for Inactive)
REMARK    1  A    between atoms: _2  and  _8
REMARK    2  A    between atoms: _5  and  _6
REMARK    3  A    between atoms: _5  and  _16
REMARK    4  A    between atoms: _9  and  _10
REMARK    5  A    between atoms: _10  and  _11
REMARK    6  A    between atoms: _16  and  _18
REMARK    7  A    between atoms: _17  and  _22
REMARK    8  A    between atoms: _18  and  _21
REMARK    9  A    between atoms: _26  and  _36
REMARK   10  A    between atoms: _28  and  _29
REMARK   11  A    between atoms: _30  and  _32
REMARK   12  A    between atoms: _32  and  _34
REMARK   13  A    between atoms: _34  and  _36
REMARK                            x       y       z     vdW  Elec       q    Type
REMARK                         _______ _______ _______ _____ _____    ______ ____
ROOT
ATOM      1  C   UNL     1      28.152  17.199  -0.859  0.00  0.00    +0.400 C 
ATOM      2  N   UNL     1      28.549  16.272   0.076  0.00  0.00    -0.278 N 
ATOM      3  H   UNL     1      28.962  16.872   0.858  0.00  0.00    +0.152 HD
ATOM      4  O   UNL     1      28.178  18.387  -0.545  0.00  0.00    -0.226 OA
ENDROOT
BRANCH   2   5
ATOM      5  C   UNL     1      28.643  14.871   0.476  0.00  0.00    +0.152 C 
BRANCH   5   6
ATOM      6  C   UNL     1      29.969  14.157   0.143  0.00  0.00    +0.193 C 
ATOM      7  O   UNL     1      30.023  14.031  -1.295  0.00  0.00    -0.219 OA
BRANCH   6   8
ATOM      8  C   UNL     1      31.283  14.877   0.516  0.00  0.00    +0.212 C 
ATOM      9  O   UNL     1      31.011  16.019   1.345  0.00  0.00    -0.218 OA
BRANCH   8  10
ATOM     10  C   UNL     1      32.315  13.948   1.262  0.00  0.00    +0.171 C 
ATOM     11  O   UNL     1      32.665  14.443   2.551  0.00  0.00    -0.343 OA
ATOM     12  C   UNL     1      33.727  13.958   3.319  0.00  0.00    +0.220 C 
ATOM     13  C   UNL     1      35.035  13.899   2.511  0.00  0.00    +0.076 C 
ATOM     14  C   UNL     1      34.750  13.104   1.226  0.00  0.00    +0.177 C 
ATOM     15  O   UNL     1      35.940  12.985   0.459  0.00  0.00    -0.221 OA
ATOM     16  C   UNL     1      33.615  13.795   0.408  0.00  0.00    +0.155 C 
BRANCH  16  17
ATOM     17  N   UNL     1      33.346  13.046  -0.818  0.00  0.00    -0.202 NA
ATOM     18  C   UNL     1      33.354  13.464  -2.109  0.00  0.00    +0.242 C 
ATOM     19  C   UNL     1      33.333  12.423  -3.198  0.00  0.00    +0.096 C 
ATOM     20  O   UNL     1      33.381  14.668  -2.358  0.00  0.00    -0.273 OA
ENDBRANCH  16  17
BRANCH  12  21
ATOM     21  C   UNL     1      33.407  12.539   4.042  0.00  0.00    +0.391 C 
ATOM     22  O   UNL     1      34.604  12.084   4.460  0.00  0.00    -0.243 OA
ATOM     23  O   UNL     1      32.080  12.503   4.215  0.00  0.00    -0.243 OA
ENDBRANCH  12  21
ENDBRANCH   8  10
ENDBRANCH   6   8
ENDBRANCH   5   6
ENDBRANCH   2   5
BRANCH   1  24
ATOM     24  O   UNL     1      27.813  16.722  -2.012  0.00  0.00    -0.450 OA
BRANCH  24  25
ATOM     25  C   UNL     1      26.653  16.318  -2.702  0.00  0.00    +0.240 C 
BRANCH  25  26
ATOM     26  C   UNL     1      26.327  14.813  -2.723  0.00  0.00    +0.100 C 
BRANCH  26  28
ATOM     27  N   UNL     1      24.627  13.862  -4.235  0.00  0.00    -0.134 NA
ATOM     28  C   UNL     1      24.927  14.596  -3.128  0.00  0.00    +0.086 A 
ATOM     29  C   UNL     1      23.756  15.016  -2.535  0.00  0.00    +0.139 A 
ATOM     30  N   UNL     1      22.756  14.602  -3.385  0.00  0.00    -0.219 N 
ATOM     31  N   UNL     1      23.308  13.823  -4.357  0.00  0.00    -0.061 NA
BRANCH  30  32
ATOM     32  C   UNL     1      21.343  14.772  -3.313  0.00  0.00    +0.077 A 
ATOM     33  C   UNL     1      20.460  13.894  -2.649  0.00  0.00    +0.043 A 
ATOM     34  C   UNL     1      19.075  14.157  -2.700  0.00  0.00    +0.013 A 
ATOM     35  C   UNL     1      18.571  15.258  -3.397  0.00  0.00    +0.001 A 
ATOM     36  C   UNL     1      19.439  16.135  -4.028  0.00  0.00    +0.002 A 
ATOM     37  C   UNL     1      20.813  15.901  -3.977  0.00  0.00    +0.028 A 
BRANCH  33  38
ATOM     38  C   UNL     1      20.904  12.814  -1.715  0.00  0.00    +0.162 C 
ATOM     39  O   UNL     1      21.398  11.786  -2.175  0.00  0.00    -0.292 OA
ATOM     40  C   UNL     1      20.751  12.987  -0.224  0.00  0.00    +0.091 C 
ENDBRANCH  33  38
ENDBRANCH  30  32
ENDBRANCH  26  28
ENDBRANCH  25  26
ENDBRANCH  24  25
ENDBRANCH   1  24
TORSDOF 12
