REMARK VINA RESULT:    -6.000      1.754      2.760
REMARK INTER + INTRA:         -12.847
REMARK INTER:                 -11.465
REMARK INTRA:                  -1.382
REMARK UNBOUND:                -2.287
REMARK  Name = lig_assembled_67.pdb
REMARK  13 active torsions:
REMARK  status: ('A' for Active; 'I' for Inactive)
REMARK    1  A    between atoms: _2  and  _8
REMARK    2  A    between atoms: _5  and  _6
REMARK    3  A    between atoms: _5  and  _14
REMARK    4  A    between atoms: _8  and  _9
REMARK    5  A    between atoms: _9  and  _10
REMARK    6  A    between atoms: _14  and  _16
REMARK    7  A    between atoms: _15  and  _20
REMARK    8  A    between atoms: _16  and  _19
REMARK    9  A    between atoms: _24  and  _34
REMARK   10  A    between atoms: _26  and  _27
REMARK   11  A    between atoms: _28  and  _30
REMARK   12  A    between atoms: _30  and  _32
REMARK   13  A    between atoms: _32  and  _34
REMARK                            x       y       z     vdW  Elec       q    Type
REMARK                         _______ _______ _______ _____ _____    ______ ____
ROOT
ATOM      1  C   UNL     1      27.979  17.292  -0.832  0.00  0.00    +0.400 C 
ATOM      2  N   UNL     1      28.685  16.418  -0.039  0.00  0.00    -0.278 N 
ATOM      3  H   UNL     1      28.892  16.992   0.838  0.00  0.00    +0.152 HD
ATOM      4  O   UNL     1      27.614  18.356  -0.338  0.00  0.00    -0.226 OA
ENDROOT
BRANCH   2   5
ATOM      5  C   UNL     1      29.251  15.084   0.144  0.00  0.00    +0.152 C 
BRANCH   5   6
ATOM      6  C   UNL     1      30.786  14.977   0.031  0.00  0.00    +0.193 C 
ATOM      7  O   UNL     1      31.252  16.233  -0.511  0.00  0.00    -0.219 OA
BRANCH   6   8
ATOM      8  C   UNL     1      31.589  14.800   1.339  0.00  0.00    +0.212 C 
ATOM      9  O   UNL     1      31.335  15.894   2.235  0.00  0.00    -0.218 OA
BRANCH   8  10
ATOM     10  C   UNL     1      31.271  13.451   2.089  0.00  0.00    +0.171 C 
ATOM     11  O   UNL     1      30.075  13.521   2.859  0.00  0.00    -0.343 OA
ATOM     12  C   UNL     1      29.690  12.567   3.804  0.00  0.00    +0.220 C 
ATOM     13  C   UNL     1      30.823  12.258   4.798  0.00  0.00    +0.076 C 
ATOM     14  C   UNL     1      32.070  11.889   3.978  0.00  0.00    +0.177 C 
ATOM     15  O   UNL     1      33.139  11.555   4.852  0.00  0.00    -0.221 OA
ATOM     16  C   UNL     1      32.458  13.067   3.031  0.00  0.00    +0.155 C 
BRANCH  16  17
ATOM     17  N   UNL     1      33.647  12.723   2.256  0.00  0.00    -0.202 NA
ATOM     18  C   UNL     1      34.881  13.288   2.263  0.00  0.00    +0.242 C 
ATOM     19  C   UNL     1      36.008  12.554   1.583  0.00  0.00    +0.096 C 
ATOM     20  O   UNL     1      35.051  14.371   2.819  0.00  0.00    -0.273 OA
ENDBRANCH  16  17
BRANCH  12  21
ATOM     21  C   UNL     1      29.087  11.210   3.145  0.00  0.00    +0.391 C 
ATOM     22  O   UNL     1      29.098  10.304   4.143  0.00  0.00    -0.243 OA
ATOM     23  O   UNL     1      28.538  11.576   1.980  0.00  0.00    -0.243 OA
ENDBRANCH  12  21
ENDBRANCH   8  10
ENDBRANCH   6   8
ENDBRANCH   5   6
ENDBRANCH   2   5
BRANCH   1  24
ATOM     24  O   UNL     1      27.793  16.914  -2.054  0.00  0.00    -0.450 OA
BRANCH  24  25
ATOM     25  C   UNL     1      26.817  16.263  -2.833  0.00  0.00    +0.240 C 
BRANCH  25  26
ATOM     26  C   UNL     1      26.403  14.840  -2.412  0.00  0.00    +0.100 C 
BRANCH  26  28
ATOM     27  N   UNL     1      24.140  15.694  -2.936  0.00  0.00    -0.134 NA
ATOM     28  C   UNL     1      24.933  14.715  -2.396  0.00  0.00    +0.086 A 
ATOM     29  C   UNL     1      24.133  13.713  -1.896  0.00  0.00    +0.133 A 
ATOM     30  N   UNL     1      22.867  14.142  -2.158  0.00  0.00    -0.251 N 
ATOM     31  N   UNL     1      22.872  15.332  -2.780  0.00  0.00    -0.065 NA
BRANCH  30  32
ATOM     32  C   UNL     1      21.617  13.477  -1.864  0.00  0.00    +0.150 C 
BRANCH  32  33
ATOM     33  C   UNL     1      21.665  11.965  -2.071  0.00  0.00    +0.084 C 
BRANCH  33  34
ATOM     34  C   UNL     1      21.369  11.193  -0.793  0.00  0.00    +0.252 C 
ATOM     35  O   UNL     1      22.544  10.505  -0.349  0.00  0.00    -0.349 OA
ATOM     36  C   UNL     1      22.372  10.449   1.065  0.00  0.00    +0.191 C 
ATOM     37  C   UNL     1      21.711  11.765   1.388  0.00  0.00    +0.191 C 
ATOM     38  O   UNL     1      20.926  12.083   0.237  0.00  0.00    -0.349 OA
ENDBRANCH  33  34
ENDBRANCH  32  33
ENDBRANCH  30  32
ENDBRANCH  26  28
ENDBRANCH  25  26
ENDBRANCH  24  25
ENDBRANCH   1  24
TORSDOF 13
