REMARK VINA RESULT:    -7.883      1.554      2.803
REMARK INTER + INTRA:         -14.017
REMARK INTER:                 -12.931
REMARK INTRA:                  -1.086
REMARK UNBOUND:                -1.064
REMARK  Name = lig_assembled_27.pdb
REMARK  11 active torsions:
REMARK  status: ('A' for Active; 'I' for Inactive)
REMARK    1  A    between atoms: _2  and  _8
REMARK    2  A    between atoms: _5  and  _6
REMARK    3  A    between atoms: _5  and  _13
REMARK    4  A    between atoms: _13  and  _15
REMARK    5  A    between atoms: _14  and  _19
REMARK    6  A    between atoms: _15  and  _18
REMARK    7  A    between atoms: _23  and  _33
REMARK    8  A    between atoms: _25  and  _26
REMARK    9  A    between atoms: _27  and  _29
REMARK   10  A    between atoms: _29  and  _31
REMARK   11  A    between atoms: _31  and  _33
REMARK                            x       y       z     vdW  Elec       q    Type
REMARK                         _______ _______ _______ _____ _____    ______ ____
ROOT
ATOM      1  C   UNL     1      27.886  17.336  -0.825  0.00  0.00    +0.400 C 
ATOM      2  N   UNL     1      28.629  16.465  -0.063  0.00  0.00    -0.278 N 
ATOM      3  H   UNL     1      28.900  17.051   0.789  0.00  0.00    +0.152 HD
ATOM      4  O   UNL     1      27.566  18.413  -0.328  0.00  0.00    -0.226 OA
ENDROOT
BRANCH   1   5
ATOM      5  O   UNL     1      27.616  16.939  -2.025  0.00  0.00    -0.450 OA
BRANCH   5   6
ATOM      6  C   UNL     1      26.941  17.395  -3.174  0.00  0.00    +0.240 C 
BRANCH   6   7
ATOM      7  C   UNL     1      26.370  16.331  -4.131  0.00  0.00    +0.100 C 
BRANCH   7   9
ATOM      8  N   UNL     1      26.189  14.092  -3.092  0.00  0.00    -0.134 NA
ATOM      9  C   UNL     1      25.630  15.305  -3.375  0.00  0.00    +0.086 A 
ATOM     10  C   UNL     1      24.359  15.346  -2.847  0.00  0.00    +0.139 A 
ATOM     11  N   UNL     1      24.186  14.125  -2.237  0.00  0.00    -0.220 N 
ATOM     12  N   UNL     1      25.307  13.382  -2.402  0.00  0.00    -0.061 NA
BRANCH  11  13
ATOM     13  C   UNL     1      23.058  13.639  -1.527  0.00  0.00    +0.068 A 
ATOM     14  C   UNL     1      21.804  14.243  -1.717  0.00  0.00    +0.028 A 
ATOM     15  C   UNL     1      20.686  13.776  -1.021  0.00  0.00    +0.003 A 
ATOM     16  C   UNL     1      20.811  12.707  -0.133  0.00  0.00    +0.020 A 
ATOM     17  C   UNL     1      22.055  12.108   0.053  0.00  0.00    +0.043 A 
ATOM     18 CL   UNL     1      22.209  10.788   1.148  0.00  0.00    -0.083 Cl
ATOM     19  C   UNL     1      23.179  12.563  -0.637  0.00  0.00    +0.047 A 
ENDBRANCH  11  13
ENDBRANCH   7   9
ENDBRANCH   6   7
ENDBRANCH   5   6
ENDBRANCH   1   5
BRANCH   2  20
ATOM     20  C   UNL     1      29.189  15.127   0.107  0.00  0.00    +0.152 C 
BRANCH  20  21
ATOM     21  C   UNL     1      30.722  15.011  -0.018  0.00  0.00    +0.193 C 
ATOM     22  O   UNL     1      31.189  16.258  -0.580  0.00  0.00    -0.219 OA
BRANCH  21  23
ATOM     23  C   UNL     1      31.536  14.847   1.284  0.00  0.00    +0.212 C 
ATOM     24  O   UNL     1      31.278  15.942   2.179  0.00  0.00    -0.218 OA
BRANCH  23  25
ATOM     25  C   UNL     1      31.239  13.497   2.041  0.00  0.00    +0.171 C 
ATOM     26  O   UNL     1      30.044  13.554   2.813  0.00  0.00    -0.343 OA
ATOM     27  C   UNL     1      29.673  12.599   3.763  0.00  0.00    +0.220 C 
ATOM     28  C   UNL     1      30.812  12.310   4.756  0.00  0.00    +0.076 C 
ATOM     29  C   UNL     1      32.063  11.955   3.935  0.00  0.00    +0.177 C 
ATOM     30  O   UNL     1      33.138  11.639   4.808  0.00  0.00    -0.221 OA
ATOM     31  C   UNL     1      32.433  13.134   2.983  0.00  0.00    +0.155 C 
BRANCH  31  32
ATOM     32  N   UNL     1      33.625  12.803   2.206  0.00  0.00    -0.202 NA
ATOM     33  C   UNL     1      34.880  13.315   2.282  0.00  0.00    +0.242 C 
ATOM     34  C   UNL     1      35.992  12.591   1.569  0.00  0.00    +0.096 C 
ATOM     35  O   UNL     1      35.079  14.344   2.925  0.00  0.00    -0.273 OA
ENDBRANCH  31  32
BRANCH  27  36
ATOM     36  C   UNL     1      29.088  11.230   3.111  0.00  0.00    +0.391 C 
ATOM     37  O   UNL     1      28.953  11.501   1.798  0.00  0.00    -0.243 OA
ATOM     38  O   UNL     1      29.246  10.281   4.041  0.00  0.00    -0.243 OA
ENDBRANCH  27  36
ENDBRANCH  23  25
ENDBRANCH  21  23
ENDBRANCH  20  21
ENDBRANCH   2  20
TORSDOF 11
