REMARK VINA RESULT:    -6.692      2.851      5.646
REMARK INTER + INTRA:         -13.964
REMARK INTER:                 -12.916
REMARK INTRA:                  -1.047
REMARK UNBOUND:                -1.794
REMARK  Name = lig_assembled_18.pdb
REMARK  14 active torsions:
REMARK  status: ('A' for Active; 'I' for Inactive)
REMARK    1  A    between atoms: _2  and  _9
REMARK    2  A    between atoms: _3  and  _11
REMARK    3  A    between atoms: _6  and  _7
REMARK    4  A    between atoms: _6  and  _16
REMARK    5  A    between atoms: _9  and  _10
REMARK    6  A    between atoms: _11  and  _12
REMARK    7  A    between atoms: _16  and  _18
REMARK    8  A    between atoms: _17  and  _22
REMARK    9  A    between atoms: _18  and  _21
REMARK   10  A    between atoms: _26  and  _36
REMARK   11  A    between atoms: _28  and  _29
REMARK   12  A    between atoms: _30  and  _32
REMARK   13  A    between atoms: _32  and  _34
REMARK   14  A    between atoms: _34  and  _36
REMARK                            x       y       z     vdW  Elec       q    Type
REMARK                         _______ _______ _______ _____ _____    ______ ____
ROOT
ATOM      1  C   UNL     1      32.105  15.086  -0.362  0.00  0.00    +0.400 C 
ATOM      2  N   UNL     1      32.271  14.584   0.907  0.00  0.00    -0.278 N 
ATOM      3  H   UNL     1      32.957  13.777   0.766  0.00  0.00    +0.152 HD
ATOM      4  O   UNL     1      32.846  14.671  -1.251  0.00  0.00    -0.226 OA
ENDROOT
BRANCH   2   5
ATOM      5  C   UNL     1      31.949  14.666   2.329  0.00  0.00    +0.152 C 
BRANCH   5   6
ATOM      6  C   UNL     1      31.857  13.324   3.084  0.00  0.00    +0.193 C 
ATOM      7  O   UNL     1      31.627  12.303   2.088  0.00  0.00    -0.219 OA
BRANCH   6   8
ATOM      8  C   UNL     1      33.113  12.844   3.845  0.00  0.00    +0.212 C 
ATOM      9  O   UNL     1      33.929  13.964   4.222  0.00  0.00    -0.218 OA
BRANCH   8  10
ATOM     10  C   UNL     1      32.777  12.007   5.138  0.00  0.00    +0.171 C 
ATOM     11  O   UNL     1      31.979  12.731   6.068  0.00  0.00    -0.343 OA
ATOM     12  C   UNL     1      31.742  12.328   7.384  0.00  0.00    +0.220 C 
ATOM     13  C   UNL     1      33.048  11.982   8.119  0.00  0.00    +0.076 C 
ATOM     14  C   UNL     1      33.807  10.960   7.256  0.00  0.00    +0.177 C 
ATOM     15  O   UNL     1      35.008  10.574   7.911  0.00  0.00    -0.221 OA
ATOM     16  C   UNL     1      34.098  11.559   5.845  0.00  0.00    +0.155 C 
BRANCH  16  17
ATOM     17  N   UNL     1      34.825  10.594   5.025  0.00  0.00    -0.202 NA
ATOM     18  C   UNL     1      36.015  10.721   4.384  0.00  0.00    +0.242 C 
ATOM     19  C   UNL     1      36.679   9.477   3.853  0.00  0.00    +0.096 C 
ATOM     20  O   UNL     1      36.520  11.835   4.256  0.00  0.00    -0.273 OA
ENDBRANCH  16  17
BRANCH  12  21
ATOM     21  C   UNL     1      30.652  11.130   7.508  0.00  0.00    +0.391 C 
ATOM     22  O   UNL     1      30.694  10.754   8.800  0.00  0.00    -0.243 OA
ATOM     23  O   UNL     1      29.925  11.174   6.384  0.00  0.00    -0.243 OA
ENDBRANCH  12  21
ENDBRANCH   8  10
ENDBRANCH   6   8
ENDBRANCH   5   6
ENDBRANCH   2   5
BRANCH   1  24
ATOM     24  O   UNL     1      31.146  15.940  -0.506  0.00  0.00    -0.450 OA
BRANCH  24  25
ATOM     25  C   UNL     1      30.249  16.682   0.287  0.00  0.00    +0.240 C 
BRANCH  25  26
ATOM     26  C   UNL     1      29.375  17.734  -0.423  0.00  0.00    +0.100 C 
BRANCH  26  28
ATOM     27  N   UNL     1      28.194  15.709  -1.231  0.00  0.00    -0.134 NA
ATOM     28  C   UNL     1      28.335  17.072  -1.233  0.00  0.00    +0.086 A 
ATOM     29  C   UNL     1      27.390  17.619  -2.071  0.00  0.00    +0.134 A 
ATOM     30  N   UNL     1      26.688  16.544  -2.526  0.00  0.00    -0.243 N 
ATOM     31  N   UNL     1      27.187  15.395  -2.037  0.00  0.00    -0.065 NA
BRANCH  30  32
ATOM     32  C   UNL     1      25.625  16.509  -3.504  0.00  0.00    +0.240 C 
BRANCH  32  33
ATOM     33  C   UNL     1      24.655  15.379  -3.253  0.00  0.00    +0.235 C 
ATOM     34  O   UNL     1      24.576  14.404  -4.000  0.00  0.00    -0.274 OA
ATOM     35  N   UNL     1      23.908  15.491  -2.097  0.00  0.00    -0.309 N 
ATOM     36  H   UNL     1      23.874  16.368  -1.597  0.00  0.00    +0.149 HD
BRANCH  35  37
ATOM     37  C   UNL     1      22.947  14.476  -1.715  0.00  0.00    +0.146 C 
BRANCH  37  38
ATOM     38  C   UNL     1      21.630  14.764  -2.359  0.00  0.00    +0.007 A 
ATOM     39  S   UNL     1      20.298  13.710  -2.135  0.00  0.00    -0.100 S 
ATOM     40  C   UNL     1      19.303  14.644  -3.168  0.00  0.00    +0.045 A 
ATOM     41  C   UNL     1      19.963  15.746  -3.665  0.00  0.00    +0.008 A 
ATOM     42  C   UNL     1      21.305  15.819  -3.192  0.00  0.00    +0.013 A 
ENDBRANCH  37  38
ENDBRANCH  35  37
ENDBRANCH  32  33
ENDBRANCH  30  32
ENDBRANCH  26  28
ENDBRANCH  25  26
ENDBRANCH  24  25
ENDBRANCH   1  24
TORSDOF 14
