REMARK VINA RESULT:    -6.431      2.237      3.760
REMARK INTER + INTRA:         -13.626
REMARK INTER:                 -12.039
REMARK INTRA:                  -1.587
REMARK UNBOUND:                -1.931
REMARK  Name = lig_assembled_55.pdb
REMARK  15 active torsions:
REMARK  status: ('A' for Active; 'I' for Inactive)
REMARK    1  A    between atoms: _2  and  _9
REMARK    2  A    between atoms: _3  and  _10
REMARK    3  A    between atoms: _3  and  _41
REMARK    4  A    between atoms: _5  and  _41
REMARK    5  A    between atoms: _6  and  _7
REMARK    6  A    between atoms: _6  and  _13
REMARK    7  A    between atoms: _9  and  _10
REMARK    8  A    between atoms: _13  and  _15
REMARK    9  A    between atoms: _14  and  _19
REMARK   10  A    between atoms: _15  and  _18
REMARK   11  A    between atoms: _23  and  _33
REMARK   12  A    between atoms: _25  and  _26
REMARK   13  A    between atoms: _27  and  _29
REMARK   14  A    between atoms: _29  and  _31
REMARK   15  A    between atoms: _31  and  _33
REMARK                            x       y       z     vdW  Elec       q    Type
REMARK                         _______ _______ _______ _____ _____    ______ ____
ROOT
ATOM      1  C   UNL     1      28.825  17.034  -0.484  0.00  0.00    +0.400 C 
ATOM      2  N   UNL     1      28.841  15.876   0.259  0.00  0.00    -0.278 N 
ATOM      3  H   UNL     1      29.521  16.102   1.053  0.00  0.00    +0.152 HD
ATOM      4  O   UNL     1      29.379  18.027  -0.020  0.00  0.00    -0.226 OA
ENDROOT
BRANCH   2   5
ATOM      5  C   UNL     1      28.348  14.516   0.453  0.00  0.00    +0.152 C 
BRANCH   5   6
ATOM      6  C   UNL     1      28.603  13.891   1.840  0.00  0.00    +0.193 C 
ATOM      7  O   UNL     1      27.373  13.245   2.238  0.00  0.00    -0.219 OA
BRANCH   6   8
ATOM      8  C   UNL     1      29.672  12.780   1.939  0.00  0.00    +0.212 C 
ATOM      9  O   UNL     1      29.266  11.626   1.185  0.00  0.00    -0.218 OA
BRANCH   8  10
ATOM     10  C   UNL     1      31.095  13.236   1.437  0.00  0.00    +0.171 C 
ATOM     11  O   UNL     1      31.245  13.108   0.027  0.00  0.00    -0.343 OA
ATOM     12  C   UNL     1      32.464  13.206  -0.648  0.00  0.00    +0.220 C 
ATOM     13  C   UNL     1      33.539  12.304  -0.018  0.00  0.00    +0.076 C 
ATOM     14  C   UNL     1      33.601  12.636   1.482  0.00  0.00    +0.177 C 
ATOM     15  O   UNL     1      34.610  11.855   2.107  0.00  0.00    -0.221 OA
ATOM     16  C   UNL     1      32.208  12.396   2.143  0.00  0.00    +0.155 C 
BRANCH  16  17
ATOM     17  N   UNL     1      32.264  12.704   3.570  0.00  0.00    -0.202 NA
ATOM     18  C   UNL     1      32.000  11.911   4.640  0.00  0.00    +0.242 C 
ATOM     19  C   UNL     1      32.420  12.389   6.005  0.00  0.00    +0.096 C 
ATOM     20  O   UNL     1      31.432  10.834   4.472  0.00  0.00    -0.273 OA
ENDBRANCH  16  17
BRANCH  12  21
ATOM     21  C   UNL     1      32.990  14.734  -0.815  0.00  0.00    +0.391 C 
ATOM     22  O   UNL     1      34.280  14.619  -1.186  0.00  0.00    -0.243 OA
ATOM     23  O   UNL     1      31.895  15.504  -0.819  0.00  0.00    -0.243 OA
ENDBRANCH  12  21
ENDBRANCH   8  10
ENDBRANCH   6   8
ENDBRANCH   5   6
ENDBRANCH   2   5
BRANCH   1  24
ATOM     24  O   UNL     1      28.243  16.952  -1.635  0.00  0.00    -0.450 OA
BRANCH  24  25
ATOM     25  C   UNL     1      27.111  17.465  -2.298  0.00  0.00    +0.240 C 
BRANCH  25  26
ATOM     26  C   UNL     1      26.988  17.192  -3.809  0.00  0.00    +0.100 C 
BRANCH  26  28
ATOM     27  N   UNL     1      25.842  15.547  -5.257  0.00  0.00    -0.134 NA
ATOM     28  C   UNL     1      25.901  16.230  -4.071  0.00  0.00    +0.086 A 
ATOM     29  C   UNL     1      24.838  15.853  -3.281  0.00  0.00    +0.133 A 
ATOM     30  N   UNL     1      24.159  14.956  -4.049  0.00  0.00    -0.250 N 
ATOM     31  N   UNL     1      24.767  14.773  -5.235  0.00  0.00    -0.065 NA
BRANCH  30  32
ATOM     32  C   UNL     1      22.957  14.222  -3.717  0.00  0.00    +0.162 C 
BRANCH  32  33
ATOM     33  C   UNL     1      23.186  13.076  -2.725  0.00  0.00    +0.129 C 
BRANCH  33  34
ATOM     34  N   UNL     1      22.689  13.366  -1.348  0.00  0.00    -0.193 NA
ATOM     35  H   UNL     1      22.838  14.355  -1.113  0.00  0.00    +0.148 HD
BRANCH  34  36
ATOM     36  S   UNL     1      21.128  12.836  -0.996  0.00  0.00    +0.027 S 
ATOM     37  O   UNL     1      21.189  12.190   0.297  0.00  0.00    -0.158 OA
ATOM     38  O   UNL     1      20.225  13.938  -1.244  0.00  0.00    -0.158 OA
ATOM     39  C   UNL     1      20.889  11.585  -2.235  0.00  0.00    +0.214 C 
ENDBRANCH  34  36
ENDBRANCH  33  34
ENDBRANCH  32  33
ENDBRANCH  30  32
ENDBRANCH  26  28
ENDBRANCH  25  26
ENDBRANCH  24  25
ENDBRANCH   1  24
TORSDOF 14
