REMARK VINA RESULT:    -6.132      3.043      9.399
REMARK INTER + INTRA:         -13.635
REMARK INTER:                 -11.074
REMARK INTRA:                  -2.561
REMARK UNBOUND:                -2.486
REMARK  Name = lig_assembled_29.pdb
REMARK  16 active torsions:
REMARK  status: ('A' for Active; 'I' for Inactive)
REMARK    1  A    between atoms: _2  and  _8
REMARK    2  A    between atoms: _5  and  _6
REMARK    3  A    between atoms: _5  and  _18
REMARK    4  A    between atoms: _8  and  _9
REMARK    5  A    between atoms: _11  and  _17
REMARK    6  A    between atoms: _12  and  _17
REMARK    7  A    between atoms: _13  and  _16
REMARK    8  A    between atoms: _14  and  _16
REMARK    9  A    between atoms: _18  and  _20
REMARK   10  A    between atoms: _19  and  _24
REMARK   11  A    between atoms: _20  and  _23
REMARK   12  A    between atoms: _28  and  _38
REMARK   13  A    between atoms: _30  and  _31
REMARK   14  A    between atoms: _32  and  _34
REMARK   15  A    between atoms: _34  and  _36
REMARK   16  A    between atoms: _36  and  _38
REMARK                            x       y       z     vdW  Elec       q    Type
REMARK                         _______ _______ _______ _____ _____    ______ ____
ROOT
ATOM      1  C   UNL     1      31.968  14.756   1.946  0.00  0.00    +0.400 C 
ATOM      2  N   UNL     1      31.178  15.765   1.449  0.00  0.00    -0.278 N 
ATOM      3  H   UNL     1      30.713  16.168   2.322  0.00  0.00    +0.152 HD
ATOM      4  O   UNL     1      32.104  14.673   3.164  0.00  0.00    -0.226 OA
ENDROOT
BRANCH   2   5
ATOM      5  C   UNL     1      30.711  16.524   0.291  0.00  0.00    +0.152 C 
BRANCH   5   6
ATOM      6  C   UNL     1      29.250  16.277  -0.139  0.00  0.00    +0.193 C 
ATOM      7  O   UNL     1      28.968  17.210  -1.205  0.00  0.00    -0.219 OA
BRANCH   6   8
ATOM      8  C   UNL     1      28.905  14.894  -0.735  0.00  0.00    +0.212 C 
ATOM      9  O   UNL     1      30.091  14.249  -1.225  0.00  0.00    -0.218 OA
BRANCH   8  10
ATOM     10  C   UNL     1      28.194  13.932   0.291  0.00  0.00    +0.171 C 
ATOM     11  O   UNL     1      29.112  13.314   1.188  0.00  0.00    -0.343 OA
ATOM     12  C   UNL     1      28.793  12.245   2.029  0.00  0.00    +0.220 C 
ATOM     13  C   UNL     1      28.107  11.101   1.262  0.00  0.00    +0.076 C 
ATOM     14  C   UNL     1      26.915  11.704   0.501  0.00  0.00    +0.177 C 
ATOM     15  O   UNL     1      26.220  10.678  -0.195  0.00  0.00    -0.221 OA
ATOM     16  C   UNL     1      27.407  12.818  -0.474  0.00  0.00    +0.155 C 
BRANCH  16  17
ATOM     17  N   UNL     1      26.278  13.388  -1.205  0.00  0.00    -0.202 NA
ATOM     18  C   UNL     1      25.989  13.340  -2.530  0.00  0.00    +0.242 C 
ATOM     19  C   UNL     1      24.612  13.757  -2.977  0.00  0.00    +0.096 C 
ATOM     20  O   UNL     1      26.845  12.960  -3.326  0.00  0.00    -0.273 OA
ENDBRANCH  16  17
BRANCH  12  21
ATOM     21  C   UNL     1      27.936  12.685   3.338  0.00  0.00    +0.391 C 
ATOM     22  O   UNL     1      27.819  14.023   3.243  0.00  0.00    -0.243 OA
ATOM     23  O   UNL     1      27.422  11.555   3.840  0.00  0.00    -0.243 OA
ENDBRANCH  12  21
ENDBRANCH   8  10
ENDBRANCH   6   8
ENDBRANCH   5   6
ENDBRANCH   2   5
BRANCH   1  24
ATOM     24  O   UNL     1      32.477  13.958   1.065  0.00  0.00    -0.450 OA
BRANCH  24  25
ATOM     25  C   UNL     1      33.399  13.990   0.001  0.00  0.00    +0.240 C 
BRANCH  25  26
ATOM     26  C   UNL     1      34.887  13.785   0.343  0.00  0.00    +0.100 C 
BRANCH  26  28
ATOM     27  N   UNL     1      35.362  13.940   2.772  0.00  0.00    -0.134 NA
ATOM     28  C   UNL     1      35.031  13.181   1.681  0.00  0.00    +0.086 A 
ATOM     29  C   UNL     1      34.852  11.876   2.077  0.00  0.00    +0.134 A 
ATOM     30  N   UNL     1      34.996  11.923   3.433  0.00  0.00    -0.247 N 
ATOM     31  N   UNL     1      35.348  13.155   3.842  0.00  0.00    -0.065 NA
BRANCH  30  32
ATOM     32  C   UNL     1      34.769  10.861   4.396  0.00  0.00    +0.180 C 
BRANCH  32  33
ATOM     33  C   UNL     1      33.694  11.254   5.384  0.00  0.00    -0.022 A 
ATOM     34  C   UNL     1      34.009  11.422   6.744  0.00  0.00    +0.054 A 
ATOM     35  C   UNL     1      33.040  11.862   7.656  0.00  0.00    +0.162 A 
ATOM     36  C   UNL     1      31.732  12.132   7.206  0.00  0.00    +0.162 A 
ATOM     37  C   UNL     1      31.420  11.964   5.854  0.00  0.00    +0.050 A 
ATOM     38  C   UNL     1      32.393  11.527   4.950  0.00  0.00    +0.009 A 
BRANCH  36  39
ATOM     39  O   UNL     1      30.838  12.553   8.161  0.00  0.00    -0.491 OA
ATOM     40  C   UNL     1      29.825  11.643   8.565  0.00  0.00    +0.277 C 
ENDBRANCH  36  39
BRANCH  35  41
ATOM     41  O   UNL     1      33.274  12.070   8.993  0.00  0.00    -0.491 OA
ATOM     42  C   UNL     1      34.359  11.376   9.593  0.00  0.00    +0.277 C 
ENDBRANCH  35  41
ENDBRANCH  32  33
ENDBRANCH  30  32
ENDBRANCH  26  28
ENDBRANCH  25  26
ENDBRANCH  24  25
ENDBRANCH   1  24
TORSDOF 14
