REMARK VINA RESULT:    -7.103      2.117      2.998
REMARK INTER + INTRA:         -13.902
REMARK INTER:                 -11.418
REMARK INTRA:                  -2.484
REMARK UNBOUND:                -1.815
REMARK  Name = lig_assembled_71.pdb
REMARK  12 active torsions:
REMARK  status: ('A' for Active; 'I' for Inactive)
REMARK    1  A    between atoms: _2  and  _11
REMARK    2  A    between atoms: _8  and  _9
REMARK    3  A    between atoms: _8  and  _17
REMARK    4  A    between atoms: _11  and  _12
REMARK    5  A    between atoms: _17  and  _19
REMARK    6  A    between atoms: _18  and  _23
REMARK    7  A    between atoms: _19  and  _22
REMARK    8  A    between atoms: _27  and  _37
REMARK    9  A    between atoms: _29  and  _30
REMARK   10  A    between atoms: _31  and  _33
REMARK   11  A    between atoms: _33  and  _35
REMARK   12  A    between atoms: _35  and  _37
REMARK                            x       y       z     vdW  Elec       q    Type
REMARK                         _______ _______ _______ _____ _____    ______ ____
ROOT
ATOM      1  C   UNL     1      27.974  17.246  -1.054  0.00  0.00    +0.400 C 
ATOM      2  N   UNL     1      28.479  16.379  -0.113  0.00  0.00    -0.278 N 
ATOM      3  H   UNL     1      29.067  17.013   0.516  0.00  0.00    +0.152 HD
ATOM      4  O   UNL     1      28.131  18.451  -0.875  0.00  0.00    -0.226 OA
ENDROOT
BRANCH   2   5
ATOM      5  C   UNL     1      28.559  15.018   0.408  0.00  0.00    +0.152 C 
BRANCH   5   6
ATOM      6  C   UNL     1      29.883  14.269   0.154  0.00  0.00    +0.193 C 
ATOM      7  O   UNL     1      29.978  14.066  -1.273  0.00  0.00    -0.219 OA
BRANCH   6   8
ATOM      8  C   UNL     1      31.196  14.991   0.528  0.00  0.00    +0.212 C 
ATOM      9  O   UNL     1      30.917  16.177   1.290  0.00  0.00    -0.218 OA
BRANCH   8  10
ATOM     10  C   UNL     1      32.194  14.088   1.349  0.00  0.00    +0.171 C 
ATOM     11  O   UNL     1      32.538  14.656   2.608  0.00  0.00    -0.343 OA
ATOM     12  C   UNL     1      33.576  14.197   3.423  0.00  0.00    +0.220 C 
ATOM     13  C   UNL     1      34.894  14.055   2.642  0.00  0.00    +0.076 C 
ATOM     14  C   UNL     1      34.608  13.185   1.406  0.00  0.00    +0.177 C 
ATOM     15  O   UNL     1      35.805  12.989   0.668  0.00  0.00    -0.221 OA
ATOM     16  C   UNL     1      33.502  13.848   0.527  0.00  0.00    +0.155 C 
BRANCH  16  17
ATOM     17  N   UNL     1      33.233  13.029  -0.652  0.00  0.00    -0.202 NA
ATOM     18  C   UNL     1      33.273  13.360  -1.967  0.00  0.00    +0.242 C 
ATOM     19  C   UNL     1      33.240  12.251  -2.986  0.00  0.00    +0.096 C 
ATOM     20  O   UNL     1      33.337  14.544  -2.294  0.00  0.00    -0.273 OA
ENDBRANCH  16  17
BRANCH  12  21
ATOM     21  C   UNL     1      33.210  12.836   4.230  0.00  0.00    +0.391 C 
ATOM     22  O   UNL     1      31.909  12.612   3.964  0.00  0.00    -0.243 OA
ATOM     23  O   UNL     1      34.380  12.297   4.596  0.00  0.00    -0.243 OA
ENDBRANCH  12  21
ENDBRANCH   8  10
ENDBRANCH   6   8
ENDBRANCH   5   6
ENDBRANCH   2   5
BRANCH   1  24
ATOM     24  O   UNL     1      27.398  16.694  -2.071  0.00  0.00    -0.450 OA
BRANCH  24  25
ATOM     25  C   UNL     1      26.699  17.068  -3.235  0.00  0.00    +0.240 C 
BRANCH  25  26
ATOM     26  C   UNL     1      26.046  15.945  -4.064  0.00  0.00    +0.100 C 
BRANCH  26  28
ATOM     27  N   UNL     1      24.348  15.246  -2.392  0.00  0.00    -0.134 NA
ATOM     28  C   UNL     1      25.432  14.941  -3.173  0.00  0.00    +0.086 A 
ATOM     29  C   UNL     1      25.777  13.627  -2.964  0.00  0.00    +0.134 A 
ATOM     30  N   UNL     1      24.880  13.188  -2.035  0.00  0.00    -0.243 N 
ATOM     31  N   UNL     1      24.012  14.162  -1.704  0.00  0.00    -0.065 NA
BRANCH  30  32
ATOM     32  C   UNL     1      24.707  11.852  -1.503  0.00  0.00    +0.241 C 
BRANCH  32  33
ATOM     33  C   UNL     1      25.809  11.485  -0.542  0.00  0.00    +0.241 C 
ATOM     34  O   UNL     1      26.487  10.478  -0.738  0.00  0.00    -0.273 OA
ATOM     35  N   UNL     1      25.909  12.312   0.557  0.00  0.00    -0.253 N 
ATOM     36  H   UNL     1      25.206  13.000   0.778  0.00  0.00    +0.158 HD
ATOM     37  C   UNL     1      26.871  12.166   1.549  0.00  0.00    +0.221 A 
ATOM     38  N   UNL     1      26.645  12.863   2.674  0.00  0.00    -0.223 NA
ATOM     39  C   UNL     1      27.528  12.675   3.677  0.00  0.00    +0.116 A 
ATOM     40  C   UNL     1      28.626  11.851   3.587  0.00  0.00    +0.039 A 
ATOM     41  C   UNL     1      28.787  11.224   2.380  0.00  0.00    +0.116 A 
ATOM     42  N   UNL     1      27.927  11.369   1.360  0.00  0.00    -0.223 NA
ENDBRANCH  32  33
ENDBRANCH  30  32
ENDBRANCH  26  28
ENDBRANCH  25  26
ENDBRANCH  24  25
ENDBRANCH   1  24
TORSDOF 12
