REMARK VINA RESULT:    -6.887      2.477     10.147
REMARK INTER + INTRA:         -14.785
REMARK INTER:                 -12.184
REMARK INTRA:                  -2.601
REMARK UNBOUND:                -1.860
REMARK  Name = lig_assembled_37.pdb
REMARK  16 active torsions:
REMARK  status: ('A' for Active; 'I' for Inactive)
REMARK    1  A    between atoms: _2  and  _8
REMARK    2  A    between atoms: _5  and  _6
REMARK    3  A    between atoms: _5  and  _19
REMARK    4  A    between atoms: _8  and  _9
REMARK    5  A    between atoms: _8  and  _10
REMARK    6  A    between atoms: _10  and  _17
REMARK    7  A    between atoms: _11  and  _12
REMARK    8  A    between atoms: _11  and  _17
REMARK    9  A    between atoms: _19  and  _21
REMARK   10  A    between atoms: _20  and  _25
REMARK   11  A    between atoms: _21  and  _24
REMARK   12  A    between atoms: _29  and  _39
REMARK   13  A    between atoms: _31  and  _32
REMARK   14  A    between atoms: _33  and  _35
REMARK   15  A    between atoms: _35  and  _37
REMARK   16  A    between atoms: _37  and  _39
REMARK                            x       y       z     vdW  Elec       q    Type
REMARK                         _______ _______ _______ _____ _____    ______ ____
ROOT
ATOM      1  C   UNL     1      27.920  17.619  -0.848  0.00  0.00    +0.400 C 
ATOM      2  N   UNL     1      27.012  16.948  -1.632  0.00  0.00    -0.278 N 
ATOM      3  H   UNL     1      26.070  17.209  -1.200  0.00  0.00    +0.152 HD
ATOM      4  O   UNL     1      27.492  18.435  -0.035  0.00  0.00    -0.226 OA
ENDROOT
BRANCH   2   5
ATOM      5  C   UNL     1      26.762  16.071  -2.773  0.00  0.00    +0.152 C 
BRANCH   5   6
ATOM      6  C   UNL     1      25.487  15.205  -2.699  0.00  0.00    +0.193 C 
ATOM      7  O   UNL     1      24.789  15.386  -3.951  0.00  0.00    -0.219 OA
BRANCH   6   8
ATOM      8  C   UNL     1      25.667  13.676  -2.575  0.00  0.00    +0.212 C 
ATOM      9  O   UNL     1      26.988  13.291  -2.990  0.00  0.00    -0.218 OA
BRANCH   8  10
ATOM     10  C   UNL     1      25.419  13.134  -1.116  0.00  0.00    +0.171 C 
ATOM     11  O   UNL     1      26.430  12.227  -0.689  0.00  0.00    -0.343 OA
ATOM     12  C   UNL     1      26.336  11.419   0.447  0.00  0.00    +0.220 C 
ATOM     13  C   UNL     1      25.013  10.633   0.479  0.00  0.00    +0.076 C 
ATOM     14  C   UNL     1      23.869  11.646   0.308  0.00  0.00    +0.177 C 
ATOM     15  O   UNL     1      22.618  10.975   0.371  0.00  0.00    -0.221 OA
ATOM     16  C   UNL     1      24.031  12.418  -1.038  0.00  0.00    +0.155 C 
BRANCH  16  17
ATOM     17  N   UNL     1      22.941  13.376  -1.208  0.00  0.00    -0.202 NA
ATOM     18  C   UNL     1      21.998  13.455  -2.181  0.00  0.00    +0.242 C 
ATOM     19  C   UNL     1      20.815  14.360  -1.958  0.00  0.00    +0.096 C 
ATOM     20  O   UNL     1      22.129  12.793  -3.208  0.00  0.00    -0.273 OA
ENDBRANCH  16  17
BRANCH  12  21
ATOM     21  C   UNL     1      26.586  12.224   1.836  0.00  0.00    +0.391 C 
ATOM     22  O   UNL     1      25.987  11.477   2.783  0.00  0.00    -0.243 OA
ATOM     23  O   UNL     1      27.527  13.138   1.569  0.00  0.00    -0.243 OA
ENDBRANCH  12  21
ENDBRANCH   8  10
ENDBRANCH   6   8
ENDBRANCH   5   6
ENDBRANCH   2   5
BRANCH   1  24
ATOM     24  O   UNL     1      29.159  17.297  -1.025  0.00  0.00    -0.450 OA
BRANCH  24  25
ATOM     25  C   UNL     1      30.172  16.557  -0.385  0.00  0.00    +0.240 C 
BRANCH  25  26
ATOM     26  C   UNL     1      29.878  15.080  -0.063  0.00  0.00    +0.100 C 
BRANCH  26  28
ATOM     27  N   UNL     1      31.320  15.444   1.918  0.00  0.00    -0.134 NA
ATOM     28  C   UNL     1      30.788  14.591   0.989  0.00  0.00    +0.086 A 
ATOM     29  C   UNL     1      31.243  13.315   1.236  0.00  0.00    +0.134 A 
ATOM     30  N   UNL     1      32.071  13.460   2.310  0.00  0.00    -0.238 N 
ATOM     31  N   UNL     1      32.100  14.740   2.729  0.00  0.00    -0.065 NA
BRANCH  30  32
ATOM     32  C   UNL     1      32.813  12.452   3.041  0.00  0.00    +0.214 C 
ATOM     33  C   UNL     1      31.898  11.329   3.529  0.00  0.00    +0.045 C 
BRANCH  32  34
ATOM     34  C   UNL     1      33.936  11.884   2.202  0.00  0.00    +0.332 C 
ATOM     35  O   UNL     1      34.021  10.704   1.878  0.00  0.00    -0.248 OA
BRANCH  34  36
ATOM     36  O   UNL     1      34.832  12.849   1.863  0.00  0.00    -0.458 OA
BRANCH  36  37
ATOM     37  C   UNL     1      35.599  12.608   0.672  0.00  0.00    +0.267 C 
BRANCH  37  38
ATOM     38  C   UNL     1      34.845  13.106  -0.534  0.00  0.00    -0.010 A 
ATOM     39  C   UNL     1      34.220  14.361  -0.512  0.00  0.00    +0.007 A 
ATOM     40  C   UNL     1      33.545  14.835  -1.639  0.00  0.00    +0.000 A 
ATOM     41  C   UNL     1      33.486  14.061  -2.796  0.00  0.00    +0.000 A 
ATOM     42  C   UNL     1      34.099  12.810  -2.827  0.00  0.00    +0.000 A 
ATOM     43  C   UNL     1      34.774  12.332  -1.701  0.00  0.00    +0.007 A 
ENDBRANCH  37  38
ENDBRANCH  36  37
ENDBRANCH  34  36
ENDBRANCH  32  34
ENDBRANCH  30  32
ENDBRANCH  26  28
ENDBRANCH  25  26
ENDBRANCH  24  25
ENDBRANCH   1  24
TORSDOF 15
