REMARK VINA RESULT:    -7.562      2.398      5.437
REMARK INTER + INTRA:         -14.370
REMARK INTER:                 -12.141
REMARK INTRA:                  -2.229
REMARK UNBOUND:                -1.503
REMARK  Name = lig_assembled_89.pdb
REMARK  14 active torsions:
REMARK  status: ('A' for Active; 'I' for Inactive)
REMARK    1  A    between atoms: _2  and  _11
REMARK    2  A    between atoms: _5  and  _19
REMARK    3  A    between atoms: _8  and  _9
REMARK    4  A    between atoms: _8  and  _24
REMARK    5  A    between atoms: _19  and  _20
REMARK    6  A    between atoms: _19  and  _21
REMARK    7  A    between atoms: _24  and  _26
REMARK    8  A    between atoms: _25  and  _30
REMARK    9  A    between atoms: _26  and  _29
REMARK   10  A    between atoms: _34  and  _44
REMARK   11  A    between atoms: _36  and  _37
REMARK   12  A    between atoms: _38  and  _40
REMARK   13  A    between atoms: _40  and  _42
REMARK   14  A    between atoms: _42  and  _44
REMARK                            x       y       z     vdW  Elec       q    Type
REMARK                         _______ _______ _______ _____ _____    ______ ____
ROOT
ATOM      1  C   UNL     1      32.502  12.608   0.038  0.00  0.00    +0.240 C 
ENDROOT
BRANCH   1   2
ATOM      2  C   UNL     1      31.913  12.837  -1.367  0.00  0.00    +0.100 C 
BRANCH   2   4
ATOM      3  N   UNL     1      30.466  14.725  -0.717  0.00  0.00    -0.134 NA
ATOM      4  C   UNL     1      30.594  13.484  -1.266  0.00  0.00    +0.087 A 
ATOM      5  C   UNL     1      29.356  13.045  -1.672  0.00  0.00    +0.141 A 
ATOM      6  N   UNL     1      28.489  14.078  -1.372  0.00  0.00    -0.200 N 
ATOM      7  N   UNL     1      29.191  15.079  -0.792  0.00  0.00    -0.059 NA
BRANCH   6   8
ATOM      8  C   UNL     1      27.103  14.125  -1.705  0.00  0.00    +0.186 A 
ATOM      9  C   UNL     1      26.052  13.378  -1.214  0.00  0.00    +0.158 A 
ATOM     10  C   UNL     1      25.977  12.250  -0.338  0.00  0.00    +0.280 A 
ATOM     11  O   UNL     1      26.936  11.521  -0.123  0.00  0.00    -0.265 OA
ATOM     12  N   UNL     1      24.710  12.017   0.235  0.00  0.00    -0.302 N 
ATOM     13  C   UNL     1      23.523  12.571  -0.377  0.00  0.00    +0.069 A 
ATOM     14  C   UNL     1      22.228  12.159  -0.030  0.00  0.00    +0.028 A 
ATOM     15  C   UNL     1      21.101  12.680  -0.681  0.00  0.00    +0.002 A 
ATOM     16  C   UNL     1      21.242  13.632  -1.684  0.00  0.00    +0.002 A 
ATOM     17  C   UNL     1      22.512  14.073  -2.046  0.00  0.00    +0.028 A 
ATOM     18  C   UNL     1      23.637  13.537  -1.402  0.00  0.00    +0.072 A 
ATOM     19  N   UNL     1      24.932  13.955  -1.747  0.00  0.00    -0.291 N 
ATOM     20  C   UNL     1      25.347  14.936  -2.611  0.00  0.00    +0.207 A 
ATOM     21  N   UNL     1      26.656  15.075  -2.603  0.00  0.00    -0.216 NA
BRANCH  12  22
ATOM     22  C   UNL     1      24.619  11.034   1.340  0.00  0.00    +0.085 C 
ATOM     23  C   UNL     1      25.383  11.455   2.610  0.00  0.00    +0.030 C 
ATOM     24  C   UNL     1      25.052   9.637   0.893  0.00  0.00    +0.030 C 
ENDBRANCH  12  22
ENDBRANCH   6   8
ENDBRANCH   2   4
ENDBRANCH   1   2
BRANCH   1  25
ATOM     25  O   UNL     1      33.486  13.510   0.485  0.00  0.00    -0.450 OA
BRANCH  25  26
ATOM     26  C   UNL     1      34.770  13.573   0.621  0.00  0.00    +0.400 C 
ATOM     27  N   UNL     1      35.220  13.924   1.872  0.00  0.00    -0.278 N 
ATOM     28  H   UNL     1      36.269  13.726   1.822  0.00  0.00    +0.152 HD
ATOM     29  O   UNL     1      35.604  13.322  -0.245  0.00  0.00    -0.226 OA
BRANCH  27  30
ATOM     30  C   UNL     1      34.918  14.446   3.202  0.00  0.00    +0.152 C 
BRANCH  30  31
ATOM     31  C   UNL     1      34.373  13.428   4.225  0.00  0.00    +0.193 C 
ATOM     32  O   UNL     1      34.005  14.178   5.403  0.00  0.00    -0.219 OA
BRANCH  31  33
ATOM     33  C   UNL     1      33.093  12.650   3.847  0.00  0.00    +0.212 C 
ATOM     34  O   UNL     1      33.427  11.444   3.143  0.00  0.00    -0.218 OA
BRANCH  33  35
ATOM     35  C   UNL     1      32.200  12.276   5.092  0.00  0.00    +0.171 C 
ATOM     36  O   UNL     1      32.838  11.352   5.966  0.00  0.00    -0.343 OA
ATOM     37  C   UNL     1      32.193  10.671   7.001  0.00  0.00    +0.220 C 
ATOM     38  C   UNL     1      30.906   9.982   6.515  0.00  0.00    +0.076 C 
ATOM     39  C   UNL     1      30.050  11.047   5.808  0.00  0.00    +0.177 C 
ATOM     40  O   UNL     1      28.827  10.471   5.373  0.00  0.00    -0.221 OA
ATOM     41  C   UNL     1      30.841  11.666   4.614  0.00  0.00    +0.155 C 
BRANCH  41  42
ATOM     42  N   UNL     1      30.030  12.673   3.935  0.00  0.00    -0.202 NA
ATOM     43  C   UNL     1      29.447  12.636   2.710  0.00  0.00    +0.242 C 
ATOM     44  C   UNL     1      28.421  13.687   2.374  0.00  0.00    +0.096 C 
ATOM     45  O   UNL     1      29.765  11.757   1.912  0.00  0.00    -0.273 OA
ENDBRANCH  41  42
BRANCH  37  46
ATOM     46  C   UNL     1      31.919  11.593   8.310  0.00  0.00    +0.391 C 
ATOM     47  O   UNL     1      30.929  10.967   8.975  0.00  0.00    -0.243 OA
ATOM     48  O   UNL     1      32.956  12.435   8.392  0.00  0.00    -0.243 OA
ENDBRANCH  37  46
ENDBRANCH  33  35
ENDBRANCH  31  33
ENDBRANCH  30  31
ENDBRANCH  27  30
ENDBRANCH  25  26
ENDBRANCH   1  25
TORSDOF 12
