REMARK VINA RESULT:    -7.225      2.421      4.597
REMARK INTER + INTRA:         -14.421
REMARK INTER:                 -12.009
REMARK INTRA:                  -2.412
REMARK UNBOUND:                -2.128
REMARK  Name = lig_assembled_0.pdb
REMARK  12 active torsions:
REMARK  status: ('A' for Active; 'I' for Inactive)
REMARK    1  A    between atoms: _2  and  _9
REMARK    2  A    between atoms: _6  and  _7
REMARK    3  A    between atoms: _6  and  _16
REMARK    4  A    between atoms: _10  and  _11
REMARK    5  A    between atoms: _16  and  _18
REMARK    6  A    between atoms: _17  and  _22
REMARK    7  A    between atoms: _18  and  _21
REMARK    8  A    between atoms: _26  and  _36
REMARK    9  A    between atoms: _28  and  _29
REMARK   10  A    between atoms: _30  and  _32
REMARK   11  A    between atoms: _32  and  _34
REMARK   12  A    between atoms: _34  and  _36
REMARK                            x       y       z     vdW  Elec       q    Type
REMARK                         _______ _______ _______ _____ _____    ______ ____
ROOT
ATOM      1  C   UNL     1      28.530  16.444  -1.124  0.00  0.00    +0.400 C 
ATOM      2  N   UNL     1      28.686  15.139  -0.720  0.00  0.00    -0.278 N 
ATOM      3  H   UNL     1      29.713  15.091  -0.429  0.00  0.00    +0.152 HD
ATOM      4  O   UNL     1      29.447  17.231  -0.905  0.00  0.00    -0.226 OA
ENDROOT
BRANCH   2   5
ATOM      5  C   UNL     1      28.088  13.824  -0.502  0.00  0.00    +0.152 C 
BRANCH   5   6
ATOM      6  C   UNL     1      28.547  12.702  -1.456  0.00  0.00    +0.193 C 
ATOM      7  O   UNL     1      28.624  13.285  -2.776  0.00  0.00    -0.219 OA
BRANCH   6   8
ATOM      8  C   UNL     1      29.947  12.092  -1.222  0.00  0.00    +0.212 C 
ATOM      9  O   UNL     1      29.948  10.695  -1.556  0.00  0.00    -0.218 OA
BRANCH   8  10
ATOM     10  C   UNL     1      31.085  12.808  -2.044  0.00  0.00    +0.171 C 
ATOM     11  O   UNL     1      31.681  11.953  -3.014  0.00  0.00    -0.343 OA
ATOM     12  C   UNL     1      32.860  12.244  -3.704  0.00  0.00    +0.220 C 
ATOM     13  C   UNL     1      33.991  12.663  -2.749  0.00  0.00    +0.076 C 
ATOM     14  C   UNL     1      33.456  13.806  -1.871  0.00  0.00    +0.177 C 
ATOM     15  O   UNL     1      34.477  14.259  -0.994  0.00  0.00    -0.221 OA
ATOM     16  C   UNL     1      32.198  13.331  -1.078  0.00  0.00    +0.155 C 
BRANCH  16  17
ATOM     17  N   UNL     1      31.690  14.412  -0.237  0.00  0.00    -0.202 NA
ATOM     18  C   UNL     1      31.560  14.473   1.113  0.00  0.00    +0.242 C 
ATOM     19  C   UNL     1      31.286  15.813   1.745  0.00  0.00    +0.096 C 
ATOM     20  O   UNL     1      31.668  13.447   1.781  0.00  0.00    -0.273 OA
ENDBRANCH  16  17
BRANCH  12  21
ATOM     21  C   UNL     1      32.659  13.324  -4.901  0.00  0.00    +0.391 C 
ATOM     22  O   UNL     1      31.453  13.037  -5.429  0.00  0.00    -0.243 OA
ATOM     23  O   UNL     1      33.601  14.257  -4.719  0.00  0.00    -0.243 OA
ENDBRANCH  12  21
ENDBRANCH   8  10
ENDBRANCH   6   8
ENDBRANCH   5   6
ENDBRANCH   2   5
BRANCH   1  24
ATOM     24  O   UNL     1      27.423  16.712  -1.736  0.00  0.00    -0.450 OA
BRANCH  24  25
ATOM     25  C   UNL     1      26.969  17.442  -2.852  0.00  0.00    +0.240 C 
BRANCH  25  26
ATOM     26  C   UNL     1      26.361  16.647  -4.022  0.00  0.00    +0.100 C 
BRANCH  26  28
ATOM     27  N   UNL     1      25.584  14.306  -4.069  0.00  0.00    -0.134 NA
ATOM     28  C   UNL     1      25.518  15.549  -3.514  0.00  0.00    +0.086 A 
ATOM     29  C   UNL     1      24.609  15.534  -2.479  0.00  0.00    +0.139 A 
ATOM     30  N   UNL     1      24.067  14.270  -2.497  0.00  0.00    -0.219 N 
ATOM     31  N   UNL     1      24.740  13.523  -3.415  0.00  0.00    -0.061 NA
BRANCH  30  32
ATOM     32  C   UNL     1      23.074  13.672  -1.670  0.00  0.00    +0.079 A 
ATOM     33  C   UNL     1      23.294  12.568  -0.821  0.00  0.00    +0.062 A 
ATOM     34  C   UNL     1      22.206  12.048  -0.085  0.00  0.00    +0.015 A 
ATOM     35  C   UNL     1      20.926  12.595  -0.196  0.00  0.00    +0.001 A 
ATOM     36  C   UNL     1      20.714  13.690  -1.020  0.00  0.00    +0.002 A 
ATOM     37  C   UNL     1      21.777  14.231  -1.741  0.00  0.00    +0.028 A 
BRANCH  33  38
ATOM     38  C   UNL     1      24.641  12.019  -0.496  0.00  0.00    +0.244 C 
ATOM     39  O   UNL     1      25.195  12.239   0.570  0.00  0.00    -0.270 OA
ATOM     40  N   UNL     1      25.238  11.212  -1.427  0.00  0.00    -0.325 N 
ATOM     41  H   UNL     1      26.129  10.802  -1.176  0.00  0.00    +0.145 HD
ATOM     42  H   UNL     1      24.840  10.971  -2.323  0.00  0.00    +0.145 HD
ENDBRANCH  33  38
ENDBRANCH  30  32
ENDBRANCH  26  28
ENDBRANCH  25  26
ENDBRANCH  24  25
ENDBRANCH   1  24
TORSDOF 12
