REMARK VINA RESULT:    -6.081      2.328      3.846
REMARK INTER + INTRA:         -13.544
REMARK INTER:                 -11.058
REMARK INTRA:                  -2.486
REMARK UNBOUND:                -2.486
REMARK  Name = lig_assembled_29.pdb
REMARK  16 active torsions:
REMARK  status: ('A' for Active; 'I' for Inactive)
REMARK    1  A    between atoms: _2  and  _8
REMARK    2  A    between atoms: _5  and  _6
REMARK    3  A    between atoms: _5  and  _18
REMARK    4  A    between atoms: _8  and  _9
REMARK    5  A    between atoms: _11  and  _17
REMARK    6  A    between atoms: _12  and  _17
REMARK    7  A    between atoms: _13  and  _16
REMARK    8  A    between atoms: _14  and  _16
REMARK    9  A    between atoms: _18  and  _20
REMARK   10  A    between atoms: _19  and  _24
REMARK   11  A    between atoms: _20  and  _23
REMARK   12  A    between atoms: _28  and  _38
REMARK   13  A    between atoms: _30  and  _31
REMARK   14  A    between atoms: _32  and  _34
REMARK   15  A    between atoms: _34  and  _36
REMARK   16  A    between atoms: _36  and  _38
REMARK                            x       y       z     vdW  Elec       q    Type
REMARK                         _______ _______ _______ _____ _____    ______ ____
ROOT
ATOM      1  C   UNL     1      27.410  13.034  -3.108  0.00  0.00    +0.400 C 
ATOM      2  N   UNL     1      26.997  12.600  -1.870  0.00  0.00    -0.278 N 
ATOM      3  H   UNL     1      27.545  11.693  -1.731  0.00  0.00    +0.152 HD
ATOM      4  O   UNL     1      28.355  12.456  -3.639  0.00  0.00    -0.226 OA
ENDROOT
BRANCH   2   5
ATOM      5  C   UNL     1      26.177  12.825  -0.683  0.00  0.00    +0.152 C 
BRANCH   5   6
ATOM      6  C   UNL     1      26.822  12.457   0.669  0.00  0.00    +0.193 C 
ATOM      7  O   UNL     1      27.649  11.296   0.432  0.00  0.00    -0.219 OA
BRANCH   6   8
ATOM      8  C   UNL     1      27.779  13.487   1.309  0.00  0.00    +0.212 C 
ATOM      9  O   UNL     1      27.968  13.197   2.703  0.00  0.00    -0.218 OA
BRANCH   8  10
ATOM     10  C   UNL     1      29.191  13.545   0.610  0.00  0.00    +0.171 C 
ATOM     11  O   UNL     1      30.225  12.995   1.419  0.00  0.00    -0.343 OA
ATOM     12  C   UNL     1      31.590  13.136   1.157  0.00  0.00    +0.220 C 
ATOM     13  C   UNL     1      31.975  14.605   0.910  0.00  0.00    +0.076 C 
ATOM     14  C   UNL     1      31.045  15.148  -0.188  0.00  0.00    +0.177 C 
ATOM     15  O   UNL     1      31.385  16.495  -0.484  0.00  0.00    -0.221 OA
ATOM     16  C   UNL     1      29.555  15.025   0.260  0.00  0.00    +0.155 C 
BRANCH  16  17
ATOM     17  N   UNL     1      28.669  15.547  -0.777  0.00  0.00    -0.202 NA
ATOM     18  C   UNL     1      28.187  16.803  -0.956  0.00  0.00    +0.242 C 
ATOM     19  C   UNL     1      27.532  17.138  -2.270  0.00  0.00    +0.096 C 
ATOM     20  O   UNL     1      28.296  17.629  -0.052  0.00  0.00    -0.273 OA
ENDBRANCH  16  17
BRANCH  12  21
ATOM     21  C   UNL     1      32.123  12.170  -0.037  0.00  0.00    +0.391 C 
ATOM     22  O   UNL     1      33.341  12.649  -0.354  0.00  0.00    -0.243 OA
ATOM     23  O   UNL     1      31.307  11.109  -0.046  0.00  0.00    -0.243 OA
ENDBRANCH  12  21
ENDBRANCH   8  10
ENDBRANCH   6   8
ENDBRANCH   5   6
ENDBRANCH   2   5
BRANCH   1  24
ATOM     24  O   UNL     1      26.730  14.009  -3.615  0.00  0.00    -0.450 OA
BRANCH  24  25
ATOM     25  C   UNL     1      25.604  14.212  -4.437  0.00  0.00    +0.240 C 
BRANCH  25  26
ATOM     26  C   UNL     1      24.644  15.356  -4.058  0.00  0.00    +0.100 C 
BRANCH  26  28
ATOM     27  N   UNL     1      22.413  15.642  -3.013  0.00  0.00    -0.134 NA
ATOM     28  C   UNL     1      23.445  14.821  -3.384  0.00  0.00    +0.086 A 
ATOM     29  C   UNL     1      23.133  13.525  -3.049  0.00  0.00    +0.134 A 
ATOM     30  N   UNL     1      21.860  13.609  -2.564  0.00  0.00    -0.247 N 
ATOM     31  N   UNL     1      21.448  14.888  -2.501  0.00  0.00    -0.065 NA
BRANCH  30  32
ATOM     32  C   UNL     1      20.968  12.526  -2.194  0.00  0.00    +0.180 C 
BRANCH  32  33
ATOM     33  C   UNL     1      21.499  11.783  -0.989  0.00  0.00    -0.022 A 
ATOM     34  C   UNL     1      22.361  10.684  -1.158  0.00  0.00    +0.054 A 
ATOM     35  C   UNL     1      22.922  10.036  -0.049  0.00  0.00    +0.162 A 
ATOM     36  C   UNL     1      22.611  10.484   1.251  0.00  0.00    +0.162 A 
ATOM     37  C   UNL     1      21.753  11.576   1.416  0.00  0.00    +0.050 A 
ATOM     38  C   UNL     1      21.200  12.218   0.305  0.00  0.00    +0.009 A 
BRANCH  36  39
ATOM     39  O   UNL     1      23.195   9.794   2.286  0.00  0.00    -0.491 OA
ATOM     40  C   UNL     1      22.367   9.413   3.375  0.00  0.00    +0.277 C 
ENDBRANCH  36  39
BRANCH  35  41
ATOM     41  O   UNL     1      23.787   8.973  -0.130  0.00  0.00    -0.491 OA
ATOM     42  C   UNL     1      25.062   9.198  -0.715  0.00  0.00    +0.277 C 
ENDBRANCH  35  41
ENDBRANCH  32  33
ENDBRANCH  30  32
ENDBRANCH  26  28
ENDBRANCH  25  26
ENDBRANCH  24  25
ENDBRANCH   1  24
TORSDOF 14
