REMARK VINA RESULT:    -6.331      2.183      3.240
REMARK INTER + INTRA:         -14.054
REMARK INTER:                 -12.335
REMARK INTRA:                  -1.719
REMARK UNBOUND:                -2.913
REMARK  Name = lig_assembled_92.pdb
REMARK  13 active torsions:
REMARK  status: ('A' for Active; 'I' for Inactive)
REMARK    1  A    between atoms: _2  and  _10
REMARK    2  A    between atoms: _3  and  _49
REMARK    3  A    between atoms: _7  and  _8
REMARK    4  A    between atoms: _7  and  _20
REMARK    5  A    between atoms: _13  and  _49
REMARK    6  A    between atoms: _20  and  _22
REMARK    7  A    between atoms: _21  and  _26
REMARK    8  A    between atoms: _22  and  _25
REMARK    9  A    between atoms: _30  and  _40
REMARK   10  A    between atoms: _32  and  _33
REMARK   11  A    between atoms: _34  and  _36
REMARK   12  A    between atoms: _36  and  _38
REMARK   13  A    between atoms: _38  and  _40
REMARK                            x       y       z     vdW  Elec       q    Type
REMARK                         _______ _______ _______ _____ _____    ______ ____
ROOT
ATOM      1  O   UNL     1      27.898  17.103  -1.815  0.00  0.00    -0.450 OA
ENDROOT
BRANCH   1   2
ATOM      2  C   UNL     1      28.094  17.712  -0.692  0.00  0.00    +0.400 C 
ATOM      3  N   UNL     1      29.329  17.523  -0.119  0.00  0.00    -0.278 N 
ATOM      4  H   UNL     1      29.352  18.247   0.666  0.00  0.00    +0.152 HD
ATOM      5  O   UNL     1      27.298  18.454  -0.121  0.00  0.00    -0.226 OA
BRANCH   3   6
ATOM      6  C   UNL     1      30.589  16.783  -0.093  0.00  0.00    +0.152 C 
BRANCH   6   7
ATOM      7  C   UNL     1      30.507  15.318   0.382  0.00  0.00    +0.193 C 
ATOM      8  O   UNL     1      30.799  14.492  -0.767  0.00  0.00    -0.219 OA
BRANCH   7   9
ATOM      9  C   UNL     1      31.518  14.857   1.455  0.00  0.00    +0.212 C 
ATOM     10  O   UNL     1      31.607  15.827   2.511  0.00  0.00    -0.218 OA
BRANCH   9  11
ATOM     11  C   UNL     1      31.163  13.457   2.086  0.00  0.00    +0.171 C 
ATOM     12  O   UNL     1      29.781  13.335   2.408  0.00  0.00    -0.343 OA
ATOM     13  C   UNL     1      29.242  12.312   3.191  0.00  0.00    +0.220 C 
ATOM     14  C   UNL     1      30.007  12.142   4.515  0.00  0.00    +0.076 C 
ATOM     15  C   UNL     1      31.497  11.976   4.170  0.00  0.00    +0.177 C 
ATOM     16  O   UNL     1      32.247  11.774   5.359  0.00  0.00    -0.221 OA
ATOM     17  C   UNL     1      32.008  13.222   3.381  0.00  0.00    +0.155 C 
BRANCH  17  18
ATOM     18  N   UNL     1      33.424  13.071   3.057  0.00  0.00    -0.202 NA
ATOM     19  C   UNL     1      34.501  13.741   3.540  0.00  0.00    +0.242 C 
ATOM     20  C   UNL     1      35.873  13.189   3.258  0.00  0.00    +0.096 C 
ATOM     21  O   UNL     1      34.333  14.771   4.191  0.00  0.00    -0.273 OA
ENDBRANCH  17  18
BRANCH  13  22
ATOM     22  C   UNL     1      29.096  10.901   2.400  0.00  0.00    +0.391 C 
ATOM     23  O   UNL     1      29.410  11.185   1.121  0.00  0.00    -0.243 OA
ATOM     24  O   UNL     1      29.019   9.954   3.343  0.00  0.00    -0.243 OA
ENDBRANCH  13  22
ENDBRANCH   9  11
ENDBRANCH   7   9
ENDBRANCH   6   7
ENDBRANCH   3   6
ENDBRANCH   1   2
BRANCH   1  25
ATOM     25  C   UNL     1      27.437  15.859  -2.290  0.00  0.00    +0.240 C 
BRANCH  25  26
ATOM     26  C   UNL     1      26.095  15.841  -3.046  0.00  0.00    +0.100 C 
BRANCH  26  28
ATOM     27  N   UNL     1      23.798  15.016  -2.606  0.00  0.00    -0.134 NA
ATOM     28  C   UNL     1      25.142  14.936  -2.378  0.00  0.00    +0.086 A 
ATOM     29  C   UNL     1      25.385  13.918  -1.485  0.00  0.00    +0.139 A 
ATOM     30  N   UNL     1      24.148  13.379  -1.213  0.00  0.00    -0.220 N 
ATOM     31  N   UNL     1      23.200  14.072  -1.891  0.00  0.00    -0.061 NA
BRANCH  30  32
ATOM     32  C   UNL     1      23.834  12.259  -0.402  0.00  0.00    +0.067 A 
ATOM     33  C   UNL     1      22.531  12.079   0.084  0.00  0.00    +0.030 A 
ATOM     34  C   UNL     1      22.239  11.010   0.929  0.00  0.00    +0.031 A 
ATOM     35  C   UNL     1      23.246  10.109   1.284  0.00  0.00    +0.109 A 
ATOM     36  C   UNL     1      24.546  10.270   0.800  0.00  0.00    +0.031 A 
ATOM     37  C   UNL     1      24.839  11.341  -0.052  0.00  0.00    +0.030 A 
BRANCH  35  38
ATOM     38  S   UNL     1      22.874   8.854   2.479  0.00  0.00    +0.074 S 
ATOM     39  O   UNL     1      21.454   8.575   2.393  0.00  0.00    -0.150 OA
ATOM     40  O   UNL     1      23.832   7.781   2.336  0.00  0.00    -0.150 OA
BRANCH  38  41
ATOM     41  N   UNL     1      23.076   9.643   3.957  0.00  0.00    -0.194 N 
ATOM     42  H   UNL     1      22.449  10.444   3.940  0.00  0.00    +0.176 HD
ATOM     43  C   UNL     1      22.859   8.783   5.053  0.00  0.00    +0.177 A 
ATOM     44  S   UNL     1      21.372   8.716   5.893  0.00  0.00    -0.059 S 
ATOM     45  C   UNL     1      22.077   7.615   7.006  0.00  0.00    +0.068 A 
ATOM     46  C   UNL     1      23.411   7.443   6.698  0.00  0.00    +0.120 A 
ATOM     47  N   UNL     1      23.849   8.090   5.558  0.00  0.00    -0.232 NA
ENDBRANCH  38  41
ENDBRANCH  35  38
ENDBRANCH  30  32
ENDBRANCH  26  28
ENDBRANCH  25  26
ENDBRANCH   1  25
TORSDOF 13
