REMARK VINA RESULT:    -7.312      1.212      3.659
REMARK INTER + INTRA:         -13.639
REMARK INTER:                 -12.163
REMARK INTRA:                  -1.476
REMARK UNBOUND:                -1.624
REMARK  Name = lig_assembled_3.pdb
REMARK  11 active torsions:
REMARK  status: ('A' for Active; 'I' for Inactive)
REMARK    1  A    between atoms: _2  and  _8
REMARK    2  A    between atoms: _5  and  _6
REMARK    3  A    between atoms: _5  and  _13
REMARK    4  A    between atoms: _13  and  _15
REMARK    5  A    between atoms: _14  and  _19
REMARK    6  A    between atoms: _15  and  _18
REMARK    7  A    between atoms: _23  and  _33
REMARK    8  A    between atoms: _25  and  _26
REMARK    9  A    between atoms: _27  and  _29
REMARK   10  A    between atoms: _29  and  _31
REMARK   11  A    between atoms: _31  and  _33
REMARK                            x       y       z     vdW  Elec       q    Type
REMARK                         _______ _______ _______ _____ _____    ______ ____
ROOT
ATOM      1  C   UNL     1      28.689  14.969   0.114  0.00  0.00    +0.152 C 
ENDROOT
BRANCH   1   3
ATOM      2  C   UNL     1      27.821  17.477  -0.522  0.00  0.00    +0.400 C 
ATOM      3  N   UNL     1      28.291  16.374   0.152  0.00  0.00    -0.278 N 
ATOM      4  H   UNL     1      28.394  16.724   1.157  0.00  0.00    +0.152 HD
ATOM      5  O   UNL     1      27.476  18.455   0.137  0.00  0.00    -0.226 OA
BRANCH   2   6
ATOM      6  O   UNL     1      27.818  17.386  -1.811  0.00  0.00    -0.450 OA
BRANCH   6   7
ATOM      7  C   UNL     1      26.948  17.609  -2.896  0.00  0.00    +0.240 C 
BRANCH   7   8
ATOM      8  C   UNL     1      26.645  16.416  -3.822  0.00  0.00    +0.100 C 
BRANCH   8  10
ATOM      9  N   UNL     1      26.453  14.277  -2.593  0.00  0.00    -0.134 NA
ATOM     10  C   UNL     1      25.860  15.395  -3.102  0.00  0.00    +0.086 A 
ATOM     11  C   UNL     1      24.515  15.362  -2.815  0.00  0.00    +0.139 A 
ATOM     12  N   UNL     1      24.332  14.202  -2.096  0.00  0.00    -0.220 N 
ATOM     13  N   UNL     1      25.519  13.554  -1.989  0.00  0.00    -0.061 NA
BRANCH  12  14
ATOM     14  C   UNL     1      23.143  13.698  -1.508  0.00  0.00    +0.067 A 
ATOM     15  C   UNL     1      21.906  14.314  -1.746  0.00  0.00    +0.028 A 
ATOM     16  C   UNL     1      20.751  13.821  -1.133  0.00  0.00    +0.002 A 
ATOM     17  C   UNL     1      20.821  12.716  -0.288  0.00  0.00    +0.000 A 
ATOM     18  C   UNL     1      22.047  12.094  -0.055  0.00  0.00    +0.002 A 
ATOM     19  C   UNL     1      23.207  12.580  -0.663  0.00  0.00    +0.028 A 
ENDBRANCH  12  14
ENDBRANCH   8  10
ENDBRANCH   7   8
ENDBRANCH   6   7
ENDBRANCH   2   6
ENDBRANCH   1   3
BRANCH   1  20
ATOM     20  C   UNL     1      30.009  14.656  -0.620  0.00  0.00    +0.193 C 
ATOM     21  O   UNL     1      30.840  15.832  -0.499  0.00  0.00    -0.219 OA
BRANCH  20  22
ATOM     22  C   UNL     1      30.881  13.509  -0.066  0.00  0.00    +0.212 C 
ATOM     23  O   UNL     1      30.232  12.243  -0.269  0.00  0.00    -0.218 OA
BRANCH  22  24
ATOM     24  C   UNL     1      32.317  13.448  -0.712  0.00  0.00    +0.171 C 
ATOM     25  O   UNL     1      32.353  12.657  -1.895  0.00  0.00    -0.343 OA
ATOM     26  C   UNL     1      33.526  12.236  -2.527  0.00  0.00    +0.220 C 
ATOM     27  C   UNL     1      34.500  11.573  -1.539  0.00  0.00    +0.076 C 
ATOM     28  C   UNL     1      34.709  12.550  -0.370  0.00  0.00    +0.177 C 
ATOM     29  O   UNL     1      35.636  12.001   0.557  0.00  0.00    -0.221 OA
ATOM     30  C   UNL     1      33.344  12.868   0.316  0.00  0.00    +0.155 C 
BRANCH  30  31
ATOM     31  N   UNL     1      33.539  13.790   1.431  0.00  0.00    -0.202 NA
ATOM     32  C   UNL     1      33.432  13.572   2.767  0.00  0.00    +0.242 C 
ATOM     33  C   UNL     1      33.974  14.616   3.708  0.00  0.00    +0.096 C 
ATOM     34  O   UNL     1      32.903  12.539   3.173  0.00  0.00    -0.273 OA
ENDBRANCH  30  31
BRANCH  26  35
ATOM     35  C   UNL     1      34.252  13.407  -3.387  0.00  0.00    +0.391 C 
ATOM     36  O   UNL     1      35.421  12.870  -3.787  0.00  0.00    -0.243 OA
ATOM     37  O   UNL     1      33.311  14.329  -3.626  0.00  0.00    -0.243 OA
ENDBRANCH  26  35
ENDBRANCH  22  24
ENDBRANCH  20  22
ENDBRANCH   1  20
TORSDOF 11
