REMARK VINA RESULT:    -6.533      2.949      5.567
REMARK INTER + INTRA:         -14.287
REMARK INTER:                 -11.312
REMARK INTRA:                  -2.975
REMARK UNBOUND:                -2.025
REMARK  Name = lig_assembled_10.pdb
REMARK  16 active torsions:
REMARK  status: ('A' for Active; 'I' for Inactive)
REMARK    1  A    between atoms: _2  and  _8
REMARK    2  A    between atoms: _4  and  _8
REMARK    3  A    between atoms: _4  and  _11
REMARK    4  A    between atoms: _5  and  _6
REMARK    5  A    between atoms: _5  and  _15
REMARK    6  A    between atoms: _8  and  _9
REMARK    7  A    between atoms: _9  and  _10
REMARK    8  A    between atoms: _10  and  _13
REMARK    9  A    between atoms: _15  and  _17
REMARK   10  A    between atoms: _16  and  _21
REMARK   11  A    between atoms: _17  and  _20
REMARK   12  A    between atoms: _25  and  _35
REMARK   13  A    between atoms: _27  and  _28
REMARK   14  A    between atoms: _29  and  _31
REMARK   15  A    between atoms: _31  and  _33
REMARK   16  A    between atoms: _33  and  _35
REMARK                            x       y       z     vdW  Elec       q    Type
REMARK                         _______ _______ _______ _____ _____    ______ ____
ROOT
ATOM      1  C   UNL     1      28.191  17.581  -0.508  0.00  0.00    +0.400 C 
ATOM      2  N   UNL     1      29.392  17.177   0.026  0.00  0.00    -0.278 N 
ATOM      3  H   UNL     1      29.366  17.573   1.018  0.00  0.00    +0.152 HD
ATOM      4  O   UNL     1      27.361  18.082   0.245  0.00  0.00    -0.226 OA
ENDROOT
BRANCH   2   5
ATOM      5  C   UNL     1      30.650  16.456  -0.146  0.00  0.00    +0.152 C 
BRANCH   5   6
ATOM      6  C   UNL     1      30.533  14.961  -0.507  0.00  0.00    +0.193 C 
ATOM      7  O   UNL     1      31.880  14.443  -0.574  0.00  0.00    -0.219 OA
BRANCH   6   8
ATOM      8  C   UNL     1      29.815  14.036   0.501  0.00  0.00    +0.212 C 
ATOM      9  O   UNL     1      29.157  14.814   1.515  0.00  0.00    -0.218 OA
BRANCH   8  10
ATOM     10  C   UNL     1      28.753  13.085  -0.172  0.00  0.00    +0.171 C 
ATOM     11  O   UNL     1      28.249  13.606  -1.397  0.00  0.00    -0.343 OA
ATOM     12  C   UNL     1      27.136  13.098  -2.070  0.00  0.00    +0.220 C 
ATOM     13  C   UNL     1      25.922  12.947  -1.136  0.00  0.00    +0.076 C 
ATOM     14  C   UNL     1      26.375  12.123   0.081  0.00  0.00    +0.177 C 
ATOM     15  O   UNL     1      25.278  11.920   0.960  0.00  0.00    -0.221 OA
ATOM     16  C   UNL     1      27.557  12.839   0.805  0.00  0.00    +0.155 C 
BRANCH  16  17
ATOM     17  N   UNL     1      27.985  12.062   1.966  0.00  0.00    -0.202 NA
ATOM     18  C   UNL     1      27.700  12.238   3.281  0.00  0.00    +0.242 C 
ATOM     19  C   UNL     1      28.028  11.123   4.240  0.00  0.00    +0.096 C 
ATOM     20  O   UNL     1      27.185  13.290   3.655  0.00  0.00    -0.273 OA
ENDBRANCH  16  17
BRANCH  12  21
ATOM     21  C   UNL     1      27.441  11.721  -2.878  0.00  0.00    +0.391 C 
ATOM     22  O   UNL     1      26.228  11.215  -3.173  0.00  0.00    -0.243 OA
ATOM     23  O   UNL     1      28.739  11.764  -3.204  0.00  0.00    -0.243 OA
ENDBRANCH  12  21
ENDBRANCH   8  10
ENDBRANCH   6   8
ENDBRANCH   5   6
ENDBRANCH   2   5
BRANCH   1  24
ATOM     24  O   UNL     1      28.062  17.417  -1.784  0.00  0.00    -0.450 OA
BRANCH  24  25
ATOM     25  C   UNL     1      27.103  17.619  -2.796  0.00  0.00    +0.240 C 
BRANCH  25  26
ATOM     26  C   UNL     1      27.102  16.634  -3.981  0.00  0.00    +0.100 C 
BRANCH  26  28
ATOM     27  N   UNL     1      25.454  15.224  -5.176  0.00  0.00    -0.134 NA
ATOM     28  C   UNL     1      25.805  15.938  -4.063  0.00  0.00    +0.086 A 
ATOM     29  C   UNL     1      24.787  15.859  -3.140  0.00  0.00    +0.134 A 
ATOM     30  N   UNL     1      23.864  15.050  -3.727  0.00  0.00    -0.237 N 
ATOM     31  N   UNL     1      24.260  14.690  -4.965  0.00  0.00    -0.065 NA
BRANCH  30  32
ATOM     32  C   UNL     1      22.590  14.547  -3.240  0.00  0.00    +0.227 C 
BRANCH  32  33
ATOM     33  C   UNL     1      21.388  15.361  -3.667  0.00  0.00    +0.330 C 
ATOM     34  O   UNL     1      20.377  15.428  -2.977  0.00  0.00    -0.249 OA
BRANCH  33  35
ATOM     35  O   UNL     1      21.484  16.054  -4.820  0.00  0.00    -0.479 OA
ATOM     36  H   UNL     1      21.996  16.904  -4.789  0.00  0.00    +0.295 HD
ENDBRANCH  33  35
ENDBRANCH  32  33
BRANCH  32  37
ATOM     37  C   UNL     1      22.571  14.223  -1.739  0.00  0.00    +0.158 C 
BRANCH  37  38
ATOM     38  C   UNL     1      22.498  12.745  -1.481  0.00  0.00    +0.307 C 
ATOM     39  O   UNL     1      22.444  11.902  -2.367  0.00  0.00    -0.251 OA
BRANCH  38  40
ATOM     40  O   UNL     1      22.578  12.419  -0.177  0.00  0.00    -0.481 OA
ATOM     41  H   UNL     1      22.756  13.165   0.429  0.00  0.00    +0.295 HD
ENDBRANCH  38  40
ENDBRANCH  37  38
ENDBRANCH  32  37
ENDBRANCH  30  32
ENDBRANCH  26  28
ENDBRANCH  25  26
ENDBRANCH  24  25
ENDBRANCH   1  24
TORSDOF 16
