REMARK VINA RESULT:    -7.361      2.400      5.864
REMARK INTER + INTRA:         -14.978
REMARK INTER:                 -12.658
REMARK INTRA:                  -2.320
REMARK UNBOUND:                -1.807
REMARK  Name = lig_assembled_75.pdb
REMARK  14 active torsions:
REMARK  status: ('A' for Active; 'I' for Inactive)
REMARK    1  A    between atoms: _2  and  _8
REMARK    2  A    between atoms: _5  and  _6
REMARK    3  A    between atoms: _5  and  _18
REMARK    4  A    between atoms: _10  and  _11
REMARK    5  A    between atoms: _12  and  _13
REMARK    6  A    between atoms: _13  and  _16
REMARK    7  A    between atoms: _18  and  _20
REMARK    8  A    between atoms: _19  and  _24
REMARK    9  A    between atoms: _20  and  _23
REMARK   10  A    between atoms: _28  and  _38
REMARK   11  A    between atoms: _30  and  _31
REMARK   12  A    between atoms: _32  and  _34
REMARK   13  A    between atoms: _34  and  _36
REMARK   14  A    between atoms: _36  and  _38
REMARK                            x       y       z     vdW  Elec       q    Type
REMARK                         _______ _______ _______ _____ _____    ______ ____
ROOT
ATOM      1  C   UNL     1      24.037  10.911   2.323  0.00  0.00    +0.400 C 
ATOM      2  N   UNL     1      25.204  11.451   1.834  0.00  0.00    -0.278 N 
ATOM      3  H   UNL     1      25.939  11.130   2.539  0.00  0.00    +0.152 HD
ATOM      4  O   UNL     1      24.115  10.107   3.249  0.00  0.00    -0.226 OA
ENDROOT
BRANCH   2   5
ATOM      5  C   UNL     1      25.874  12.235   0.800  0.00  0.00    +0.152 C 
BRANCH   5   6
ATOM      6  C   UNL     1      27.405  12.365   0.931  0.00  0.00    +0.193 C 
ATOM      7  O   UNL     1      27.848  13.187  -0.171  0.00  0.00    -0.219 OA
BRANCH   6   8
ATOM      8  C   UNL     1      27.958  13.073   2.187  0.00  0.00    +0.212 C 
ATOM      9  O   UNL     1      26.945  13.158   3.202  0.00  0.00    -0.218 OA
BRANCH   8  10
ATOM     10  C   UNL     1      29.225  12.362   2.799  0.00  0.00    +0.171 C 
ATOM     11  O   UNL     1      28.999  11.880   4.119  0.00  0.00    -0.343 OA
ATOM     12  C   UNL     1      30.006  11.434   4.978  0.00  0.00    +0.220 C 
ATOM     13  C   UNL     1      31.157  12.449   5.084  0.00  0.00    +0.076 C 
ATOM     14  C   UNL     1      31.622  12.771   3.654  0.00  0.00    +0.177 C 
ATOM     15  O   UNL     1      32.715  13.678   3.696  0.00  0.00    -0.221 OA
ATOM     16  C   UNL     1      30.437  13.351   2.821  0.00  0.00    +0.155 C 
BRANCH  16  17
ATOM     17  N   UNL     1      30.876  13.665   1.464  0.00  0.00    -0.202 NA
ATOM     18  C   UNL     1      31.306  14.842   0.942  0.00  0.00    +0.242 C 
ATOM     19  C   UNL     1      31.979  14.823  -0.406  0.00  0.00    +0.096 C 
ATOM     20  O   UNL     1      31.141  15.883   1.574  0.00  0.00    -0.273 OA
ENDBRANCH  16  17
BRANCH  12  21
ATOM     21  C   UNL     1      30.552   9.947   4.618  0.00  0.00    +0.391 C 
ATOM     22  O   UNL     1      31.821   9.923   5.070  0.00  0.00    -0.243 OA
ATOM     23  O   UNL     1      29.472   9.225   4.294  0.00  0.00    -0.243 OA
ENDBRANCH  12  21
ENDBRANCH   8  10
ENDBRANCH   6   8
ENDBRANCH   5   6
ENDBRANCH   2   5
BRANCH   1  24
ATOM     24  O   UNL     1      22.949  11.334   1.768  0.00  0.00    -0.450 OA
BRANCH  24  25
ATOM     25  C   UNL     1      21.962  10.882   0.870  0.00  0.00    +0.240 C 
BRANCH  25  26
ATOM     26  C   UNL     1      21.275  11.935  -0.020  0.00  0.00    +0.100 C 
BRANCH  26  28
ATOM     27  N   UNL     1      22.357  11.459  -2.193  0.00  0.00    -0.134 NA
ATOM     28  C   UNL     1      22.154  12.308  -1.144  0.00  0.00    +0.086 A 
ATOM     29  C   UNL     1      22.878  13.459  -1.350  0.00  0.00    +0.139 A 
ATOM     30  N   UNL     1      23.517  13.267  -2.554  0.00  0.00    -0.220 N 
ATOM     31  N   UNL     1      23.187  12.047  -3.044  0.00  0.00    -0.061 NA
BRANCH  30  32
ATOM     32  C   UNL     1      24.417  14.129  -3.232  0.00  0.00    +0.068 A 
ATOM     33  C   UNL     1      25.272  14.958  -2.484  0.00  0.00    +0.035 A 
ATOM     34  C   UNL     1      26.127  15.869  -3.121  0.00  0.00    -0.023 A 
ATOM     35  C   UNL     1      26.160  15.895  -4.521  0.00  0.00    +0.008 A 
ATOM     36  C   UNL     1      25.328  15.058  -5.269  0.00  0.00    +0.003 A 
ATOM     37  C   UNL     1      24.451  14.182  -4.630  0.00  0.00    +0.028 A 
BRANCH  34  38
ATOM     38  C   UNL     1      27.002  16.785  -2.375  0.00  0.00    +0.015 C 
ATOM     39  C   UNL     1      27.819  16.393  -1.384  0.00  0.00    +0.092 C 
BRANCH  39  40
ATOM     40  C   UNL     1      28.622  17.398  -0.659  0.00  0.00    +0.330 C 
ATOM     41  O   UNL     1      29.800  17.628  -0.868  0.00  0.00    -0.246 OA
BRANCH  40  42
ATOM     42  O   UNL     1      27.893  18.053   0.266  0.00  0.00    -0.478 OA
ATOM     43  H   UNL     1      27.936  19.026   0.228  0.00  0.00    +0.295 HD
ENDBRANCH  40  42
ENDBRANCH  39  40
ENDBRANCH  34  38
ENDBRANCH  30  32
ENDBRANCH  26  28
ENDBRANCH  25  26
ENDBRANCH  24  25
ENDBRANCH   1  24
TORSDOF 14
