REMARK VINA RESULT:    -7.326      2.093      4.008
REMARK INTER + INTRA:         -13.661
REMARK INTER:                 -11.931
REMARK INTRA:                  -1.730
REMARK UNBOUND:                -1.624
REMARK  Name = lig_assembled_3.pdb
REMARK  11 active torsions:
REMARK  status: ('A' for Active; 'I' for Inactive)
REMARK    1  A    between atoms: _2  and  _8
REMARK    2  A    between atoms: _5  and  _6
REMARK    3  A    between atoms: _5  and  _13
REMARK    4  A    between atoms: _13  and  _15
REMARK    5  A    between atoms: _14  and  _19
REMARK    6  A    between atoms: _15  and  _18
REMARK    7  A    between atoms: _23  and  _33
REMARK    8  A    between atoms: _25  and  _26
REMARK    9  A    between atoms: _27  and  _29
REMARK   10  A    between atoms: _29  and  _31
REMARK   11  A    between atoms: _31  and  _33
REMARK                            x       y       z     vdW  Elec       q    Type
REMARK                         _______ _______ _______ _____ _____    ______ ____
ROOT
ATOM      1  C   UNL     1      30.682  16.563   0.024  0.00  0.00    +0.152 C 
ENDROOT
BRANCH   1   3
ATOM      2  C   UNL     1      28.259  17.644  -0.612  0.00  0.00    +0.400 C 
ATOM      3  N   UNL     1      29.464  17.368  -0.010  0.00  0.00    -0.278 N 
ATOM      4  H   UNL     1      29.498  18.061   0.803  0.00  0.00    +0.152 HD
ATOM      5  O   UNL     1      27.484  18.404  -0.037  0.00  0.00    -0.226 OA
BRANCH   2   6
ATOM      6  O   UNL     1      28.068  17.088  -1.764  0.00  0.00    -0.450 OA
BRANCH   6   7
ATOM      7  C   UNL     1      27.140  17.117  -2.823  0.00  0.00    +0.240 C 
BRANCH   7   8
ATOM      8  C   UNL     1      26.840  15.787  -3.541  0.00  0.00    +0.100 C 
BRANCH   8  10
ATOM      9  N   UNL     1      24.413  15.507  -3.929  0.00  0.00    -0.134 NA
ATOM     10  C   UNL     1      25.510  15.283  -3.149  0.00  0.00    +0.086 A 
ATOM     11  C   UNL     1      25.136  14.554  -2.044  0.00  0.00    +0.139 A 
ATOM     12  N   UNL     1      23.788  14.329  -2.205  0.00  0.00    -0.220 N 
ATOM     13  N   UNL     1      23.370  14.930  -3.347  0.00  0.00    -0.061 NA
BRANCH  12  14
ATOM     14  C   UNL     1      22.906  13.586  -1.378  0.00  0.00    +0.067 A 
ATOM     15  C   UNL     1      23.381  12.534  -0.582  0.00  0.00    +0.028 A 
ATOM     16  C   UNL     1      22.491  11.795   0.203  0.00  0.00    +0.002 A 
ATOM     17  C   UNL     1      21.132  12.102   0.201  0.00  0.00    +0.000 A 
ATOM     18  C   UNL     1      20.655  13.152  -0.581  0.00  0.00    +0.002 A 
ATOM     19  C   UNL     1      21.537  13.897  -1.369  0.00  0.00    +0.028 A 
ENDBRANCH  12  14
ENDBRANCH   8  10
ENDBRANCH   7   8
ENDBRANCH   6   7
ENDBRANCH   2   6
ENDBRANCH   1   3
BRANCH   1  20
ATOM     20  C   UNL     1      30.487  15.033   0.007  0.00  0.00    +0.193 C 
ATOM     21  O   UNL     1      31.330  14.519  -1.047  0.00  0.00    -0.219 OA
BRANCH  20  22
ATOM     22  C   UNL     1      30.916  14.244   1.263  0.00  0.00    +0.212 C 
ATOM     23  O   UNL     1      31.212  15.142   2.345  0.00  0.00    -0.218 OA
BRANCH  22  24
ATOM     24  C   UNL     1      29.832  13.209   1.751  0.00  0.00    +0.171 C 
ATOM     25  O   UNL     1      28.537  13.788   1.872  0.00  0.00    -0.343 OA
ATOM     26  C   UNL     1      27.455  13.174   2.507  0.00  0.00    +0.220 C 
ATOM     27  C   UNL     1      27.830  12.667   3.910  0.00  0.00    +0.076 C 
ATOM     28  C   UNL     1      29.081  11.784   3.764  0.00  0.00    +0.177 C 
ATOM     29  O   UNL     1      29.448  11.255   5.030  0.00  0.00    -0.221 OA
ATOM     30  C   UNL     1      30.247  12.606   3.133  0.00  0.00    +0.155 C 
BRANCH  30  31
ATOM     31  N   UNL     1      31.440  11.772   2.998  0.00  0.00    -0.202 NA
ATOM     32  C   UNL     1      32.661  11.905   3.576  0.00  0.00    +0.242 C 
ATOM     33  C   UNL     1      33.618  10.745   3.499  0.00  0.00    +0.096 C 
ATOM     34  O   UNL     1      32.953  12.955   4.143  0.00  0.00    -0.273 OA
ENDBRANCH  30  31
BRANCH  26  35
ATOM     35  C   UNL     1      26.759  12.007   1.617  0.00  0.00    +0.391 C 
ATOM     36  O   UNL     1      25.944  11.357   2.471  0.00  0.00    -0.243 OA
ATOM     37  O   UNL     1      27.016  12.314   0.339  0.00  0.00    -0.243 OA
ENDBRANCH  26  35
ENDBRANCH  22  24
ENDBRANCH  20  22
ENDBRANCH   1  20
TORSDOF 11
