REMARK VINA RESULT:    -6.721      3.084     10.181
REMARK INTER + INTRA:         -12.863
REMARK INTER:                 -11.436
REMARK INTRA:                  -1.427
REMARK UNBOUND:                -1.427
REMARK  Name = lig_assembled_6.pdb
REMARK  12 active torsions:
REMARK  status: ('A' for Active; 'I' for Inactive)
REMARK    1  A    between atoms: _2  and  _9
REMARK    2  A    between atoms: _3  and  _12
REMARK    3  A    between atoms: _6  and  _7
REMARK    4  A    between atoms: _6  and  _16
REMARK    5  A    between atoms: _16  and  _18
REMARK    6  A    between atoms: _17  and  _22
REMARK    7  A    between atoms: _18  and  _21
REMARK    8  A    between atoms: _26  and  _36
REMARK    9  A    between atoms: _28  and  _29
REMARK   10  A    between atoms: _30  and  _32
REMARK   11  A    between atoms: _32  and  _34
REMARK   12  A    between atoms: _34  and  _36
REMARK                            x       y       z     vdW  Elec       q    Type
REMARK                         _______ _______ _______ _____ _____    ______ ____
ROOT
ATOM      1  C   UNL     1      27.944  17.714  -1.037  0.00  0.00    +0.400 C 
ATOM      2  N   UNL     1      27.177  17.441  -2.145  0.00  0.00    -0.278 N 
ATOM      3  H   UNL     1      26.183  17.654  -1.817  0.00  0.00    +0.152 HD
ATOM      4  O   UNL     1      27.404  18.265  -0.081  0.00  0.00    -0.226 OA
ENDROOT
BRANCH   2   5
ATOM      5  C   UNL     1      27.116  17.015  -3.541  0.00  0.00    +0.152 C 
BRANCH   5   6
ATOM      6  C   UNL     1      25.920  16.121  -3.927  0.00  0.00    +0.193 C 
ATOM      7  O   UNL     1      26.014  15.893  -5.350  0.00  0.00    -0.219 OA
BRANCH   6   8
ATOM      8  C   UNL     1      25.858  14.705  -3.312  0.00  0.00    +0.212 C 
ATOM      9  O   UNL     1      26.493  14.689  -2.024  0.00  0.00    -0.218 OA
BRANCH   8  10
ATOM     10  C   UNL     1      24.388  14.156  -3.156  0.00  0.00    +0.171 C 
ATOM     11  O   UNL     1      23.697  14.744  -2.059  0.00  0.00    -0.343 OA
ATOM     12  C   UNL     1      22.486  14.274  -1.548  0.00  0.00    +0.220 C 
ATOM     13  C   UNL     1      22.535  12.763  -1.263  0.00  0.00    +0.076 C 
ATOM     14  C   UNL     1      23.009  12.065  -2.548  0.00  0.00    +0.177 C 
ATOM     15  O   UNL     1      23.034  10.658  -2.351  0.00  0.00    -0.221 OA
ATOM     16  C   UNL     1      24.413  12.604  -2.966  0.00  0.00    +0.155 C 
BRANCH  16  17
ATOM     17  N   UNL     1      24.870  11.938  -4.183  0.00  0.00    -0.202 NA
ATOM     18  C   UNL     1      26.014  11.246  -4.416  0.00  0.00    +0.242 C 
ATOM     19  C   UNL     1      26.103  10.411  -5.667  0.00  0.00    +0.096 C 
ATOM     20  O   UNL     1      26.940  11.313  -3.610  0.00  0.00    -0.273 OA
ENDBRANCH  16  17
BRANCH  12  21
ATOM     21  C   UNL     1      21.201  14.668  -2.461  0.00  0.00    +0.391 C 
ATOM     22  O   UNL     1      20.190  13.918  -1.980  0.00  0.00    -0.243 OA
ATOM     23  O   UNL     1      21.546  15.778  -3.125  0.00  0.00    -0.243 OA
ENDBRANCH  12  21
ENDBRANCH   8  10
ENDBRANCH   6   8
ENDBRANCH   5   6
ENDBRANCH   2   5
BRANCH   1  24
ATOM     24  O   UNL     1      29.176  17.327  -1.099  0.00  0.00    -0.450 OA
BRANCH  24  25
ATOM     25  C   UNL     1      30.161  16.762  -0.266  0.00  0.00    +0.240 C 
BRANCH  25  26
ATOM     26  C   UNL     1      30.200  15.226  -0.152  0.00  0.00    +0.100 C 
BRANCH  26  28
ATOM     27  N   UNL     1      30.982  14.974   2.184  0.00  0.00    -0.134 NA
ATOM     28  C   UNL     1      31.203  14.811   0.846  0.00  0.00    +0.086 A 
ATOM     29  C   UNL     1      32.434  14.226   0.663  0.00  0.00    +0.139 A 
ATOM     30  N   UNL     1      32.921  14.017   1.933  0.00  0.00    -0.220 N 
ATOM     31  N   UNL     1      32.033  14.497   2.836  0.00  0.00    -0.061 NA
BRANCH  30  32
ATOM     32  C   UNL     1      34.124  13.374   2.328  0.00  0.00    +0.067 A 
ATOM     33  C   UNL     1      34.335  13.011   3.668  0.00  0.00    +0.034 A 
ATOM     34  C   UNL     1      35.549  12.434   4.057  0.00  0.00    +0.086 A 
ATOM     35  C   UNL     1      36.553  12.216   3.105  0.00  0.00    +0.273 A 
ATOM     36  C   UNL     1      36.342  12.550   1.762  0.00  0.00    +0.086 A 
ATOM     37  C   UNL     1      35.127  13.126   1.376  0.00  0.00    +0.034 A 
BRANCH  35  38
ATOM     38  N   UNL     1      37.841  11.650   3.526  0.00  0.00    +0.080 N 
ATOM     39  O   UNL     1      38.862  12.053   2.950  0.00  0.00    +0.041 OA
ATOM     40  O   UNL     1      37.831  10.801   4.427  0.00  0.00    -0.576 OA
ENDBRANCH  35  38
ENDBRANCH  30  32
ENDBRANCH  26  28
ENDBRANCH  25  26
ENDBRANCH  24  25
ENDBRANCH   1  24
TORSDOF 12
