REMARK VINA RESULT:    -5.331      3.885      9.628
REMARK INTER + INTRA:         -12.261
REMARK INTER:                  -9.583
REMARK INTRA:                  -2.678
REMARK UNBOUND:                -3.035
REMARK  Name = lig_assembled_22.pdb
REMARK  15 active torsions:
REMARK  status: ('A' for Active; 'I' for Inactive)
REMARK    1  A    between atoms: _2  and  _8
REMARK    2  A    between atoms: _4  and  _8
REMARK    3  A    between atoms: _4  and  _11
REMARK    4  A    between atoms: _5  and  _6
REMARK    5  A    between atoms: _5  and  _13
REMARK    6  A    between atoms: _8  and  _9
REMARK    7  A    between atoms: _8  and  _10
REMARK    8  A    between atoms: _13  and  _15
REMARK    9  A    between atoms: _14  and  _19
REMARK   10  A    between atoms: _15  and  _18
REMARK   11  A    between atoms: _23  and  _33
REMARK   12  A    between atoms: _25  and  _26
REMARK   13  A    between atoms: _27  and  _29
REMARK   14  A    between atoms: _29  and  _31
REMARK   15  A    between atoms: _31  and  _33
REMARK                            x       y       z     vdW  Elec       q    Type
REMARK                         _______ _______ _______ _____ _____    ______ ____
ROOT
ATOM      1  C   UNL     1      32.722  13.036  -3.585  0.00  0.00    +0.400 C 
ATOM      2  N   UNL     1      32.038  13.382  -2.444  0.00  0.00    -0.278 N 
ATOM      3  H   UNL     1      31.409  14.184  -2.766  0.00  0.00    +0.152 HD
ATOM      4  O   UNL     1      32.363  13.534  -4.649  0.00  0.00    -0.226 OA
ENDROOT
BRANCH   1   5
ATOM      5  O   UNL     1      33.716  12.226  -3.418  0.00  0.00    -0.450 OA
BRANCH   5   6
ATOM      6  C   UNL     1      35.124  12.247  -3.433  0.00  0.00    +0.240 C 
BRANCH   6   7
ATOM      7  C   UNL     1      35.858  11.598  -2.244  0.00  0.00    +0.100 C 
BRANCH   7   9
ATOM      8  N   UNL     1      35.441  13.589  -0.843  0.00  0.00    -0.134 NA
ATOM      9  C   UNL     1      35.437  12.229  -0.979  0.00  0.00    +0.086 A 
ATOM     10  C   UNL     1      35.003  11.662   0.200  0.00  0.00    +0.135 A 
ATOM     11  N   UNL     1      34.757  12.729   1.017  0.00  0.00    -0.235 N 
ATOM     12  N   UNL     1      35.027  13.884   0.379  0.00  0.00    -0.064 NA
BRANCH  11  13
ATOM     13  C   UNL     1      34.291  12.750   2.405  0.00  0.00    +0.155 C 
ATOM     14  C   UNL     1      35.338  12.169   3.379  0.00  0.00    +0.048 C 
ATOM     15  C   UNL     1      33.008  11.903   2.507  0.00  0.00    +0.048 C 
BRANCH  13  16
ATOM     16  C   UNL     1      33.995  14.186   2.845  0.00  0.00    +0.332 C 
ATOM     17  O   UNL     1      32.874  14.613   3.092  0.00  0.00    -0.248 OA
BRANCH  16  18
ATOM     18  O   UNL     1      35.079  14.993   2.955  0.00  0.00    -0.479 OA
ATOM     19  H   UNL     1      35.149  15.718   2.303  0.00  0.00    +0.295 HD
ENDBRANCH  16  18
ENDBRANCH  13  16
ENDBRANCH  11  13
ENDBRANCH   7   9
ENDBRANCH   6   7
ENDBRANCH   5   6
ENDBRANCH   1   5
BRANCH   2  20
ATOM     20  C   UNL     1      31.781  13.142  -1.026  0.00  0.00    +0.152 C 
BRANCH  20  21
ATOM     21  C   UNL     1      31.522  14.393  -0.161  0.00  0.00    +0.193 C 
ATOM     22  O   UNL     1      32.162  15.501  -0.832  0.00  0.00    -0.219 OA
BRANCH  21  23
ATOM     23  C   UNL     1      30.057  14.846   0.021  0.00  0.00    +0.212 C 
ATOM     24  O   UNL     1      29.880  16.183  -0.474  0.00  0.00    -0.218 OA
BRANCH  23  25
ATOM     25  C   UNL     1      29.018  13.902  -0.695  0.00  0.00    +0.171 C 
ATOM     26  O   UNL     1      28.441  14.499  -1.852  0.00  0.00    -0.343 OA
ATOM     27  C   UNL     1      27.329  13.994  -2.529  0.00  0.00    +0.220 C 
ATOM     28  C   UNL     1      26.162  13.701  -1.571  0.00  0.00    +0.076 C 
ATOM     29  C   UNL     1      26.700  12.800  -0.447  0.00  0.00    +0.177 C 
ATOM     30  O   UNL     1      25.649  12.466   0.448  0.00  0.00    -0.221 OA
ATOM     31  C   UNL     1      27.873  13.511   0.297  0.00  0.00    +0.155 C 
BRANCH  31  32
ATOM     32  N   UNL     1      28.383  12.661   1.369  0.00  0.00    -0.202 NA
ATOM     33  C   UNL     1      28.293  12.814   2.715  0.00  0.00    +0.242 C 
ATOM     34  C   UNL     1      28.647  11.643   3.594  0.00  0.00    +0.096 C 
ATOM     35  O   UNL     1      27.927  13.892   3.181  0.00  0.00    -0.273 OA
ENDBRANCH  31  32
BRANCH  27  36
ATOM     36  C   UNL     1      27.670  12.710  -3.464  0.00  0.00    +0.391 C 
ATOM     37  O   UNL     1      28.982  12.476  -3.269  0.00  0.00    -0.243 OA
ATOM     38  O   UNL     1      26.489  12.194  -3.828  0.00  0.00    -0.243 OA
ENDBRANCH  27  36
ENDBRANCH  23  25
ENDBRANCH  21  23
ENDBRANCH  20  21
ENDBRANCH   2  20
TORSDOF 13
