REMARK VINA RESULT:    -6.273      3.383      8.023
REMARK INTER + INTRA:         -13.270
REMARK INTER:                 -10.673
REMARK INTRA:                  -2.596
REMARK UNBOUND:                -2.596
REMARK  Name = lig_assembled_4.pdb
REMARK  14 active torsions:
REMARK  status: ('A' for Active; 'I' for Inactive)
REMARK    1  A    between atoms: _2  and  _8
REMARK    2  A    between atoms: _5  and  _6
REMARK    3  A    between atoms: _5  and  _16
REMARK    4  A    between atoms: _9  and  _10
REMARK    5  A    between atoms: _10  and  _11
REMARK    6  A    between atoms: _10  and  _12
REMARK    7  A    between atoms: _16  and  _18
REMARK    8  A    between atoms: _17  and  _22
REMARK    9  A    between atoms: _18  and  _21
REMARK   10  A    between atoms: _26  and  _36
REMARK   11  A    between atoms: _28  and  _29
REMARK   12  A    between atoms: _30  and  _32
REMARK   13  A    between atoms: _32  and  _34
REMARK   14  A    between atoms: _34  and  _36
REMARK                            x       y       z     vdW  Elec       q    Type
REMARK                         _______ _______ _______ _____ _____    ______ ____
ROOT
ATOM      1  C   UNL     1      28.628  17.149  -0.599  0.00  0.00    +0.400 C 
ATOM      2  N   UNL     1      27.558  16.605  -1.269  0.00  0.00    -0.278 N 
ATOM      3  H   UNL     1      26.714  17.069  -0.806  0.00  0.00    +0.152 HD
ATOM      4  O   UNL     1      28.417  18.088   0.166  0.00  0.00    -0.226 OA
ENDROOT
BRANCH   2   5
ATOM      5  C   UNL     1      27.070  15.710  -2.315  0.00  0.00    +0.152 C 
BRANCH   5   6
ATOM      6  C   UNL     1      25.995  16.288  -3.257  0.00  0.00    +0.193 C 
ATOM      7  O   UNL     1      26.553  17.488  -3.838  0.00  0.00    -0.219 OA
BRANCH   6   8
ATOM      8  C   UNL     1      25.574  15.433  -4.472  0.00  0.00    +0.212 C 
ATOM      9  O   UNL     1      26.517  15.585  -5.545  0.00  0.00    -0.218 OA
BRANCH   8  10
ATOM     10  C   UNL     1      25.435  13.898  -4.137  0.00  0.00    +0.171 C 
ATOM     11  O   UNL     1      26.357  13.094  -4.865  0.00  0.00    -0.343 OA
ATOM     12  C   UNL     1      26.294  11.701  -4.947  0.00  0.00    +0.220 C 
ATOM     13  C   UNL     1      24.890  11.216  -5.351  0.00  0.00    +0.076 C 
ATOM     14  C   UNL     1      23.884  11.854  -4.379  0.00  0.00    +0.177 C 
ATOM     15  O   UNL     1      22.570  11.407  -4.684  0.00  0.00    -0.221 OA
ATOM     16  C   UNL     1      23.982  13.410  -4.447  0.00  0.00    +0.155 C 
BRANCH  16  17
ATOM     17  N   UNL     1      23.023  14.020  -3.531  0.00  0.00    -0.202 NA
ATOM     18  C   UNL     1      21.871  14.687  -3.797  0.00  0.00    +0.242 C 
ATOM     19  C   UNL     1      20.920  14.955  -2.660  0.00  0.00    +0.096 C 
ATOM     20  O   UNL     1      21.632  15.051  -4.947  0.00  0.00    -0.273 OA
ENDBRANCH  16  17
BRANCH  12  21
ATOM     21  C   UNL     1      26.822  10.949  -3.608  0.00  0.00    +0.391 C 
ATOM     22  O   UNL     1      26.153   9.780  -3.578  0.00  0.00    -0.243 OA
ATOM     23  O   UNL     1      27.914  11.617  -3.215  0.00  0.00    -0.243 OA
ENDBRANCH  12  21
ENDBRANCH   8  10
ENDBRANCH   6   8
ENDBRANCH   5   6
ENDBRANCH   2   5
BRANCH   1  24
ATOM     24  O   UNL     1      29.772  16.588  -0.820  0.00  0.00    -0.450 OA
BRANCH  24  25
ATOM     25  C   UNL     1      30.919  16.185  -0.109  0.00  0.00    +0.240 C 
BRANCH  25  26
ATOM     26  C   UNL     1      30.708  15.319   1.148  0.00  0.00    +0.100 C 
BRANCH  26  28
ATOM     27  N   UNL     1      30.129  13.193   0.039  0.00  0.00    -0.134 NA
ATOM     28  C   UNL     1      29.776  14.211   0.868  0.00  0.00    +0.086 A 
ATOM     29  C   UNL     1      28.484  14.015   1.300  0.00  0.00    +0.139 A 
ATOM     30  N   UNL     1      28.038  12.915   0.595  0.00  0.00    -0.220 N 
ATOM     31  N   UNL     1      29.075  12.397  -0.099  0.00  0.00    -0.061 NA
BRANCH  30  32
ATOM     32  C   UNL     1      26.711  12.391   0.551  0.00  0.00    +0.070 A 
ATOM     33  C   UNL     1      26.237  11.389   1.442  0.00  0.00    -0.019 A 
ATOM     34  C   UNL     1      24.909  10.938   1.268  0.00  0.00    +0.006 A 
ATOM     35  C   UNL     1      24.083  11.433   0.257  0.00  0.00    +0.000 A 
ATOM     36  C   UNL     1      24.554  12.415  -0.600  0.00  0.00    +0.002 A 
ATOM     37  C   UNL     1      25.857  12.889  -0.458  0.00  0.00    +0.028 A 
BRANCH  33  38
ATOM     38  C   UNL     1      27.072  10.768   2.563  0.00  0.00    +0.015 C 
ATOM     39  C   UNL     1      26.510   9.462   3.146  0.00  0.00    +0.012 C 
ATOM     40  C   UNL     1      27.283  11.788   3.685  0.00  0.00    +0.012 C 
ENDBRANCH  33  38
ENDBRANCH  30  32
ENDBRANCH  26  28
ENDBRANCH  25  26
ENDBRANCH  24  25
ENDBRANCH   1  24
TORSDOF 12
