REMARK VINA RESULT:    -7.410      1.757      2.135
REMARK INTER + INTRA:         -14.367
REMARK INTER:                 -12.876
REMARK INTRA:                  -1.491
REMARK UNBOUND:                -2.191
REMARK  Name = lig_assembled_93.pdb
REMARK  11 active torsions:
REMARK  status: ('A' for Active; 'I' for Inactive)
REMARK    1  A    between atoms: _2  and  _8
REMARK    2  A    between atoms: _5  and  _6
REMARK    3  A    between atoms: _5  and  _13
REMARK    4  A    between atoms: _13  and  _15
REMARK    5  A    between atoms: _14  and  _19
REMARK    6  A    between atoms: _15  and  _18
REMARK    7  A    between atoms: _23  and  _33
REMARK    8  A    between atoms: _25  and  _26
REMARK    9  A    between atoms: _27  and  _29
REMARK   10  A    between atoms: _29  and  _31
REMARK   11  A    between atoms: _31  and  _33
REMARK                            x       y       z     vdW  Elec       q    Type
REMARK                         _______ _______ _______ _____ _____    ______ ____
ROOT
ATOM      1  C   UNL     1      27.987  17.256  -0.853  0.00  0.00    +0.400 C 
ATOM      2  N   UNL     1      28.425  16.199  -0.089  0.00  0.00    -0.278 N 
ATOM      3  H   UNL     1      28.815  16.673   0.786  0.00  0.00    +0.152 HD
ATOM      4  O   UNL     1      27.964  18.371  -0.340  0.00  0.00    -0.226 OA
ENDROOT
BRANCH   1   5
ATOM      5  O   UNL     1      27.664  16.969  -2.072  0.00  0.00    -0.450 OA
BRANCH   5   6
ATOM      6  C   UNL     1      26.773  17.405  -3.071  0.00  0.00    +0.240 C 
BRANCH   6   7
ATOM      7  C   UNL     1      26.477  16.436  -4.232  0.00  0.00    +0.100 C 
BRANCH   7   9
ATOM      8  N   UNL     1      24.721  14.815  -4.847  0.00  0.00    -0.134 NA
ATOM      9  C   UNL     1      25.329  15.574  -3.898  0.00  0.00    +0.086 A 
ATOM     10  C   UNL     1      24.697  15.367  -2.693  0.00  0.00    +0.139 A 
ATOM     11  N   UNL     1      23.699  14.442  -2.950  0.00  0.00    -0.219 N 
ATOM     12  N   UNL     1      23.740  14.142  -4.267  0.00  0.00    -0.061 NA
BRANCH  11  13
ATOM     13  C   UNL     1      22.773  13.862  -2.027  0.00  0.00    +0.080 A 
ATOM     14  C   UNL     1      21.443  14.348  -2.040  0.00  0.00    +0.029 A 
ATOM     15  C   UNL     1      20.471  13.858  -1.163  0.00  0.00    +0.002 A 
ATOM     16  C   UNL     1      20.798  12.870  -0.249  0.00  0.00    +0.001 A 
ATOM     17  C   UNL     1      22.097  12.370  -0.217  0.00  0.00    +0.016 A 
ATOM     18  C   UNL     1      23.091  12.851  -1.095  0.00  0.00    +0.039 A 
ATOM     19  I   UNL     1      24.955  11.891  -0.805  0.00  0.00    -0.042 I 
ENDBRANCH  11  13
ENDBRANCH   7   9
ENDBRANCH   6   7
ENDBRANCH   5   6
ENDBRANCH   1   5
BRANCH   2  20
ATOM     20  C   UNL     1      28.579  14.755   0.066  0.00  0.00    +0.152 C 
BRANCH  20  21
ATOM     21  C   UNL     1      29.982  14.261   0.472  0.00  0.00    +0.193 C 
ATOM     22  O   UNL     1      29.902  12.823   0.576  0.00  0.00    -0.219 OA
BRANCH  21  23
ATOM     23  C   UNL     1      31.143  14.513  -0.515  0.00  0.00    +0.212 C 
ATOM     24  O   UNL     1      31.546  15.891  -0.476  0.00  0.00    -0.218 OA
BRANCH  23  25
ATOM     25  C   UNL     1      32.405  13.610  -0.238  0.00  0.00    +0.171 C 
ATOM     26  O   UNL     1      33.110  14.000   0.936  0.00  0.00    -0.343 OA
ATOM     27  C   UNL     1      34.383  13.539   1.281  0.00  0.00    +0.220 C 
ATOM     28  C   UNL     1      35.377  13.683   0.116  0.00  0.00    +0.076 C 
ATOM     29  C   UNL     1      34.752  13.001  -1.113  0.00  0.00    +0.177 C 
ATOM     30  O   UNL     1      35.651  13.071  -2.211  0.00  0.00    -0.221 OA
ATOM     31  C   UNL     1      33.383  13.665  -1.458  0.00  0.00    +0.155 C 
BRANCH  31  32
ATOM     32  N   UNL     1      32.789  13.025  -2.629  0.00  0.00    -0.202 NA
ATOM     33  C   UNL     1      32.919  13.331  -3.944  0.00  0.00    +0.242 C 
ATOM     34  C   UNL     1      32.437  12.331  -4.963  0.00  0.00    +0.096 C 
ATOM     35  O   UNL     1      33.422  14.405  -4.271  0.00  0.00    -0.273 OA
ENDBRANCH  31  32
BRANCH  27  36
ATOM     36  C   UNL     1      34.383  12.029   1.882  0.00  0.00    +0.391 C 
ATOM     37  O   UNL     1      35.673  11.642   1.849  0.00  0.00    -0.243 OA
ATOM     38  O   UNL     1      33.183  11.858   2.451  0.00  0.00    -0.243 OA
ENDBRANCH  27  36
ENDBRANCH  23  25
ENDBRANCH  21  23
ENDBRANCH  20  21
ENDBRANCH   2  20
TORSDOF 11
