REMARK VINA RESULT:    -6.747      1.773      2.599
REMARK INTER + INTRA:         -13.969
REMARK INTER:                 -12.613
REMARK INTRA:                  -1.356
REMARK UNBOUND:                -2.094
REMARK  Name = lig_assembled_24.pdb
REMARK  14 active torsions:
REMARK  status: ('A' for Active; 'I' for Inactive)
REMARK    1  A    between atoms: _2  and  _8
REMARK    2  A    between atoms: _5  and  _6
REMARK    3  A    between atoms: _5  and  _16
REMARK    4  A    between atoms: _8  and  _9
REMARK    5  A    between atoms: _12  and  _15
REMARK    6  A    between atoms: _13  and  _15
REMARK    7  A    between atoms: _16  and  _18
REMARK    8  A    between atoms: _17  and  _22
REMARK    9  A    between atoms: _18  and  _21
REMARK   10  A    between atoms: _26  and  _36
REMARK   11  A    between atoms: _28  and  _29
REMARK   12  A    between atoms: _30  and  _32
REMARK   13  A    between atoms: _32  and  _34
REMARK   14  A    between atoms: _34  and  _36
REMARK                            x       y       z     vdW  Elec       q    Type
REMARK                         _______ _______ _______ _____ _____    ______ ____
ROOT
ATOM      1  C   UNL     1      28.126  17.045  -0.662  0.00  0.00    +0.400 C 
ATOM      2  N   UNL     1      28.589  15.980   0.074  0.00  0.00    -0.278 N 
ATOM      3  H   UNL     1      29.088  16.447   0.897  0.00  0.00    +0.152 HD
ATOM      4  O   UNL     1      28.207  18.168  -0.171  0.00  0.00    -0.226 OA
ENDROOT
BRANCH   1   5
ATOM      5  O   UNL     1      27.670  16.757  -1.837  0.00  0.00    -0.450 OA
BRANCH   5   6
ATOM      6  C   UNL     1      27.102  17.406  -2.951  0.00  0.00    +0.240 C 
BRANCH   6   7
ATOM      7  C   UNL     1      26.526  16.520  -4.072  0.00  0.00    +0.100 C 
BRANCH   7   9
ATOM      8  N   UNL     1      25.753  14.197  -3.703  0.00  0.00    -0.134 NA
ATOM      9  C   UNL     1      25.574  15.541  -3.514  0.00  0.00    +0.086 A 
ATOM     10  C   UNL     1      24.444  15.742  -2.754  0.00  0.00    +0.134 A 
ATOM     11  N   UNL     1      24.017  14.482  -2.450  0.00  0.00    -0.247 N 
ATOM     12  N   UNL     1      24.790  13.558  -3.057  0.00  0.00    -0.065 NA
BRANCH  11  13
ATOM     13  C   UNL     1      22.950  14.026  -1.574  0.00  0.00    +0.180 C 
BRANCH  13  14
ATOM     14  C   UNL     1      21.555  14.268  -2.099  0.00  0.00    -0.026 A 
ATOM     15  C   UNL     1      20.442  13.733  -1.436  0.00  0.00    +0.009 A 
ATOM     16  C   UNL     1      19.155  13.963  -1.927  0.00  0.00    +0.046 A 
ATOM     17  C   UNL     1      18.956  14.740  -3.069  0.00  0.00    +0.120 A 
ATOM     18  C   UNL     1      20.058  15.254  -3.747  0.00  0.00    +0.046 A 
ATOM     19  C   UNL     1      21.352  15.022  -3.265  0.00  0.00    +0.009 A 
BRANCH  17  20
ATOM     20  O   UNL     1      17.655  14.879  -3.465  0.00  0.00    -0.495 OA
ATOM     21  C   UNL     1      16.904  13.670  -3.533  0.00  0.00    +0.277 C 
ENDBRANCH  17  20
ENDBRANCH  13  14
ENDBRANCH  11  13
ENDBRANCH   7   9
ENDBRANCH   6   7
ENDBRANCH   5   6
ENDBRANCH   1   5
BRANCH   2  22
ATOM     22  C   UNL     1      28.691  14.533   0.240  0.00  0.00    +0.152 C 
BRANCH  22  23
ATOM     23  C   UNL     1      29.802  14.034   1.187  0.00  0.00    +0.193 C 
ATOM     24  O   UNL     1      30.053  12.654   0.841  0.00  0.00    -0.219 OA
BRANCH  23  25
ATOM     25  C   UNL     1      31.185  14.714   1.086  0.00  0.00    +0.212 C 
ATOM     26  O   UNL     1      31.160  15.999   1.727  0.00  0.00    -0.218 OA
BRANCH  25  27
ATOM     27  C   UNL     1      32.349  13.858   1.718  0.00  0.00    +0.171 C 
ATOM     28  O   UNL     1      32.765  14.352   2.987  0.00  0.00    -0.343 OA
ATOM     29  C   UNL     1      33.923  13.942   3.652  0.00  0.00    +0.220 C 
ATOM     30  C   UNL     1      35.160  14.011   2.738  0.00  0.00    +0.076 C 
ATOM     31  C   UNL     1      34.834  13.223   1.458  0.00  0.00    +0.177 C 
ATOM     32  O   UNL     1      35.961  13.221   0.594  0.00  0.00    -0.221 OA
ATOM     33  C   UNL     1      33.581  13.833   0.756  0.00  0.00    +0.155 C 
BRANCH  33  34
ATOM     34  N   UNL     1      33.273  13.092  -0.464  0.00  0.00    -0.202 NA
ATOM     35  C   UNL     1      33.159  13.533  -1.743  0.00  0.00    +0.242 C 
ATOM     36  C   UNL     1      33.125  12.514  -2.851  0.00  0.00    +0.096 C 
ATOM     37  O   UNL     1      33.088  14.741  -1.964  0.00  0.00    -0.273 OA
ENDBRANCH  33  34
BRANCH  29  38
ATOM     38  C   UNL     1      33.783  12.485   4.357  0.00  0.00    +0.391 C 
ATOM     39  O   UNL     1      35.035  12.159   4.733  0.00  0.00    -0.243 OA
ATOM     40  O   UNL     1      32.474  12.301   4.568  0.00  0.00    -0.243 OA
ENDBRANCH  29  38
ENDBRANCH  25  27
ENDBRANCH  23  25
ENDBRANCH  22  23
ENDBRANCH   2  22
TORSDOF 13
