REMARK VINA RESULT:    -7.270      2.102      3.248
REMARK INTER + INTRA:         -14.079
REMARK INTER:                 -11.665
REMARK INTRA:                  -2.414
REMARK UNBOUND:                -2.133
REMARK  Name = lig_assembled_7.pdb
REMARK  14 active torsions:
REMARK  status: ('A' for Active; 'I' for Inactive)
REMARK    1  A    between atoms: _2  and  _8
REMARK    2  A    between atoms: _4  and  _15
REMARK    3  A    between atoms: _5  and  _6
REMARK    4  A    between atoms: _5  and  _16
REMARK    5  A    between atoms: _9  and  _10
REMARK    6  A    between atoms: _12  and  _13
REMARK    7  A    between atoms: _16  and  _18
REMARK    8  A    between atoms: _17  and  _22
REMARK    9  A    between atoms: _18  and  _21
REMARK   10  A    between atoms: _26  and  _36
REMARK   11  A    between atoms: _28  and  _29
REMARK   12  A    between atoms: _30  and  _32
REMARK   13  A    between atoms: _32  and  _34
REMARK   14  A    between atoms: _34  and  _36
REMARK                            x       y       z     vdW  Elec       q    Type
REMARK                         _______ _______ _______ _____ _____    ______ ____
ROOT
ATOM      1  C   UNL     1      27.826  17.630  -1.055  0.00  0.00    +0.400 C 
ATOM      2  N   UNL     1      28.510  16.713  -0.291  0.00  0.00    -0.278 N 
ATOM      3  H   UNL     1      28.672  17.231   0.630  0.00  0.00    +0.152 HD
ATOM      4  O   UNL     1      27.426  18.655  -0.509  0.00  0.00    -0.226 OA
ENDROOT
BRANCH   1   5
ATOM      5  O   UNL     1      27.697  17.331  -2.306  0.00  0.00    -0.450 OA
BRANCH   5   6
ATOM      6  C   UNL     1      26.730  17.408  -3.328  0.00  0.00    +0.240 C 
BRANCH   6   7
ATOM      7  C   UNL     1      26.638  16.224  -4.309  0.00  0.00    +0.100 C 
BRANCH   7   9
ATOM      8  N   UNL     1      26.121  13.816  -4.194  0.00  0.00    -0.134 NA
ATOM      9  C   UNL     1      26.028  15.057  -3.646  0.00  0.00    +0.086 A 
ATOM     10  C   UNL     1      25.320  14.969  -2.462  0.00  0.00    +0.139 A 
ATOM     11  N   UNL     1      24.955  13.643  -2.352  0.00  0.00    -0.219 N 
ATOM     12  N   UNL     1      25.498  12.965  -3.395  0.00  0.00    -0.061 NA
BRANCH  11  13
ATOM     13  C   UNL     1      24.162  12.993  -1.351  0.00  0.00    +0.073 A 
ATOM     14  C   UNL     1      24.810  12.346  -0.257  0.00  0.00    -0.024 A 
ATOM     15  C   UNL     1      24.037  11.705   0.736  0.00  0.00    +0.008 A 
ATOM     16  C   UNL     1      22.646  11.694   0.680  0.00  0.00    -0.050 A 
ATOM     17  C   UNL     1      21.854  11.005   1.752  0.00  0.00    +0.044 C 
ATOM     18  C   UNL     1      22.018  12.329  -0.388  0.00  0.00    +0.008 A 
ATOM     19  C   UNL     1      26.307  12.330  -0.033  0.00  0.00    +0.046 C 
ATOM     20  C   UNL     1      22.745  12.964  -1.422  0.00  0.00    -0.024 A 
ATOM     21  C   UNL     1      21.879  13.477  -2.545  0.00  0.00    +0.046 C 
ENDBRANCH  11  13
ENDBRANCH   7   9
ENDBRANCH   6   7
ENDBRANCH   5   6
ENDBRANCH   1   5
BRANCH   2  22
ATOM     22  C   UNL     1      29.087  15.377  -0.172  0.00  0.00    +0.152 C 
BRANCH  22  23
ATOM     23  C   UNL     1      30.596  15.314   0.139  0.00  0.00    +0.193 C 
ATOM     24  O   UNL     1      30.956  16.591   0.711  0.00  0.00    -0.219 OA
BRANCH  23  25
ATOM     25  C   UNL     1      31.068  14.277   1.183  0.00  0.00    +0.212 C 
ATOM     26  O   UNL     1      31.499  14.936   2.385  0.00  0.00    -0.218 OA
BRANCH  25  27
ATOM     27  C   UNL     1      29.962  13.219   1.557  0.00  0.00    +0.171 C 
ATOM     28  O   UNL     1      29.815  13.053   2.963  0.00  0.00    -0.343 OA
ATOM     29  C   UNL     1      29.092  12.020   3.564  0.00  0.00    +0.220 C 
ATOM     30  C   UNL     1      29.497  10.643   3.010  0.00  0.00    +0.076 C 
ATOM     31  C   UNL     1      29.381  10.709   1.478  0.00  0.00    +0.177 C 
ATOM     32  O   UNL     1      29.707   9.445   0.916  0.00  0.00    -0.221 OA
ATOM     33  C   UNL     1      30.305  11.834   0.917  0.00  0.00    +0.155 C 
BRANCH  33  34
ATOM     34  N   UNL     1      30.203  11.895  -0.539  0.00  0.00    -0.202 NA
ATOM     35  C   UNL     1      31.172  11.775  -1.482  0.00  0.00    +0.242 C 
ATOM     36  C   UNL     1      30.754  11.581  -2.916  0.00  0.00    +0.096 C 
ATOM     37  O   UNL     1      32.354  11.825  -1.149  0.00  0.00    -0.273 OA
ENDBRANCH  33  34
BRANCH  29  38
ATOM     38  C   UNL     1      27.483  12.238   3.505  0.00  0.00    +0.391 C 
ATOM     39  O   UNL     1      26.961  11.000   3.605  0.00  0.00    -0.243 OA
ATOM     40  O   UNL     1      27.280  13.549   3.683  0.00  0.00    -0.243 OA
ENDBRANCH  29  38
ENDBRANCH  25  27
ENDBRANCH  23  25
ENDBRANCH  22  23
ENDBRANCH   2  22
TORSDOF 11
