REMARK VINA RESULT:    -7.880      1.836      2.648
REMARK INTER + INTRA:         -15.348
REMARK INTER:                 -13.128
REMARK INTRA:                  -2.221
REMARK UNBOUND:                -1.480
REMARK  Name = lig_assembled_58.pdb
REMARK  13 active torsions:
REMARK  status: ('A' for Active; 'I' for Inactive)
REMARK    1  A    between atoms: _2  and  _8
REMARK    2  A    between atoms: _5  and  _6
REMARK    3  A    between atoms: _5  and  _20
REMARK    4  A    between atoms: _8  and  _9
REMARK    5  A    between atoms: _8  and  _15
REMARK    6  A    between atoms: _20  and  _22
REMARK    7  A    between atoms: _21  and  _26
REMARK    8  A    between atoms: _22  and  _25
REMARK    9  A    between atoms: _30  and  _40
REMARK   10  A    between atoms: _32  and  _33
REMARK   11  A    between atoms: _34  and  _36
REMARK   12  A    between atoms: _36  and  _38
REMARK   13  A    between atoms: _38  and  _40
REMARK                            x       y       z     vdW  Elec       q    Type
REMARK                         _______ _______ _______ _____ _____    ______ ____
ROOT
ATOM      1  C   UNL     1      28.604  17.167  -0.518  0.00  0.00    +0.400 C 
ATOM      2  N   UNL     1      28.813  16.049   0.254  0.00  0.00    -0.278 N 
ATOM      3  H   UNL     1      29.429  16.409   1.049  0.00  0.00    +0.152 HD
ATOM      4  O   UNL     1      28.967  18.254  -0.074  0.00  0.00    -0.226 OA
ENDROOT
BRANCH   2   5
ATOM      5  C   UNL     1      28.564  14.627   0.478  0.00  0.00    +0.152 C 
BRANCH   5   6
ATOM      6  C   UNL     1      29.790  13.698   0.370  0.00  0.00    +0.193 C 
ATOM      7  O   UNL     1      30.006  13.456  -1.038  0.00  0.00    -0.219 OA
BRANCH   6   8
ATOM      8  C   UNL     1      31.145  14.238   0.879  0.00  0.00    +0.212 C 
ATOM      9  O   UNL     1      30.951  15.063   2.040  0.00  0.00    -0.218 OA
BRANCH   8  10
ATOM     10  C   UNL     1      32.177  13.101   1.235  0.00  0.00    +0.171 C 
ATOM     11  O   UNL     1      32.364  12.951   2.639  0.00  0.00    -0.343 OA
ATOM     12  C   UNL     1      33.386  12.198   3.221  0.00  0.00    +0.220 C 
ATOM     13  C   UNL     1      34.764  12.563   2.642  0.00  0.00    +0.076 C 
ATOM     14  C   UNL     1      34.668  12.448   1.112  0.00  0.00    +0.177 C 
ATOM     15  O   UNL     1      35.929  12.737   0.526  0.00  0.00    -0.221 OA
ATOM     16  C   UNL     1      33.560  13.404   0.570  0.00  0.00    +0.155 C 
BRANCH  16  17
ATOM     17  N   UNL     1      33.469  13.303  -0.884  0.00  0.00    -0.202 NA
ATOM     18  C   UNL     1      33.488  14.282  -1.825  0.00  0.00    +0.242 C 
ATOM     19  C   UNL     1      33.676  13.885  -3.266  0.00  0.00    +0.096 C 
ATOM     20  O   UNL     1      33.353  15.455  -1.484  0.00  0.00    -0.273 OA
ENDBRANCH  16  17
BRANCH  12  21
ATOM     21  C   UNL     1      33.121  10.596   3.168  0.00  0.00    +0.391 C 
ATOM     22  O   UNL     1      34.340  10.038   3.296  0.00  0.00    -0.243 OA
ATOM     23  O   UNL     1      31.801  10.435   3.322  0.00  0.00    -0.243 OA
ENDBRANCH  12  21
ENDBRANCH   8  10
ENDBRANCH   6   8
ENDBRANCH   5   6
ENDBRANCH   2   5
BRANCH   1  24
ATOM     24  O   UNL     1      28.063  16.957  -1.673  0.00  0.00    -0.450 OA
BRANCH  24  25
ATOM     25  C   UNL     1      27.077  17.517  -2.508  0.00  0.00    +0.240 C 
BRANCH  25  26
ATOM     26  C   UNL     1      26.875  16.879  -3.897  0.00  0.00    +0.100 C 
BRANCH  26  28
ATOM     27  N   UNL     1      25.384  15.178  -4.923  0.00  0.00    -0.134 NA
ATOM     28  C   UNL     1      25.932  15.750  -3.808  0.00  0.00    +0.086 A 
ATOM     29  C   UNL     1      25.482  15.079  -2.694  0.00  0.00    +0.134 A 
ATOM     30  N   UNL     1      24.790  14.012  -3.200  0.00  0.00    -0.240 N 
ATOM     31  N   UNL     1      24.668  14.126  -4.542  0.00  0.00    -0.065 NA
BRANCH  30  32
ATOM     32  C   UNL     1      24.245  12.833  -2.501  0.00  0.00    +0.169 C 
BRANCH  32  33
ATOM     33  C   UNL     1      22.866  13.097  -1.878  0.00  0.00    -0.019 A 
ATOM     34  C   UNL     1      22.061  14.164  -2.318  0.00  0.00    +0.006 A 
ATOM     35  C   UNL     1      20.808  14.401  -1.744  0.00  0.00    +0.000 A 
ATOM     36  C   UNL     1      20.328  13.565  -0.741  0.00  0.00    +0.000 A 
ATOM     37  C   UNL     1      21.082  12.474  -0.330  0.00  0.00    +0.000 A 
ATOM     38  C   UNL     1      22.328  12.232  -0.905  0.00  0.00    +0.006 A 
ENDBRANCH  32  33
BRANCH  32  39
ATOM     39  C   UNL     1      25.294  12.267  -1.534  0.00  0.00    -0.019 A 
ATOM     40  C   UNL     1      26.325  11.441  -2.014  0.00  0.00    +0.006 A 
ATOM     41  C   UNL     1      27.250  10.874  -1.135  0.00  0.00    +0.000 A 
ATOM     42  C   UNL     1      27.172  11.132   0.232  0.00  0.00    +0.000 A 
ATOM     43  C   UNL     1      26.159  11.943   0.728  0.00  0.00    +0.000 A 
ATOM     44  C   UNL     1      25.222  12.495  -0.146  0.00  0.00    +0.006 A 
ENDBRANCH  32  39
ENDBRANCH  30  32
ENDBRANCH  26  28
ENDBRANCH  25  26
ENDBRANCH  24  25
ENDBRANCH   1  24
TORSDOF 13
