REMARK VINA RESULT:    -5.791      2.908      4.912
REMARK INTER + INTRA:         -12.765
REMARK INTER:                 -10.971
REMARK INTRA:                  -1.795
REMARK UNBOUND:                -2.235
REMARK  Name = lig_assembled_50.pdb
REMARK  15 active torsions:
REMARK  status: ('A' for Active; 'I' for Inactive)
REMARK    1  A    between atoms: _2  and  _8
REMARK    2  A    between atoms: _4  and  _9
REMARK    3  A    between atoms: _4  and  _10
REMARK    4  A    between atoms: _5  and  _6
REMARK    5  A    between atoms: _5  and  _12
REMARK    6  A    between atoms: _8  and  _9
REMARK    7  A    between atoms: _9  and  _11
REMARK    8  A    between atoms: _12  and  _14
REMARK    9  A    between atoms: _13  and  _18
REMARK   10  A    between atoms: _14  and  _17
REMARK   11  A    between atoms: _22  and  _32
REMARK   12  A    between atoms: _24  and  _25
REMARK   13  A    between atoms: _26  and  _28
REMARK   14  A    between atoms: _28  and  _30
REMARK   15  A    between atoms: _30  and  _32
REMARK                            x       y       z     vdW  Elec       q    Type
REMARK                         _______ _______ _______ _____ _____    ______ ____
ROOT
ATOM      1  C   UNL     1      24.329  11.293   1.573  0.00  0.00    +0.400 C 
ATOM      2  N   UNL     1      25.418  11.074   2.383  0.00  0.00    -0.278 N 
ATOM      3  H   UNL     1      25.115  11.487   3.321  0.00  0.00    +0.152 HD
ATOM      4  O   UNL     1      23.291  11.695   2.093  0.00  0.00    -0.226 OA
ENDROOT
BRANCH   2   5
ATOM      5  C   UNL     1      26.764  10.529   2.538  0.00  0.00    +0.152 C 
BRANCH   5   6
ATOM      6  C   UNL     1      27.863  11.176   1.670  0.00  0.00    +0.193 C 
ATOM      7  O   UNL     1      27.557  10.844   0.297  0.00  0.00    -0.219 OA
BRANCH   6   8
ATOM      8  C   UNL     1      27.966  12.717   1.679  0.00  0.00    +0.212 C 
ATOM      9  O   UNL     1      27.518  13.243   2.939  0.00  0.00    -0.218 OA
BRANCH   8  10
ATOM     10  C   UNL     1      29.426  13.246   1.404  0.00  0.00    +0.171 C 
ATOM     11  O   UNL     1      30.090  13.664   2.592  0.00  0.00    -0.343 OA
ATOM     12  C   UNL     1      31.282  14.392   2.613  0.00  0.00    +0.220 C 
ATOM     13  C   UNL     1      31.211  15.631   1.703  0.00  0.00    +0.076 C 
ATOM     14  C   UNL     1      30.768  15.156   0.310  0.00  0.00    +0.177 C 
ATOM     15  O   UNL     1      30.724  16.260  -0.584  0.00  0.00    -0.221 OA
ATOM     16  C   UNL     1      29.382  14.444   0.400  0.00  0.00    +0.155 C 
BRANCH  16  17
ATOM     17  N   UNL     1      28.954  13.998  -0.924  0.00  0.00    -0.202 NA
ATOM     18  C   UNL     1      29.486  13.047  -1.733  0.00  0.00    +0.242 C 
ATOM     19  C   UNL     1      28.678  12.579  -2.915  0.00  0.00    +0.096 C 
ATOM     20  O   UNL     1      30.602  12.594  -1.485  0.00  0.00    -0.273 OA
ENDBRANCH  16  17
BRANCH  12  21
ATOM     21  C   UNL     1      32.596  13.491   2.294  0.00  0.00    +0.391 C 
ATOM     22  O   UNL     1      33.616  14.142   2.888  0.00  0.00    -0.243 OA
ATOM     23  O   UNL     1      32.139  12.319   1.837  0.00  0.00    -0.243 OA
ENDBRANCH  12  21
ENDBRANCH   8  10
ENDBRANCH   6   8
ENDBRANCH   5   6
ENDBRANCH   2   5
BRANCH   1  24
ATOM     24  O   UNL     1      24.518  11.080   0.312  0.00  0.00    -0.450 OA
BRANCH  24  25
ATOM     25  C   UNL     1      24.008  11.504  -0.931  0.00  0.00    +0.240 C 
BRANCH  25  26
ATOM     26  C   UNL     1      23.227  12.832  -0.964  0.00  0.00    +0.100 C 
BRANCH  26  28
ATOM     27  N   UNL     1      23.349  14.978  -2.196  0.00  0.00    -0.134 NA
ATOM     28  C   UNL     1      23.975  13.851  -1.727  0.00  0.00    +0.086 A 
ATOM     29  C   UNL     1      25.306  13.893  -2.084  0.00  0.00    +0.133 A 
ATOM     30  N   UNL     1      25.424  15.060  -2.770  0.00  0.00    -0.249 N 
ATOM     31  N   UNL     1      24.251  15.719  -2.822  0.00  0.00    -0.065 NA
BRANCH  30  32
ATOM     32  C   UNL     1      26.596  15.612  -3.408  0.00  0.00    +0.178 C 
BRANCH  32  33
ATOM     33  C   UNL     1      26.727  17.132  -3.266  0.00  0.00    +0.161 C 
BRANCH  33  34
ATOM     34  O   UNL     1      25.514  17.823  -3.578  0.00  0.00    -0.388 OA
ATOM     35  H   UNL     1      25.616  18.762  -3.325  0.00  0.00    +0.210 HD
ENDBRANCH  33  34
BRANCH  33  36
ATOM     36  C   UNL     1      27.238  17.578  -1.889  0.00  0.00    +0.189 C 
BRANCH  36  37
ATOM     37  O   UNL     1      28.662  17.509  -1.817  0.00  0.00    -0.392 OA
ATOM     38  H   UNL     1      28.967  18.176  -1.173  0.00  0.00    +0.210 HD
ENDBRANCH  36  37
ENDBRANCH  33  36
ENDBRANCH  32  33
ENDBRANCH  30  32
ENDBRANCH  26  28
ENDBRANCH  25  26
ENDBRANCH  24  25
ENDBRANCH   1  24
TORSDOF 15
