REMARK VINA RESULT:    -6.988      2.105      3.243
REMARK INTER + INTRA:         -14.822
REMARK INTER:                 -13.058
REMARK INTRA:                  -1.764
REMARK UNBOUND:                -2.115
REMARK  Name = lig_assembled_26.pdb
REMARK  15 active torsions:
REMARK  status: ('A' for Active; 'I' for Inactive)
REMARK    1  A    between atoms: _2  and  _8
REMARK    2  A    between atoms: _5  and  _6
REMARK    3  A    between atoms: _5  and  _18
REMARK    4  A    between atoms: _8  and  _9
REMARK    5  A    between atoms: _8  and  _10
REMARK    6  A    between atoms: _10  and  _11
REMARK    7  A    between atoms: _11  and  _12
REMARK    8  A    between atoms: _18  and  _20
REMARK    9  A    between atoms: _19  and  _24
REMARK   10  A    between atoms: _20  and  _23
REMARK   11  A    between atoms: _28  and  _38
REMARK   12  A    between atoms: _30  and  _31
REMARK   13  A    between atoms: _32  and  _34
REMARK   14  A    between atoms: _34  and  _36
REMARK   15  A    between atoms: _36  and  _38
REMARK                            x       y       z     vdW  Elec       q    Type
REMARK                         _______ _______ _______ _____ _____    ______ ____
ROOT
ATOM      1  C   UNL     1      28.309  17.604  -0.504  0.00  0.00    +0.400 C 
ATOM      2  N   UNL     1      29.498  17.335   0.134  0.00  0.00    -0.278 N 
ATOM      3  H   UNL     1      29.471  17.978   0.987  0.00  0.00    +0.152 HD
ATOM      4  O   UNL     1      27.483  18.299   0.081  0.00  0.00    -0.226 OA
ENDROOT
BRANCH   2   5
ATOM      5  C   UNL     1      30.744  16.574   0.174  0.00  0.00    +0.152 C 
BRANCH   5   6
ATOM      6  C   UNL     1      30.606  15.040   0.091  0.00  0.00    +0.193 C 
ATOM      7  O   UNL     1      31.527  14.594  -0.928  0.00  0.00    -0.219 OA
BRANCH   6   8
ATOM      8  C   UNL     1      30.989  14.219   1.342  0.00  0.00    +0.212 C 
ATOM      9  O   UNL     1      31.239  15.091   2.457  0.00  0.00    -0.218 OA
BRANCH   8  10
ATOM     10  C   UNL     1      29.890  13.169   1.761  0.00  0.00    +0.171 C 
ATOM     11  O   UNL     1      28.848  13.747   2.541  0.00  0.00    -0.343 OA
ATOM     12  C   UNL     1      27.888  13.013   3.241  0.00  0.00    +0.220 C 
ATOM     13  C   UNL     1      28.531  11.928   4.122  0.00  0.00    +0.076 C 
ATOM     14  C   UNL     1      29.457  11.091   3.223  0.00  0.00    +0.177 C 
ATOM     15  O   UNL     1      30.047  10.045   3.981  0.00  0.00    -0.221 OA
ATOM     16  C   UNL     1      30.543  12.003   2.573  0.00  0.00    +0.155 C 
BRANCH  16  17
ATOM     17  N   UNL     1      31.428  11.211   1.724  0.00  0.00    -0.202 NA
ATOM     18  C   UNL     1      31.192  10.644   0.513  0.00  0.00    +0.242 C 
ATOM     19  C   UNL     1      32.367  10.132  -0.279  0.00  0.00    +0.096 C 
ATOM     20  O   UNL     1      30.039  10.564   0.095  0.00  0.00    -0.273 OA
ENDBRANCH  16  17
BRANCH  12  21
ATOM     21  C   UNL     1      26.723  12.399   2.291  0.00  0.00    +0.391 C 
ATOM     22  O   UNL     1      26.954  12.925   1.073  0.00  0.00    -0.243 OA
ATOM     23  O   UNL     1      26.173  11.393   2.983  0.00  0.00    -0.243 OA
ENDBRANCH  12  21
ENDBRANCH   8  10
ENDBRANCH   6   8
ENDBRANCH   5   6
ENDBRANCH   2   5
BRANCH   1  24
ATOM     24  O   UNL     1      28.189  17.113  -1.693  0.00  0.00    -0.450 OA
BRANCH  24  25
ATOM     25  C   UNL     1      27.220  16.473  -2.492  0.00  0.00    +0.240 C 
BRANCH  25  26
ATOM     26  C   UNL     1      26.890  15.003  -2.168  0.00  0.00    +0.100 C 
BRANCH  26  28
ATOM     27  N   UNL     1      25.352  13.695  -3.611  0.00  0.00    -0.134 NA
ATOM     28  C   UNL     1      25.544  14.660  -2.657  0.00  0.00    +0.086 A 
ATOM     29  C   UNL     1      24.324  15.179  -2.291  0.00  0.00    +0.134 A 
ATOM     30  N   UNL     1      23.428  14.514  -3.073  0.00  0.00    -0.248 N 
ATOM     31  N   UNL     1      24.049  13.600  -3.846  0.00  0.00    -0.065 NA
BRANCH  30  32
ATOM     32  C   UNL     1      21.977  14.615  -3.109  0.00  0.00    +0.113 C 
ATOM     33  C   UNL     1      21.410  15.116  -4.445  0.00  0.00    +0.033 C 
BRANCH  32  34
ATOM     34  C   UNL     1      21.278  13.326  -2.641  0.00  0.00    +0.106 C 
BRANCH  34  35
ATOM     35  C   UNL     1      20.891  13.332  -1.173  0.00  0.00    +0.165 C 
ATOM     36  O   UNL     1      20.004  14.058  -0.730  0.00  0.00    -0.292 OA
BRANCH  35  37
ATOM     37  C   UNL     1      21.643  12.455  -0.227  0.00  0.00    +0.017 A 
ATOM     38  C   UNL     1      21.162  12.137   1.049  0.00  0.00    +0.011 A 
ATOM     39  C   UNL     1      21.888  11.278   1.877  0.00  0.00    +0.001 A 
ATOM     40  C   UNL     1      23.098  10.738   1.440  0.00  0.00    +0.000 A 
ATOM     41  C   UNL     1      23.588  11.058   0.178  0.00  0.00    +0.001 A 
ATOM     42  C   UNL     1      22.866  11.914  -0.654  0.00  0.00    +0.011 A 
ENDBRANCH  35  37
ENDBRANCH  34  35
ENDBRANCH  32  34
ENDBRANCH  30  32
ENDBRANCH  26  28
ENDBRANCH  25  26
ENDBRANCH  24  25
ENDBRANCH   1  24
TORSDOF 14
