REMARK VINA RESULT:    -5.432      3.882      5.435
REMARK INTER + INTRA:         -11.912
REMARK INTER:                 -10.768
REMARK INTRA:                  -1.145
REMARK UNBOUND:                -2.511
REMARK  Name = lig_assembled_1.pdb
REMARK  13 active torsions:
REMARK  status: ('A' for Active; 'I' for Inactive)
REMARK    1  A    between atoms: _2  and  _8
REMARK    2  A    between atoms: _4  and  _8
REMARK    3  A    between atoms: _4  and  _9
REMARK    4  A    between atoms: _5  and  _6
REMARK    5  A    between atoms: _5  and  _10
REMARK    6  A    between atoms: _10  and  _12
REMARK    7  A    between atoms: _11  and  _16
REMARK    8  A    between atoms: _12  and  _15
REMARK    9  A    between atoms: _20  and  _30
REMARK   10  A    between atoms: _22  and  _23
REMARK   11  A    between atoms: _24  and  _26
REMARK   12  A    between atoms: _26  and  _28
REMARK   13  A    between atoms: _28  and  _30
REMARK                            x       y       z     vdW  Elec       q    Type
REMARK                         _______ _______ _______ _____ _____    ______ ____
ROOT
ATOM      1  C   UNL     1      26.947  12.255   1.502  0.00  0.00    +0.193 C 
ATOM      2  O   UNL     1      26.314  12.417   0.213  0.00  0.00    -0.219 OA
ENDROOT
BRANCH   1   3
ATOM      3  C   UNL     1      27.825  13.515   1.661  0.00  0.00    +0.212 C 
ATOM      4  O   UNL     1      28.134  13.740   3.047  0.00  0.00    -0.218 OA
BRANCH   3   5
ATOM      5  C   UNL     1      29.174  13.444   0.849  0.00  0.00    +0.171 C 
ATOM      6  O   UNL     1      30.231  12.849   1.595  0.00  0.00    -0.343 OA
ATOM      7  C   UNL     1      31.576  12.879   1.218  0.00  0.00    +0.220 C 
ATOM      8  C   UNL     1      32.041  14.306   0.877  0.00  0.00    +0.076 C 
ATOM      9  C   UNL     1      31.063  14.875  -0.165  0.00  0.00    +0.177 C 
ATOM     10  O   UNL     1      31.472  16.181  -0.546  0.00  0.00    -0.221 OA
ATOM     11  C   UNL     1      29.611  14.878   0.406  0.00  0.00    +0.155 C 
BRANCH  11  12
ATOM     12  N   UNL     1      28.680  15.425  -0.578  0.00  0.00    -0.202 NA
ATOM     13  C   UNL     1      28.265  16.703  -0.763  0.00  0.00    +0.242 C 
ATOM     14  C   UNL     1      27.530  17.040  -2.035  0.00  0.00    +0.096 C 
ATOM     15  O   UNL     1      28.495  17.548   0.100  0.00  0.00    -0.273 OA
ENDBRANCH  11  12
BRANCH   7  16
ATOM     16  C   UNL     1      31.938  11.833   0.028  0.00  0.00    +0.391 C 
ATOM     17  O   UNL     1      33.171  12.187  -0.382  0.00  0.00    -0.243 OA
ATOM     18  O   UNL     1      31.030  10.853   0.109  0.00  0.00    -0.243 OA
ENDBRANCH   7  16
ENDBRANCH   3   5
ENDBRANCH   1   3
BRANCH   1  19
ATOM     19  C   UNL     1      25.816  12.038   2.528  0.00  0.00    +0.152 C 
BRANCH  19  21
ATOM     20  C   UNL     1      23.943  10.062   2.346  0.00  0.00    +0.400 C 
ATOM     21  N   UNL     1      25.126  10.752   2.463  0.00  0.00    -0.278 N 
ATOM     22  H   UNL     1      25.860   9.977   2.521  0.00  0.00    +0.152 HD
ATOM     23  O   UNL     1      23.996   8.849   2.159  0.00  0.00    -0.226 OA
BRANCH  20  24
ATOM     24  O   UNL     1      22.868  10.767   2.478  0.00  0.00    -0.450 OA
BRANCH  24  25
ATOM     25  C   UNL     1      22.028  11.591   1.703  0.00  0.00    +0.240 C 
BRANCH  25  26
ATOM     26  C   UNL     1      21.884  11.250   0.207  0.00  0.00    +0.100 C 
BRANCH  26  28
ATOM     27  N   UNL     1      20.668  13.281  -0.523  0.00  0.00    -0.134 NA
ATOM     28  C   UNL     1      21.781  12.485  -0.593  0.00  0.00    +0.086 A 
ATOM     29  C   UNL     1      22.676  13.039  -1.481  0.00  0.00    +0.133 A 
ATOM     30  N   UNL     1      22.047  14.165  -1.921  0.00  0.00    -0.249 N 
ATOM     31  N   UNL     1      20.840  14.306  -1.347  0.00  0.00    -0.065 NA
BRANCH  30  32
ATOM     32  C   UNL     1      22.532  15.144  -2.866  0.00  0.00    +0.173 C 
BRANCH  32  33
ATOM     33  C   UNL     1      21.465  16.157  -3.263  0.00  0.00    +0.179 C 
BRANCH  33  34
ATOM     34  O   UNL     1      21.931  17.493  -3.083  0.00  0.00    -0.393 OA
ATOM     35  H   UNL     1      22.806  17.433  -2.653  0.00  0.00    +0.209 HD
ENDBRANCH  33  34
ENDBRANCH  32  33
ENDBRANCH  30  32
ENDBRANCH  26  28
ENDBRANCH  25  26
ENDBRANCH  24  25
ENDBRANCH  20  24
ENDBRANCH  19  21
ENDBRANCH   1  19
TORSDOF 13
