REMARK VINA RESULT:    -6.423      1.634      3.553
REMARK INTER + INTRA:         -13.585
REMARK INTER:                 -12.404
REMARK INTRA:                  -1.181
REMARK UNBOUND:                -2.657
REMARK  Name = lig_assembled_46.pdb
REMARK  12 active torsions:
REMARK  status: ('A' for Active; 'I' for Inactive)
REMARK    1  A    between atoms: _2  and  _8
REMARK    2  A    between atoms: _5  and  _6
REMARK    3  A    between atoms: _5  and  _14
REMARK    4  A    between atoms: _8  and  _9
REMARK    5  A    between atoms: _14  and  _16
REMARK    6  A    between atoms: _15  and  _20
REMARK    7  A    between atoms: _16  and  _19
REMARK    8  A    between atoms: _24  and  _34
REMARK    9  A    between atoms: _26  and  _27
REMARK   10  A    between atoms: _28  and  _30
REMARK   11  A    between atoms: _30  and  _32
REMARK   12  A    between atoms: _32  and  _34
REMARK                            x       y       z     vdW  Elec       q    Type
REMARK                         _______ _______ _______ _____ _____    ______ ____
ROOT
ATOM      1  C   UNL     1      28.325  16.777  -0.509  0.00  0.00    +0.400 C 
ATOM      2  N   UNL     1      28.482  15.786   0.431  0.00  0.00    -0.278 N 
ATOM      3  H   UNL     1      28.937  16.295   1.253  0.00  0.00    +0.152 HD
ATOM      4  O   UNL     1      28.538  17.938  -0.169  0.00  0.00    -0.226 OA
ENDROOT
BRANCH   2   5
ATOM      5  C   UNL     1      28.296  14.387   0.807  0.00  0.00    +0.152 C 
BRANCH   5   6
ATOM      6  C   UNL     1      28.642  14.023   2.265  0.00  0.00    +0.193 C 
ATOM      7  O   UNL     1      27.553  13.213   2.761  0.00  0.00    -0.219 OA
BRANCH   6   8
ATOM      8  C   UNL     1      29.903  13.165   2.509  0.00  0.00    +0.212 C 
ATOM      9  O   UNL     1      29.660  11.799   2.134  0.00  0.00    -0.218 OA
BRANCH   8  10
ATOM     10  C   UNL     1      31.171  13.683   1.730  0.00  0.00    +0.171 C 
ATOM     11  O   UNL     1      31.037  13.557   0.318  0.00  0.00    -0.343 OA
ATOM     12  C   UNL     1      32.087  13.709  -0.591  0.00  0.00    +0.220 C 
ATOM     13  C   UNL     1      33.307  12.858  -0.199  0.00  0.00    +0.076 C 
ATOM     14  C   UNL     1      33.659  13.197   1.259  0.00  0.00    +0.177 C 
ATOM     15  O   UNL     1      34.808  12.465   1.660  0.00  0.00    -0.221 OA
ATOM     16  C   UNL     1      32.443  12.896   2.189  0.00  0.00    +0.155 C 
BRANCH  16  17
ATOM     17  N   UNL     1      32.775  13.210   3.576  0.00  0.00    -0.202 NA
ATOM     18  C   UNL     1      32.809  12.400   4.665  0.00  0.00    +0.242 C 
ATOM     19  C   UNL     1      33.469  12.914   5.918  0.00  0.00    +0.096 C 
ATOM     20  O   UNL     1      32.308  11.279   4.604  0.00  0.00    -0.273 OA
ENDBRANCH  16  17
BRANCH  12  21
ATOM     21  C   UNL     1      32.498  15.259  -0.851  0.00  0.00    +0.391 C 
ATOM     22  O   UNL     1      33.573  15.202  -1.662  0.00  0.00    -0.243 OA
ATOM     23  O   UNL     1      31.463  15.993  -0.425  0.00  0.00    -0.243 OA
ENDBRANCH  12  21
ENDBRANCH   8  10
ENDBRANCH   6   8
ENDBRANCH   5   6
ENDBRANCH   2   5
BRANCH   1  24
ATOM     24  O   UNL     1      27.991  16.378  -1.693  0.00  0.00    -0.450 OA
BRANCH  24  25
ATOM     25  C   UNL     1      26.916  15.737  -2.341  0.00  0.00    +0.240 C 
BRANCH  25  26
ATOM     26  C   UNL     1      26.251  16.479  -3.516  0.00  0.00    +0.100 C 
BRANCH  26  28
ATOM     27  N   UNL     1      25.181  15.124  -5.290  0.00  0.00    -0.134 NA
ATOM     28  C   UNL     1      25.121  15.692  -4.046  0.00  0.00    +0.086 A 
ATOM     29  C   UNL     1      23.921  15.360  -3.456  0.00  0.00    +0.134 A 
ATOM     30  N   UNL     1      23.319  14.541  -4.369  0.00  0.00    -0.247 N 
ATOM     31  N   UNL     1      24.076  14.414  -5.476  0.00  0.00    -0.065 NA
BRANCH  30  32
ATOM     32  C   UNL     1      22.179  13.667  -4.156  0.00  0.00    +0.180 C 
BRANCH  32  33
ATOM     33  C   UNL     1      21.858  13.428  -2.702  0.00  0.00    -0.026 A 
ATOM     34  C   UNL     1      20.736  14.022  -2.103  0.00  0.00    +0.005 A 
ATOM     35  C   UNL     1      20.393  13.718  -0.782  0.00  0.00    +0.000 A 
ATOM     36  C   UNL     1      21.165  12.819  -0.048  0.00  0.00    +0.000 A 
ATOM     37  C   UNL     1      22.286  12.230  -0.628  0.00  0.00    +0.000 A 
ATOM     38  C   UNL     1      22.630  12.532  -1.948  0.00  0.00    +0.005 A 
ENDBRANCH  32  33
ENDBRANCH  30  32
ENDBRANCH  26  28
ENDBRANCH  25  26
ENDBRANCH  24  25
ENDBRANCH   1  24
TORSDOF 12
