REMARK VINA RESULT:    -6.020      2.939     10.358
REMARK INTER + INTRA:         -12.487
REMARK INTER:                 -10.577
REMARK INTRA:                  -1.910
REMARK UNBOUND:                -1.716
REMARK  Name = lig_assembled_32.pdb
REMARK  14 active torsions:
REMARK  status: ('A' for Active; 'I' for Inactive)
REMARK    1  A    between atoms: _2  and  _8
REMARK    2  A    between atoms: _4  and  _9
REMARK    3  A    between atoms: _4  and  _10
REMARK    4  A    between atoms: _5  and  _6
REMARK    5  A    between atoms: _5  and  _12
REMARK    6  A    between atoms: _8  and  _9
REMARK    7  A    between atoms: _12  and  _14
REMARK    8  A    between atoms: _13  and  _18
REMARK    9  A    between atoms: _14  and  _17
REMARK   10  A    between atoms: _22  and  _32
REMARK   11  A    between atoms: _24  and  _25
REMARK   12  A    between atoms: _26  and  _28
REMARK   13  A    between atoms: _28  and  _30
REMARK   14  A    between atoms: _30  and  _32
REMARK                            x       y       z     vdW  Elec       q    Type
REMARK                         _______ _______ _______ _____ _____    ______ ____
ROOT
ATOM      1  C   UNL     1      27.211  14.044  -3.104  0.00  0.00    +0.152 C 
ENDROOT
BRANCH   1   3
ATOM      2  C   UNL     1      26.583  16.696  -3.232  0.00  0.00    +0.400 C 
ATOM      3  N   UNL     1      26.558  15.327  -3.351  0.00  0.00    -0.278 N 
ATOM      4  H   UNL     1      25.643  15.141  -3.871  0.00  0.00    +0.152 HD
ATOM      5  O   UNL     1      25.743  17.347  -3.849  0.00  0.00    -0.226 OA
BRANCH   2   6
ATOM      6  O   UNL     1      27.488  17.173  -2.442  0.00  0.00    -0.450 OA
BRANCH   6   7
ATOM      7  C   UNL     1      27.619  17.613  -1.110  0.00  0.00    +0.240 C 
BRANCH   7   8
ATOM      8  C   UNL     1      29.045  17.843  -0.574  0.00  0.00    +0.100 C 
BRANCH   8  10
ATOM      9  N   UNL     1      28.917  15.409  -0.148  0.00  0.00    -0.134 NA
ATOM     10  C   UNL     1      29.656  16.561  -0.174  0.00  0.00    +0.086 A 
ATOM     11  C   UNL     1      30.946  16.278   0.218  0.00  0.00    +0.133 A 
ATOM     12  N   UNL     1      30.921  14.943   0.480  0.00  0.00    -0.251 N 
ATOM     13  N   UNL     1      29.703  14.421   0.258  0.00  0.00    -0.065 NA
BRANCH  12  14
ATOM     14  C   UNL     1      32.003  14.098   0.935  0.00  0.00    +0.156 C 
BRANCH  14  15
ATOM     15  C   UNL     1      32.571  13.245  -0.191  0.00  0.00    +0.143 C 
BRANCH  15  16
ATOM     16  C   UNL     1      33.334  14.105  -1.157  0.00  0.00    +0.306 C 
ATOM     17  O   UNL     1      33.038  14.267  -2.330  0.00  0.00    -0.251 OA
BRANCH  16  18
ATOM     18  O   UNL     1      34.417  14.686  -0.595  0.00  0.00    -0.481 OA
ATOM     19  H   UNL     1      34.464  14.594   0.377  0.00  0.00    +0.295 HD
ENDBRANCH  16  18
ENDBRANCH  15  16
ENDBRANCH  14  15
ENDBRANCH  12  14
ENDBRANCH   8  10
ENDBRANCH   7   8
ENDBRANCH   6   7
ENDBRANCH   2   6
ENDBRANCH   1   3
BRANCH   1  20
ATOM     20  C   UNL     1      26.316  12.793  -3.215  0.00  0.00    +0.193 C 
ATOM     21  O   UNL     1      27.167  11.651  -2.970  0.00  0.00    -0.219 OA
BRANCH  20  22
ATOM     22  C   UNL     1      25.167  12.643  -2.194  0.00  0.00    +0.212 C 
ATOM     23  O   UNL     1      25.443  13.412  -1.012  0.00  0.00    -0.218 OA
BRANCH  22  24
ATOM     24  C   UNL     1      23.764  13.082  -2.764  0.00  0.00    +0.171 C 
ATOM     25  O   UNL     1      23.787  14.389  -3.329  0.00  0.00    -0.343 OA
ATOM     26  C   UNL     1      22.647  15.115  -3.681  0.00  0.00    +0.220 C 
ATOM     27  C   UNL     1      21.624  15.162  -2.534  0.00  0.00    +0.076 C 
ATOM     28  C   UNL     1      21.357  13.714  -2.092  0.00  0.00    +0.177 C 
ATOM     29  O   UNL     1      20.385  13.697  -1.056  0.00  0.00    -0.221 OA
ATOM     30  C   UNL     1      22.687  13.039  -1.631  0.00  0.00    +0.155 C 
BRANCH  30  31
ATOM     31  N   UNL     1      22.437  11.665  -1.204  0.00  0.00    -0.202 NA
ATOM     32  C   UNL     1      22.551  11.105   0.027  0.00  0.00    +0.242 C 
ATOM     33  C   UNL     1      21.949   9.742   0.251  0.00  0.00    +0.096 C 
ATOM     34  O   UNL     1      23.134  11.715   0.921  0.00  0.00    -0.273 OA
ENDBRANCH  30  31
BRANCH  26  35
ATOM     35  C   UNL     1      21.966  14.617  -5.069  0.00  0.00    +0.391 C 
ATOM     36  O   UNL     1      22.741  13.599  -5.491  0.00  0.00    -0.243 OA
ATOM     37  O   UNL     1      20.754  15.185  -5.112  0.00  0.00    -0.243 OA
ENDBRANCH  26  35
ENDBRANCH  22  24
ENDBRANCH  20  22
ENDBRANCH   1  20
TORSDOF 14
