REMARK VINA RESULT:    -5.820      3.383      9.689
REMARK INTER + INTRA:         -14.363
REMARK INTER:                 -11.165
REMARK INTRA:                  -3.197
REMARK UNBOUND:                -3.439
REMARK  Name = lig_assembled_84.pdb
REMARK  16 active torsions:
REMARK  status: ('A' for Active; 'I' for Inactive)
REMARK    1  A    between atoms: _2  and  _10
REMARK    2  A    between atoms: _3  and  _13
REMARK    3  A    between atoms: _4  and  _16
REMARK    4  A    between atoms: _7  and  _8
REMARK    5  A    between atoms: _7  and  _23
REMARK    6  A    between atoms: _10  and  _11
REMARK    7  A    between atoms: _11  and  _12
REMARK    8  A    between atoms: _11  and  _13
REMARK    9  A    between atoms: _23  and  _25
REMARK   10  A    between atoms: _24  and  _29
REMARK   11  A    between atoms: _25  and  _28
REMARK   12  A    between atoms: _33  and  _43
REMARK   13  A    between atoms: _35  and  _36
REMARK   14  A    between atoms: _37  and  _39
REMARK   15  A    between atoms: _39  and  _41
REMARK   16  A    between atoms: _41  and  _43
REMARK                            x       y       z     vdW  Elec       q    Type
REMARK                         _______ _______ _______ _____ _____    ______ ____
ROOT
ATOM      1  C   UNL     1      29.776  15.384   0.242  0.00  0.00    +0.240 C 
ENDROOT
BRANCH   1   2
ATOM      2  C   UNL     1      31.218  15.479   0.774  0.00  0.00    +0.100 C 
BRANCH   2   4
ATOM      3  N   UNL     1      32.663  14.189   2.321  0.00  0.00    -0.134 NA
ATOM      4  C   UNL     1      31.410  14.578   1.927  0.00  0.00    +0.086 A 
ATOM      5  C   UNL     1      30.476  13.971   2.736  0.00  0.00    +0.133 A 
ATOM      6  N   UNL     1      31.219  13.178   3.558  0.00  0.00    -0.251 N 
ATOM      7  N   UNL     1      32.533  13.327   3.322  0.00  0.00    -0.065 NA
BRANCH   6   8
ATOM      8  C   UNL     1      30.743  12.164   4.479  0.00  0.00    +0.149 C 
BRANCH   8   9
ATOM      9  C   UNL     1      31.358  10.771   4.261  0.00  0.00    +0.021 C 
ATOM     10  C   UNL     1      31.744  10.118   5.597  0.00  0.00    +0.010 C 
BRANCH   9  11
ATOM     11  C   UNL     1      30.377   9.835   3.515  0.00  0.00    +0.089 C 
BRANCH  11  12
ATOM     12  N   UNL     1      30.581   9.726   2.064  0.00  0.00    -0.299 NA
ATOM     13  C   UNL     1      32.022   9.901   1.737  0.00  0.00    +0.103 C 
ATOM     14  C   UNL     1      32.294   9.711   0.232  0.00  0.00    +0.120 C 
ATOM     15  N   UNL     1      31.492  10.667  -0.540  0.00  0.00    -0.327 N 
ATOM     16  C   UNL     1      30.051  10.620  -0.253  0.00  0.00    +0.120 C 
ATOM     17  C   UNL     1      29.807  10.724   1.281  0.00  0.00    +0.103 C 
BRANCH  15  18
ATOM     18  C   UNL     1      32.039  11.497  -1.492  0.00  0.00    +0.030 A 
ATOM     19  C   UNL     1      32.652  12.713  -1.136  0.00  0.00    +0.024 A 
ATOM     20  C   UNL     1      33.190  13.583  -2.090  0.00  0.00    +0.022 A 
ATOM     21  C   UNL     1      33.133  13.245  -3.433  0.00  0.00    +0.041 A 
ATOM     22 CL   UNL     1      33.788  14.312  -4.614  0.00  0.00    -0.084 Cl
ATOM     23  C   UNL     1      32.539  12.053  -3.827  0.00  0.00    +0.022 A 
ATOM     24  C   UNL     1      31.996  11.193  -2.860  0.00  0.00    +0.024 A 
ENDBRANCH  15  18
ENDBRANCH  11  12
ENDBRANCH   9  11
ENDBRANCH   8   9
ENDBRANCH   6   8
ENDBRANCH   2   4
ENDBRANCH   1   2
BRANCH   1  25
ATOM     25  O   UNL     1      29.335  16.403  -0.626  0.00  0.00    -0.450 OA
BRANCH  25  26
ATOM     26  C   UNL     1      28.259  17.068  -0.890  0.00  0.00    +0.400 C 
ATOM     27  N   UNL     1      27.306  16.394  -1.618  0.00  0.00    -0.278 N 
ATOM     28  H   UNL     1      26.450  17.030  -1.553  0.00  0.00    +0.152 HD
ATOM     29  O   UNL     1      28.008  18.215  -0.529  0.00  0.00    -0.226 OA
BRANCH  27  30
ATOM     30  C   UNL     1      26.953  15.234  -2.432  0.00  0.00    +0.152 C 
BRANCH  30  31
ATOM     31  C   UNL     1      25.468  15.111  -2.832  0.00  0.00    +0.193 C 
ATOM     32  O   UNL     1      25.382  15.473  -4.228  0.00  0.00    -0.219 OA
BRANCH  31  33
ATOM     33  C   UNL     1      24.821  13.711  -2.756  0.00  0.00    +0.212 C 
ATOM     34  O   UNL     1      25.490  12.800  -3.644  0.00  0.00    -0.218 OA
BRANCH  33  35
ATOM     35  C   UNL     1      24.829  13.097  -1.304  0.00  0.00    +0.171 C 
ATOM     36  O   UNL     1      25.957  12.261  -1.069  0.00  0.00    -0.343 OA
ATOM     37  C   UNL     1      26.090  11.407   0.028  0.00  0.00    +0.220 C 
ATOM     38  C   UNL     1      24.850  10.514   0.210  0.00  0.00    +0.076 C 
ATOM     39  C   UNL     1      23.619  11.435   0.252  0.00  0.00    +0.177 C 
ATOM     40  O   UNL     1      22.446  10.662   0.459  0.00  0.00    -0.221 OA
ATOM     41  C   UNL     1      23.525  12.267  -1.065  0.00  0.00    +0.155 C 
BRANCH  41  42
ATOM     42  N   UNL     1      22.353  13.138  -1.032  0.00  0.00    -0.202 NA
ATOM     43  C   UNL     1      21.247  13.135  -1.818  0.00  0.00    +0.242 C 
ATOM     44  C   UNL     1      20.057  13.950  -1.383  0.00  0.00    +0.096 C 
ATOM     45  O   UNL     1      21.240  12.473  -2.855  0.00  0.00    -0.273 OA
ENDBRANCH  41  42
BRANCH  37  46
ATOM     46  C   UNL     1      26.478  12.177   1.405  0.00  0.00    +0.391 C 
ATOM     47  O   UNL     1      26.132  11.325   2.389  0.00  0.00    -0.243 OA
ATOM     48  O   UNL     1      27.253  13.208   1.046  0.00  0.00    -0.243 OA
ENDBRANCH  37  46
ENDBRANCH  33  35
ENDBRANCH  31  33
ENDBRANCH  30  31
ENDBRANCH  27  30
ENDBRANCH  25  26
ENDBRANCH   1  25
TORSDOF 15
