REMARK VINA RESULT:    -6.480      3.067      5.622
REMARK INTER + INTRA:         -12.272
REMARK INTER:                  -9.995
REMARK INTRA:                  -2.277
REMARK UNBOUND:                -1.624
REMARK  Name = lig_assembled_3.pdb
REMARK  11 active torsions:
REMARK  status: ('A' for Active; 'I' for Inactive)
REMARK    1  A    between atoms: _2  and  _8
REMARK    2  A    between atoms: _5  and  _6
REMARK    3  A    between atoms: _5  and  _13
REMARK    4  A    between atoms: _13  and  _15
REMARK    5  A    between atoms: _14  and  _19
REMARK    6  A    between atoms: _15  and  _18
REMARK    7  A    between atoms: _23  and  _33
REMARK    8  A    between atoms: _25  and  _26
REMARK    9  A    between atoms: _27  and  _29
REMARK   10  A    between atoms: _29  and  _31
REMARK   11  A    between atoms: _31  and  _33
REMARK                            x       y       z     vdW  Elec       q    Type
REMARK                         _______ _______ _______ _____ _____    ______ ____
ROOT
ATOM      1  C   UNL     1      26.604  14.051  -4.314  0.00  0.00    +0.152 C 
ENDROOT
BRANCH   1   3
ATOM      2  C   UNL     1      24.068  13.191  -4.837  0.00  0.00    +0.400 C 
ATOM      3  N   UNL     1      25.398  13.246  -4.496  0.00  0.00    -0.278 N 
ATOM      4  H   UNL     1      25.641  12.228  -4.281  0.00  0.00    +0.152 HD
ATOM      5  O   UNL     1      23.555  12.085  -4.992  0.00  0.00    -0.226 OA
BRANCH   2   6
ATOM      6  O   UNL     1      23.466  14.331  -4.933  0.00  0.00    -0.450 OA
BRANCH   6   7
ATOM      7  C   UNL     1      22.526  15.106  -4.226  0.00  0.00    +0.240 C 
BRANCH   7   8
ATOM      8  C   UNL     1      21.141  14.483  -3.968  0.00  0.00    +0.100 C 
BRANCH   8  10
ATOM      9  N   UNL     1      20.302  14.460  -1.641  0.00  0.00    -0.134 NA
ATOM     10  C   UNL     1      21.084  13.906  -2.611  0.00  0.00    +0.086 A 
ATOM     11  C   UNL     1      21.729  12.805  -2.096  0.00  0.00    +0.139 A 
ATOM     12  N   UNL     1      21.284  12.707  -0.797  0.00  0.00    -0.220 N 
ATOM     13  N   UNL     1      20.432  13.731  -0.540  0.00  0.00    -0.061 NA
BRANCH  12  14
ATOM     14  C   UNL     1      21.593  11.722   0.176  0.00  0.00    +0.067 A 
ATOM     15  C   UNL     1      21.968  10.425  -0.206  0.00  0.00    +0.028 A 
ATOM     16  C   UNL     1      22.239   9.461   0.769  0.00  0.00    +0.002 A 
ATOM     17  C   UNL     1      22.142   9.782   2.121  0.00  0.00    +0.000 A 
ATOM     18  C   UNL     1      21.779  11.071   2.507  0.00  0.00    +0.002 A 
ATOM     19  C   UNL     1      21.506  12.042   1.540  0.00  0.00    +0.028 A 
ENDBRANCH  12  14
ENDBRANCH   8  10
ENDBRANCH   7   8
ENDBRANCH   6   7
ENDBRANCH   2   6
ENDBRANCH   1   3
BRANCH   1  20
ATOM     20  C   UNL     1      26.816  14.648  -2.908  0.00  0.00    +0.193 C 
ATOM     21  O   UNL     1      25.588  15.320  -2.552  0.00  0.00    -0.219 OA
BRANCH  20  22
ATOM     22  C   UNL     1      27.068  13.665  -1.744  0.00  0.00    +0.212 C 
ATOM     23  O   UNL     1      27.584  12.419  -2.241  0.00  0.00    -0.218 OA
BRANCH  22  24
ATOM     24  C   UNL     1      28.065  14.224  -0.658  0.00  0.00    +0.171 C 
ATOM     25  O   UNL     1      29.313  14.623  -1.214  0.00  0.00    -0.343 OA
ATOM     26  C   UNL     1      30.452  14.922  -0.462  0.00  0.00    +0.220 C 
ATOM     27  C   UNL     1      30.770  13.813   0.557  0.00  0.00    +0.076 C 
ATOM     28  C   UNL     1      29.496  13.563   1.381  0.00  0.00    +0.177 C 
ATOM     29  O   UNL     1      29.748  12.571   2.367  0.00  0.00    -0.221 OA
ATOM     30  C   UNL     1      28.322  13.144   0.443  0.00  0.00    +0.155 C 
BRANCH  30  31
ATOM     31  N   UNL     1      27.112  12.898   1.223  0.00  0.00    -0.202 NA
ATOM     32  C   UNL     1      26.401  11.753   1.385  0.00  0.00    +0.242 C 
ATOM     33  C   UNL     1      25.365  11.703   2.477  0.00  0.00    +0.096 C 
ATOM     34  O   UNL     1      26.618  10.794   0.646  0.00  0.00    -0.273 OA
ENDBRANCH  30  31
BRANCH  26  35
ATOM     35  C   UNL     1      30.394  16.383   0.246  0.00  0.00    +0.391 C 
ATOM     36  O   UNL     1      31.225  16.291   1.302  0.00  0.00    -0.243 OA
ATOM     37  O   UNL     1      29.800  17.197  -0.635  0.00  0.00    -0.243 OA
ENDBRANCH  26  35
ENDBRANCH  22  24
ENDBRANCH  20  22
ENDBRANCH   1  20
TORSDOF 11
