REMARK VINA RESULT:    -6.670      1.739      2.177
REMARK INTER + INTRA:         -14.614
REMARK INTER:                 -12.428
REMARK INTRA:                  -2.186
REMARK UNBOUND:                -2.486
REMARK  Name = lig_assembled_29.pdb
REMARK  16 active torsions:
REMARK  status: ('A' for Active; 'I' for Inactive)
REMARK    1  A    between atoms: _2  and  _8
REMARK    2  A    between atoms: _5  and  _6
REMARK    3  A    between atoms: _5  and  _18
REMARK    4  A    between atoms: _8  and  _9
REMARK    5  A    between atoms: _11  and  _17
REMARK    6  A    between atoms: _12  and  _17
REMARK    7  A    between atoms: _13  and  _16
REMARK    8  A    between atoms: _14  and  _16
REMARK    9  A    between atoms: _18  and  _20
REMARK   10  A    between atoms: _19  and  _24
REMARK   11  A    between atoms: _20  and  _23
REMARK   12  A    between atoms: _28  and  _38
REMARK   13  A    between atoms: _30  and  _31
REMARK   14  A    between atoms: _32  and  _34
REMARK   15  A    between atoms: _34  and  _36
REMARK   16  A    between atoms: _36  and  _38
REMARK                            x       y       z     vdW  Elec       q    Type
REMARK                         _______ _______ _______ _____ _____    ______ ____
ROOT
ATOM      1  C   UNL     1      27.462  17.046  -1.916  0.00  0.00    +0.400 C 
ATOM      2  N   UNL     1      27.732  15.792  -1.420  0.00  0.00    -0.278 N 
ATOM      3  H   UNL     1      28.238  15.993  -0.500  0.00  0.00    +0.152 HD
ATOM      4  O   UNL     1      27.665  18.013  -1.186  0.00  0.00    -0.226 OA
ENDROOT
BRANCH   2   5
ATOM      5  C   UNL     1      27.625  14.343  -1.574  0.00  0.00    +0.152 C 
BRANCH   5   6
ATOM      6  C   UNL     1      28.639  13.499  -0.776  0.00  0.00    +0.193 C 
ATOM      7  O   UNL     1      29.726  13.193  -1.677  0.00  0.00    -0.219 OA
BRANCH   6   8
ATOM      8  C   UNL     1      29.322  14.162   0.440  0.00  0.00    +0.212 C 
ATOM      9  O   UNL     1      28.338  14.719   1.327  0.00  0.00    -0.218 OA
BRANCH   8  10
ATOM     10  C   UNL     1      30.237  13.173   1.259  0.00  0.00    +0.171 C 
ATOM     11  O   UNL     1      29.731  12.914   2.565  0.00  0.00    -0.343 OA
ATOM     12  C   UNL     1      30.452  12.278   3.578  0.00  0.00    +0.220 C 
ATOM     13  C   UNL     1      31.840  12.912   3.774  0.00  0.00    +0.076 C 
ATOM     14  C   UNL     1      32.535  12.939   2.403  0.00  0.00    +0.177 C 
ATOM     15  O   UNL     1      33.841  13.482   2.536  0.00  0.00    -0.221 OA
ATOM     16  C   UNL     1      31.682  13.757   1.384  0.00  0.00    +0.155 C 
BRANCH  16  17
ATOM     17  N   UNL     1      32.343  13.790   0.081  0.00  0.00    -0.202 NA
ATOM     18  C   UNL     1      32.561  14.837  -0.754  0.00  0.00    +0.242 C 
ATOM     19  C   UNL     1      33.524  14.652  -1.898  0.00  0.00    +0.096 C 
ATOM     20  O   UNL     1      31.975  15.901  -0.562  0.00  0.00    -0.273 OA
ENDBRANCH  16  17
BRANCH  12  21
ATOM     21  C   UNL     1      30.554  10.668   3.386  0.00  0.00    +0.391 C 
ATOM     22  O   UNL     1      31.532  10.279   4.228  0.00  0.00    -0.243 OA
ATOM     23  O   UNL     1      29.455  10.305   2.714  0.00  0.00    -0.243 OA
ENDBRANCH  12  21
ENDBRANCH   8  10
ENDBRANCH   6   8
ENDBRANCH   5   6
ENDBRANCH   2   5
BRANCH   1  24
ATOM     24  O   UNL     1      27.043  17.086  -3.138  0.00  0.00    -0.450 OA
BRANCH  24  25
ATOM     25  C   UNL     1      25.841  16.952  -3.859  0.00  0.00    +0.240 C 
BRANCH  25  26
ATOM     26  C   UNL     1      25.496  15.556  -4.413  0.00  0.00    +0.100 C 
BRANCH  26  28
ATOM     27  N   UNL     1      23.458  15.734  -3.012  0.00  0.00    -0.134 NA
ATOM     28  C   UNL     1      24.390  14.954  -3.643  0.00  0.00    +0.086 A 
ATOM     29  C   UNL     1      24.080  13.630  -3.445  0.00  0.00    +0.134 A 
ATOM     30  N   UNL     1      22.898  13.669  -2.764  0.00  0.00    -0.247 N 
ATOM     31  N   UNL     1      22.550  14.933  -2.466  0.00  0.00    -0.065 NA
BRANCH  30  32
ATOM     32  C   UNL     1      22.028  12.561  -2.413  0.00  0.00    +0.180 C 
BRANCH  32  33
ATOM     33  C   UNL     1      22.340  12.055  -1.023  0.00  0.00    -0.022 A 
ATOM     34  C   UNL     1      23.649  11.665  -0.689  0.00  0.00    +0.054 A 
ATOM     35  C   UNL     1      23.968  11.268   0.617  0.00  0.00    +0.162 A 
ATOM     36  C   UNL     1      22.962  11.252   1.605  0.00  0.00    +0.162 A 
ATOM     37  C   UNL     1      21.662  11.640   1.270  0.00  0.00    +0.050 A 
ATOM     38  C   UNL     1      21.352  12.036  -0.034  0.00  0.00    +0.009 A 
BRANCH  36  39
ATOM     39  O   UNL     1      23.351  10.846   2.859  0.00  0.00    -0.491 OA
ATOM     40  C   UNL     1      22.936   9.560   3.295  0.00  0.00    +0.277 C 
ENDBRANCH  36  39
BRANCH  35  41
ATOM     41  O   UNL     1      25.223  10.894   1.028  0.00  0.00    -0.491 OA
ATOM     42  C   UNL     1      26.158  11.922   1.324  0.00  0.00    +0.277 C 
ENDBRANCH  35  41
ENDBRANCH  32  33
ENDBRANCH  30  32
ENDBRANCH  26  28
ENDBRANCH  25  26
ENDBRANCH  24  25
ENDBRANCH   1  24
TORSDOF 14
