REMARK VINA RESULT:    -5.598      1.722      2.384
REMARK INTER + INTRA:         -12.111
REMARK INTER:                 -10.704
REMARK INTRA:                  -1.407
REMARK UNBOUND:                -2.422
REMARK  Name = lig_assembled_53.pdb
REMARK  13 active torsions:
REMARK  status: ('A' for Active; 'I' for Inactive)
REMARK    1  A    between atoms: _2  and  _8
REMARK    2  A    between atoms: _4  and  _8
REMARK    3  A    between atoms: _4  and  _9
REMARK    4  A    between atoms: _5  and  _6
REMARK    5  A    between atoms: _5  and  _11
REMARK    6  A    between atoms: _11  and  _13
REMARK    7  A    between atoms: _12  and  _17
REMARK    8  A    between atoms: _13  and  _16
REMARK    9  A    between atoms: _21  and  _31
REMARK   10  A    between atoms: _23  and  _24
REMARK   11  A    between atoms: _25  and  _27
REMARK   12  A    between atoms: _27  and  _29
REMARK   13  A    between atoms: _29  and  _31
REMARK                            x       y       z     vdW  Elec       q    Type
REMARK                         _______ _______ _______ _____ _____    ______ ____
ROOT
ATOM      1  C   UNL     1      30.815  12.885  -1.727  0.00  0.00    +0.152 C 
ENDROOT
BRANCH   1   3
ATOM      2  C   UNL     1      29.071  14.690  -0.656  0.00  0.00    +0.400 C 
ATOM      3  N   UNL     1      30.197  13.957  -0.952  0.00  0.00    -0.278 N 
ATOM      4  H   UNL     1      30.938  14.369  -0.301  0.00  0.00    +0.152 HD
ATOM      5  O   UNL     1      29.107  15.439   0.317  0.00  0.00    -0.226 OA
BRANCH   2   6
ATOM      6  O   UNL     1      28.075  14.537  -1.465  0.00  0.00    -0.450 OA
BRANCH   6   7
ATOM      7  C   UNL     1      27.005  15.285  -1.995  0.00  0.00    +0.240 C 
BRANCH   7   8
ATOM      8  C   UNL     1      26.671  15.089  -3.486  0.00  0.00    +0.100 C 
BRANCH   8  10
ATOM      9  N   UNL     1      24.669  14.499  -4.820  0.00  0.00    -0.134 NA
ATOM     10  C   UNL     1      25.211  15.040  -3.686  0.00  0.00    +0.086 A 
ATOM     11  C   UNL     1      24.195  15.480  -2.867  0.00  0.00    +0.134 A 
ATOM     12  N   UNL     1      23.062  15.240  -3.585  0.00  0.00    -0.241 N 
ATOM     13  N   UNL     1      23.350  14.606  -4.739  0.00  0.00    -0.065 NA
BRANCH  12  14
ATOM     14  C   UNL     1      21.670  15.414  -3.224  0.00  0.00    +0.265 C 
BRANCH  14  15
ATOM     15  C   UNL     1      21.067  16.739  -3.607  0.00  0.00    +0.326 C 
ATOM     16  O   UNL     1      20.065  16.918  -4.283  0.00  0.00    -0.249 OA
BRANCH  15  17
ATOM     17  O   UNL     1      21.777  17.793  -3.122  0.00  0.00    -0.479 OA
ATOM     18  H   UNL     1      22.233  17.646  -2.271  0.00  0.00    +0.295 HD
ENDBRANCH  15  17
ENDBRANCH  14  15
ENDBRANCH  12  14
ENDBRANCH   8  10
ENDBRANCH   7   8
ENDBRANCH   6   7
ENDBRANCH   2   6
ENDBRANCH   1   3
BRANCH   1  19
ATOM     19  C   UNL     1      32.324  13.033  -2.009  0.00  0.00    +0.193 C 
ATOM     20  O   UNL     1      32.446  13.634  -3.317  0.00  0.00    -0.219 OA
BRANCH  19  21
ATOM     21  C   UNL     1      33.137  13.963  -1.081  0.00  0.00    +0.212 C 
ATOM     22  O   UNL     1      32.671  15.317  -1.195  0.00  0.00    -0.218 OA
BRANCH  21  23
ATOM     23  C   UNL     1      33.080  13.536   0.435  0.00  0.00    +0.171 C 
ATOM     24  O   UNL     1      32.218  14.367   1.206  0.00  0.00    -0.343 OA
ATOM     25  C   UNL     1      32.167  14.370   2.602  0.00  0.00    +0.220 C 
ATOM     26  C   UNL     1      33.568  14.513   3.223  0.00  0.00    +0.076 C 
ATOM     27  C   UNL     1      34.459  13.420   2.610  0.00  0.00    +0.177 C 
ATOM     28  O   UNL     1      35.759  13.482   3.182  0.00  0.00    -0.221 OA
ATOM     29  C   UNL     1      34.514  13.579   1.059  0.00  0.00    +0.155 C 
BRANCH  29  30
ATOM     30  N   UNL     1      35.366  12.547   0.473  0.00  0.00    -0.202 NA
ATOM     31  C   UNL     1      36.416  12.668  -0.378  0.00  0.00    +0.242 C 
ATOM     32  C   UNL     1      37.304  11.470  -0.594  0.00  0.00    +0.096 C 
ATOM     33  O   UNL     1      36.617  13.740  -0.945  0.00  0.00    -0.273 OA
ENDBRANCH  29  30
BRANCH  25  34
ATOM     34  C   UNL     1      31.365  13.101   3.223  0.00  0.00    +0.391 C 
ATOM     35  O   UNL     1      31.964  12.856   4.405  0.00  0.00    -0.243 OA
ATOM     36  O   UNL     1      30.251  12.975   2.493  0.00  0.00    -0.243 OA
ENDBRANCH  25  34
ENDBRANCH  21  23
ENDBRANCH  19  21
ENDBRANCH   1  19
TORSDOF 13
