REMARK VINA RESULT:    -6.535     20.201     24.149
REMARK INTER + INTRA:         -12.498
REMARK INTER:                 -11.310
REMARK INTRA:                  -1.188
REMARK UNBOUND:                -1.188
REMARK  Name = lig_assembled_35.pdb
REMARK  14 active torsions:
REMARK  status: ('A' for Active; 'I' for Inactive)
REMARK    1  A    between atoms: _2  and  _8
REMARK    2  A    between atoms: _4  and  _8
REMARK    3  A    between atoms: _4  and  _10
REMARK    4  A    between atoms: _5  and  _6
REMARK    5  A    between atoms: _5  and  _12
REMARK    6  A    between atoms: _8  and  _9
REMARK    7  A    between atoms: _12  and  _14
REMARK    8  A    between atoms: _13  and  _18
REMARK    9  A    between atoms: _14  and  _17
REMARK   10  A    between atoms: _22  and  _32
REMARK   11  A    between atoms: _24  and  _25
REMARK   12  A    between atoms: _26  and  _28
REMARK   13  A    between atoms: _28  and  _30
REMARK   14  A    between atoms: _30  and  _32
REMARK                            x       y       z     vdW  Elec       q    Type
REMARK                         _______ _______ _______ _____ _____    ______ ____
ROOT
ATOM      1  C   UNL     1      45.082  23.695  10.817  0.00  0.00    +0.152 C 
ENDROOT
BRANCH   1   3
ATOM      2  C   UNL     1      44.388  26.331  10.940  0.00  0.00    +0.400 C 
ATOM      3  N   UNL     1      44.437  24.992  10.631  0.00  0.00    -0.278 N 
ATOM      4  H   UNL     1      43.641  24.871   9.928  0.00  0.00    +0.152 HD
ATOM      5  O   UNL     1      43.651  27.053  10.272  0.00  0.00    -0.226 OA
BRANCH   2   6
ATOM      6  O   UNL     1      45.113  26.701  11.944  0.00  0.00    -0.450 OA
BRANCH   6   7
ATOM      7  C   UNL     1      46.321  27.379  12.196  0.00  0.00    +0.240 C 
BRANCH   7   8
ATOM      8  C   UNL     1      47.196  26.865  13.355  0.00  0.00    +0.100 C 
BRANCH   8  10
ATOM      9  N   UNL     1      45.547  28.028  14.788  0.00  0.00    -0.134 NA
ATOM     10  C   UNL     1      46.505  27.059  14.643  0.00  0.00    +0.086 A 
ATOM     11  C   UNL     1      46.652  26.393  15.840  0.00  0.00    +0.134 A 
ATOM     12  N   UNL     1      45.749  26.993  16.666  0.00  0.00    -0.238 N 
ATOM     13  N   UNL     1      45.103  27.989  16.035  0.00  0.00    -0.065 NA
BRANCH  12  14
ATOM     14  C   UNL     1      45.446  26.724  18.059  0.00  0.00    +0.214 C 
ATOM     15  C   UNL     1      44.998  27.995  18.775  0.00  0.00    +0.045 C 
BRANCH  14  16
ATOM     16  C   UNL     1      44.437  25.603  18.200  0.00  0.00    +0.329 C 
ATOM     17  O   UNL     1      44.704  24.480  18.606  0.00  0.00    -0.249 OA
BRANCH  16  18
ATOM     18  O   UNL     1      43.180  25.929  17.810  0.00  0.00    -0.479 OA
ATOM     19  H   UNL     1      42.863  26.812  18.089  0.00  0.00    +0.295 HD
ENDBRANCH  16  18
ENDBRANCH  14  16
ENDBRANCH  12  14
ENDBRANCH   8  10
ENDBRANCH   7   8
ENDBRANCH   6   7
ENDBRANCH   2   6
ENDBRANCH   1   3
BRANCH   1  20
ATOM     20  C   UNL     1      46.218  23.645  11.860  0.00  0.00    +0.193 C 
ATOM     21  O   UNL     1      45.587  23.640  13.160  0.00  0.00    -0.219 OA
BRANCH  20  22
ATOM     22  C   UNL     1      47.126  22.396  11.868  0.00  0.00    +0.212 C 
ATOM     23  O   UNL     1      46.855  21.585  13.023  0.00  0.00    -0.218 OA
BRANCH  22  24
ATOM     24  C   UNL     1      46.972  21.503  10.578  0.00  0.00    +0.171 C 
ATOM     25  O   UNL     1      46.559  20.174  10.878  0.00  0.00    -0.343 OA
ATOM     26  C   UNL     1      46.580  19.117   9.965  0.00  0.00    +0.220 C 
ATOM     27  C   UNL     1      47.944  18.995   9.264  0.00  0.00    +0.076 C 
ATOM     28  C   UNL     1      48.284  20.371   8.669  0.00  0.00    +0.177 C 
ATOM     29  O   UNL     1      49.521  20.303   7.974  0.00  0.00    -0.221 OA
ATOM     30  C   UNL     1      48.326  21.449   9.797  0.00  0.00    +0.155 C 
BRANCH  30  31
ATOM     31  N   UNL     1      48.655  22.757   9.237  0.00  0.00    -0.202 NA
ATOM     32  C   UNL     1      47.996  23.494   8.307  0.00  0.00    +0.242 C 
ATOM     33  C   UNL     1      48.392  24.936   8.125  0.00  0.00    +0.096 C 
ATOM     34  O   UNL     1      47.101  22.974   7.644  0.00  0.00    -0.273 OA
ENDBRANCH  30  31
BRANCH  26  35
ATOM     35  C   UNL     1      45.360  19.165   8.892  0.00  0.00    +0.391 C 
ATOM     36  O   UNL     1      44.765  20.356   9.096  0.00  0.00    -0.243 OA
ATOM     37  O   UNL     1      45.587  18.168   8.029  0.00  0.00    -0.243 OA
ENDBRANCH  26  35
ENDBRANCH  22  24
ENDBRANCH  20  22
ENDBRANCH   1  20
TORSDOF 13
