REMARK VINA RESULT:    -6.119      3.636      8.617
REMARK INTER + INTRA:         -12.664
REMARK INTER:                  -9.857
REMARK INTRA:                  -2.807
REMARK UNBOUND:                -1.716
REMARK  Name = lig_assembled_32.pdb
REMARK  14 active torsions:
REMARK  status: ('A' for Active; 'I' for Inactive)
REMARK    1  A    between atoms: _2  and  _8
REMARK    2  A    between atoms: _4  and  _9
REMARK    3  A    between atoms: _4  and  _10
REMARK    4  A    between atoms: _5  and  _6
REMARK    5  A    between atoms: _5  and  _12
REMARK    6  A    between atoms: _8  and  _9
REMARK    7  A    between atoms: _12  and  _14
REMARK    8  A    between atoms: _13  and  _18
REMARK    9  A    between atoms: _14  and  _17
REMARK   10  A    between atoms: _22  and  _32
REMARK   11  A    between atoms: _24  and  _25
REMARK   12  A    between atoms: _26  and  _28
REMARK   13  A    between atoms: _28  and  _30
REMARK   14  A    between atoms: _30  and  _32
REMARK                            x       y       z     vdW  Elec       q    Type
REMARK                         _______ _______ _______ _____ _____    ______ ____
ROOT
ATOM      1  C   UNL     1      27.123  15.703  -2.345  0.00  0.00    +0.152 C 
ENDROOT
BRANCH   1   3
ATOM      2  C   UNL     1      28.512  17.214  -0.547  0.00  0.00    +0.400 C 
ATOM      3  N   UNL     1      27.509  16.630  -1.284  0.00  0.00    -0.278 N 
ATOM      4  H   UNL     1      26.622  17.080  -0.895  0.00  0.00    +0.152 HD
ATOM      5  O   UNL     1      28.220  18.161   0.180  0.00  0.00    -0.226 OA
BRANCH   2   6
ATOM      6  O   UNL     1      29.682  16.679  -0.670  0.00  0.00    -0.450 OA
BRANCH   6   7
ATOM      7  C   UNL     1      30.821  16.408   0.113  0.00  0.00    +0.240 C 
BRANCH   7   8
ATOM      8  C   UNL     1      31.143  14.932   0.413  0.00  0.00    +0.100 C 
BRANCH   8  10
ATOM      9  N   UNL     1      29.528  13.424  -0.701  0.00  0.00    -0.134 NA
ATOM     10  C   UNL     1      29.907  14.127   0.411  0.00  0.00    +0.086 A 
ATOM     11  C   UNL     1      28.973  13.934   1.406  0.00  0.00    +0.133 A 
ATOM     12  N   UNL     1      28.050  13.116   0.831  0.00  0.00    -0.251 N 
ATOM     13  N   UNL     1      28.384  12.809  -0.433  0.00  0.00    -0.065 NA
BRANCH  12  14
ATOM     14  C   UNL     1      26.837  12.585   1.414  0.00  0.00    +0.156 C 
BRANCH  14  15
ATOM     15  C   UNL     1      26.267  11.436   0.592  0.00  0.00    +0.143 C 
BRANCH  15  16
ATOM     16  C   UNL     1      25.091  11.910  -0.213  0.00  0.00    +0.306 C 
ATOM     17  O   UNL     1      24.132  11.219  -0.518  0.00  0.00    -0.251 OA
BRANCH  16  18
ATOM     18  O   UNL     1      25.204  13.202  -0.588  0.00  0.00    -0.481 OA
ATOM     19  H   UNL     1      25.522  13.330  -1.503  0.00  0.00    +0.295 HD
ENDBRANCH  16  18
ENDBRANCH  15  16
ENDBRANCH  14  15
ENDBRANCH  12  14
ENDBRANCH   8  10
ENDBRANCH   7   8
ENDBRANCH   6   7
ENDBRANCH   2   6
ENDBRANCH   1   3
BRANCH   1  20
ATOM     20  C   UNL     1      25.968  16.160  -3.259  0.00  0.00    +0.193 C 
ATOM     21  O   UNL     1      26.361  17.432  -3.821  0.00  0.00    -0.219 OA
BRANCH  20  22
ATOM     22  C   UNL     1      25.638  15.282  -4.487  0.00  0.00    +0.212 C 
ATOM     23  O   UNL     1      26.466  15.647  -5.602  0.00  0.00    -0.218 OA
BRANCH  22  24
ATOM     24  C   UNL     1      25.809  13.739  -4.215  0.00  0.00    +0.171 C 
ATOM     25  O   UNL     1      26.631  13.100  -5.186  0.00  0.00    -0.343 OA
ATOM     26  C   UNL     1      26.752  11.715  -5.328  0.00  0.00    +0.220 C 
ATOM     27  C   UNL     1      25.377  11.028  -5.411  0.00  0.00    +0.076 C 
ATOM     28  C   UNL     1      24.558  11.485  -4.192  0.00  0.00    +0.177 C 
ATOM     29  O   UNL     1      23.289  10.846  -4.199  0.00  0.00    -0.221 OA
ATOM     30  C   UNL     1      24.411  13.038  -4.195  0.00  0.00    +0.155 C 
BRANCH  30  31
ATOM     31  N   UNL     1      23.627  13.476  -3.043  0.00  0.00    -0.202 NA
ATOM     32  C   UNL     1      22.458  14.164  -2.999  0.00  0.00    +0.242 C 
ATOM     33  C   UNL     1      21.714  14.228  -1.691  0.00  0.00    +0.096 C 
ATOM     34  O   UNL     1      22.037  14.711  -4.016  0.00  0.00    -0.273 OA
ENDBRANCH  30  31
BRANCH  26  35
ATOM     35  C   UNL     1      27.695  11.028  -4.198  0.00  0.00    +0.391 C 
ATOM     36  O   UNL     1      27.457   9.707  -4.303  0.00  0.00    -0.243 OA
ATOM     37  O   UNL     1      28.556  11.977  -3.808  0.00  0.00    -0.243 OA
ENDBRANCH  26  35
ENDBRANCH  22  24
ENDBRANCH  20  22
ENDBRANCH   1  20
TORSDOF 14
