REMARK VINA RESULT:    -6.119      1.971      2.808
REMARK INTER + INTRA:         -12.963
REMARK INTER:                 -11.194
REMARK INTRA:                  -1.769
REMARK UNBOUND:                -2.194
REMARK  Name = lig_assembled_14.pdb
REMARK  13 active torsions:
REMARK  status: ('A' for Active; 'I' for Inactive)
REMARK    1  A    between atoms: _2  and  _9
REMARK    2  A    between atoms: _3  and  _10
REMARK    3  A    between atoms: _6  and  _7
REMARK    4  A    between atoms: _6  and  _14
REMARK    5  A    between atoms: _9  and  _10
REMARK    6  A    between atoms: _14  and  _16
REMARK    7  A    between atoms: _15  and  _20
REMARK    8  A    between atoms: _16  and  _19
REMARK    9  A    between atoms: _24  and  _34
REMARK   10  A    between atoms: _26  and  _27
REMARK   11  A    between atoms: _28  and  _30
REMARK   12  A    between atoms: _30  and  _32
REMARK   13  A    between atoms: _32  and  _34
REMARK                            x       y       z     vdW  Elec       q    Type
REMARK                         _______ _______ _______ _____ _____    ______ ____
ROOT
ATOM      1  C   UNL     1      27.474  17.142  -1.826  0.00  0.00    +0.400 C 
ATOM      2  N   UNL     1      27.749  15.876  -1.367  0.00  0.00    -0.278 N 
ATOM      3  H   UNL     1      28.187  16.050  -0.408  0.00  0.00    +0.152 HD
ATOM      4  O   UNL     1      27.597  18.081  -1.044  0.00  0.00    -0.226 OA
ENDROOT
BRANCH   2   5
ATOM      5  C   UNL     1      27.700  14.433  -1.590  0.00  0.00    +0.152 C 
BRANCH   5   6
ATOM      6  C   UNL     1      28.742  13.591  -0.827  0.00  0.00    +0.193 C 
ATOM      7  O   UNL     1      29.749  13.204  -1.788  0.00  0.00    -0.219 OA
BRANCH   6   8
ATOM      8  C   UNL     1      29.535  14.286   0.303  0.00  0.00    +0.212 C 
ATOM      9  O   UNL     1      28.640  14.968   1.197  0.00  0.00    -0.218 OA
BRANCH   8  10
ATOM     10  C   UNL     1      30.426  13.293   1.142  0.00  0.00    +0.171 C 
ATOM     11  O   UNL     1      29.964  13.140   2.480  0.00  0.00    -0.343 OA
ATOM     12  C   UNL     1      30.693  12.521   3.499  0.00  0.00    +0.220 C 
ATOM     13  C   UNL     1      32.122  13.083   3.601  0.00  0.00    +0.076 C 
ATOM     14  C   UNL     1      32.756  12.988   2.203  0.00  0.00    +0.177 C 
ATOM     15  O   UNL     1      34.095  13.459   2.249  0.00  0.00    -0.221 OA
ATOM     16  C   UNL     1      31.907  13.795   1.172  0.00  0.00    +0.155 C 
BRANCH  16  17
ATOM     17  N   UNL     1      32.510  13.714  -0.156  0.00  0.00    -0.202 NA
ATOM     18  C   UNL     1      32.788  14.701  -1.045  0.00  0.00    +0.242 C 
ATOM     19  C   UNL     1      33.679  14.379  -2.216  0.00  0.00    +0.096 C 
ATOM     20  O   UNL     1      32.314  15.823  -0.875  0.00  0.00    -0.273 OA
ENDBRANCH  16  17
BRANCH  12  21
ATOM     21  C   UNL     1      30.694  10.900   3.402  0.00  0.00    +0.391 C 
ATOM     22  O   UNL     1      31.509  10.492   4.393  0.00  0.00    -0.243 OA
ATOM     23  O   UNL     1      29.676  10.577   2.594  0.00  0.00    -0.243 OA
ENDBRANCH  12  21
ENDBRANCH   8  10
ENDBRANCH   6   8
ENDBRANCH   5   6
ENDBRANCH   2   5
BRANCH   1  24
ATOM     24  O   UNL     1      27.135  17.225  -3.071  0.00  0.00    -0.450 OA
BRANCH  24  25
ATOM     25  C   UNL     1      26.009  17.006  -3.888  0.00  0.00    +0.240 C 
BRANCH  25  26
ATOM     26  C   UNL     1      25.973  15.706  -4.715  0.00  0.00    +0.100 C 
BRANCH  26  28
ATOM     27  N   UNL     1      24.370  13.853  -5.053  0.00  0.00    -0.134 NA
ATOM     28  C   UNL     1      24.892  14.823  -4.240  0.00  0.00    +0.086 A 
ATOM     29  C   UNL     1      24.242  14.793  -3.026  0.00  0.00    +0.133 A 
ATOM     30  N   UNL     1      23.328  13.795  -3.171  0.00  0.00    -0.250 N 
ATOM     31  N   UNL     1      23.413  13.224  -4.386  0.00  0.00    -0.065 NA
BRANCH  30  32
ATOM     32  C   UNL     1      22.315  13.365  -2.233  0.00  0.00    +0.160 C 
BRANCH  32  33
ATOM     33  C   UNL     1      21.258  14.449  -1.995  0.00  0.00    +0.107 C 
BRANCH  33  34
ATOM     34  N   UNL     1      20.461  14.751  -3.196  0.00  0.00    -0.301 NA
ATOM     35  C   UNL     1      19.020  14.566  -2.992  0.00  0.00    +0.084 C 
ATOM     36  C   UNL     1      18.424  15.312  -4.168  0.00  0.00    +0.017 C 
ATOM     37  C   UNL     1      19.324  16.524  -4.322  0.00  0.00    +0.017 C 
ATOM     38  C   UNL     1      20.629  16.146  -3.626  0.00  0.00    +0.084 C 
ENDBRANCH  33  34
ENDBRANCH  32  33
ENDBRANCH  30  32
ENDBRANCH  26  28
ENDBRANCH  25  26
ENDBRANCH  24  25
ENDBRANCH   1  24
TORSDOF 13
