REMARK VINA RESULT:    -6.965      1.958      3.623
REMARK INTER + INTRA:         -13.724
REMARK INTER:                 -12.586
REMARK INTRA:                  -1.138
REMARK UNBOUND:                -1.466
REMARK  Name = lig_assembled_78.pdb
REMARK  13 active torsions:
REMARK  status: ('A' for Active; 'I' for Inactive)
REMARK    1  A    between atoms: _2  and  _8
REMARK    2  A    between atoms: _5  and  _6
REMARK    3  A    between atoms: _5  and  _16
REMARK    4  A    between atoms: _8  and  _44
REMARK    5  A    between atoms: _9  and  _44
REMARK    6  A    between atoms: _16  and  _18
REMARK    7  A    between atoms: _17  and  _22
REMARK    8  A    between atoms: _18  and  _21
REMARK    9  A    between atoms: _26  and  _36
REMARK   10  A    between atoms: _28  and  _29
REMARK   11  A    between atoms: _30  and  _32
REMARK   12  A    between atoms: _32  and  _34
REMARK   13  A    between atoms: _34  and  _36
REMARK                            x       y       z     vdW  Elec       q    Type
REMARK                         _______ _______ _______ _____ _____    ______ ____
ROOT
ATOM      1  C   UNL     1      28.919  17.065  -0.474  0.00  0.00    +0.400 C 
ATOM      2  N   UNL     1      29.014  15.898   0.248  0.00  0.00    -0.278 N 
ATOM      3  H   UNL     1      29.683  16.152   1.042  0.00  0.00    +0.152 HD
ATOM      4  O   UNL     1      29.414  18.083   0.004  0.00  0.00    -0.226 OA
ENDROOT
BRANCH   2   5
ATOM      5  C   UNL     1      28.608  14.506   0.422  0.00  0.00    +0.152 C 
BRANCH   5   6
ATOM      6  C   UNL     1      28.660  13.957   1.862  0.00  0.00    +0.193 C 
ATOM      7  O   UNL     1      27.562  13.027   1.993  0.00  0.00    -0.219 OA
BRANCH   6   8
ATOM      8  C   UNL     1      29.907  13.141   2.272  0.00  0.00    +0.212 C 
ATOM      9  O   UNL     1      29.526  11.822   2.695  0.00  0.00    -0.218 OA
BRANCH   8  10
ATOM     10  C   UNL     1      30.975  13.012   1.119  0.00  0.00    +0.171 C 
ATOM     11  O   UNL     1      30.602  12.057   0.131  0.00  0.00    -0.343 OA
ATOM     12  C   UNL     1      31.460  11.570  -0.857  0.00  0.00    +0.220 C 
ATOM     13  C   UNL     1      32.792  11.076  -0.264  0.00  0.00    +0.076 C 
ATOM     14  C   UNL     1      33.369  12.217   0.590  0.00  0.00    +0.177 C 
ATOM     15  O   UNL     1      34.623  11.827   1.131  0.00  0.00    -0.221 OA
ATOM     16  C   UNL     1      32.363  12.608   1.716  0.00  0.00    +0.155 C 
BRANCH  16  17
ATOM     17  N   UNL     1      32.910  13.687   2.534  0.00  0.00    -0.202 NA
ATOM     18  C   UNL     1      33.339  13.669   3.822  0.00  0.00    +0.242 C 
ATOM     19  C   UNL     1      34.131  14.845   4.329  0.00  0.00    +0.096 C 
ATOM     20  O   UNL     1      33.076  12.703   4.536  0.00  0.00    -0.273 OA
ENDBRANCH  16  17
BRANCH  12  21
ATOM     21  C   UNL     1      31.701  12.615  -2.077  0.00  0.00    +0.391 C 
ATOM     22  O   UNL     1      30.773  13.576  -1.901  0.00  0.00    -0.243 OA
ATOM     23  O   UNL     1      32.891  12.300  -2.605  0.00  0.00    -0.243 OA
ENDBRANCH  12  21
ENDBRANCH   8  10
ENDBRANCH   6   8
ENDBRANCH   5   6
ENDBRANCH   2   5
BRANCH   1  24
ATOM     24  O   UNL     1      28.335  16.966  -1.622  0.00  0.00    -0.450 OA
BRANCH  24  25
ATOM     25  C   UNL     1      27.048  17.096  -2.180  0.00  0.00    +0.240 C 
BRANCH  25  26
ATOM     26  C   UNL     1      26.939  17.121  -3.717  0.00  0.00    +0.100 C 
BRANCH  26  28
ATOM     27  N   UNL     1      26.060  15.649  -5.507  0.00  0.00    -0.134 NA
ATOM     28  C   UNL     1      26.081  16.018  -4.188  0.00  0.00    +0.086 A 
ATOM     29  C   UNL     1      25.216  15.211  -3.483  0.00  0.00    +0.135 A 
ATOM     30  N   UNL     1      24.748  14.337  -4.417  0.00  0.00    -0.230 N 
ATOM     31  N   UNL     1      25.222  14.631  -5.639  0.00  0.00    -0.064 NA
BRANCH  30  32
ATOM     32  C   UNL     1      23.802  13.260  -4.250  0.00  0.00    +0.316 C 
BRANCH  32  33
ATOM     33  S   UNL     1      22.123  13.808  -4.087  0.00  0.00    +0.017 S 
ATOM     34  O   UNL     1      22.075  15.257  -4.077  0.00  0.00    -0.168 OA
ATOM     35  O   UNL     1      21.310  13.043  -5.018  0.00  0.00    -0.168 OA
BRANCH  33  36
ATOM     36  C   UNL     1      21.655  13.296  -2.447  0.00  0.00    +0.090 A 
ATOM     37  C   UNL     1      22.338  12.236  -1.842  0.00  0.00    +0.027 A 
ATOM     38  C   UNL     1      21.992  11.849  -0.548  0.00  0.00    +0.002 A 
ATOM     39  C   UNL     1      20.985  12.528   0.139  0.00  0.00    +0.000 A 
ATOM     40  C   UNL     1      20.321  13.598  -0.463  0.00  0.00    +0.002 A 
ATOM     41  C   UNL     1      20.654  13.986  -1.760  0.00  0.00    +0.027 A 
ENDBRANCH  33  36
ENDBRANCH  32  33
ENDBRANCH  30  32
ENDBRANCH  26  28
ENDBRANCH  25  26
ENDBRANCH  24  25
ENDBRANCH   1  24
TORSDOF 13
