REMARK VINA RESULT:    -6.235      2.010      3.975
REMARK INTER + INTRA:         -14.153
REMARK INTER:                 -12.001
REMARK INTRA:                  -2.152
REMARK UNBOUND:                -1.720
REMARK  Name = lig_assembled_54.pdb
REMARK  19 active torsions:
REMARK  status: ('A' for Active; 'I' for Inactive)
REMARK    1  A    between atoms: _2  and  _8
REMARK    2  A    between atoms: _4  and  _13
REMARK    3  A    between atoms: _5  and  _6
REMARK    4  A    between atoms: _5  and  _16
REMARK    5  A    between atoms: _8  and  _9
REMARK    6  A    between atoms: _9  and  _10
REMARK    7  A    between atoms: _10  and  _14
REMARK    8  A    between atoms: _10  and  _15
REMARK    9  A    between atoms: _11  and  _12
REMARK   10  A    between atoms: _11  and  _15
REMARK   11  A    between atoms: _13  and  _14
REMARK   12  A    between atoms: _16  and  _18
REMARK   13  A    between atoms: _17  and  _22
REMARK   14  A    between atoms: _18  and  _21
REMARK   15  A    between atoms: _26  and  _36
REMARK   16  A    between atoms: _28  and  _29
REMARK   17  A    between atoms: _30  and  _32
REMARK   18  A    between atoms: _32  and  _34
REMARK   19  A    between atoms: _34  and  _36
REMARK                            x       y       z     vdW  Elec       q    Type
REMARK                         _______ _______ _______ _____ _____    ______ ____
ROOT
ATOM      1  C   UNL     1      28.732  17.022  -0.548  0.00  0.00    +0.400 C 
ATOM      2  N   UNL     1      28.755  15.875   0.210  0.00  0.00    -0.278 N 
ATOM      3  H   UNL     1      29.447  16.108   0.990  0.00  0.00    +0.152 HD
ATOM      4  O   UNL     1      29.298  18.019  -0.108  0.00  0.00    -0.226 OA
ENDROOT
BRANCH   1   5
ATOM      5  O   UNL     1      28.131  16.927  -1.689  0.00  0.00    -0.450 OA
BRANCH   5   6
ATOM      6  C   UNL     1      27.123  17.581  -2.423  0.00  0.00    +0.240 C 
BRANCH   6   7
ATOM      7  C   UNL     1      26.844  17.079  -3.852  0.00  0.00    +0.100 C 
BRANCH   7   9
ATOM      8  N   UNL     1      25.444  15.350  -4.940  0.00  0.00    -0.134 NA
ATOM      9  C   UNL     1      25.727  16.115  -3.840  0.00  0.00    +0.086 A 
ATOM     10  C   UNL     1      24.843  15.798  -2.830  0.00  0.00    +0.133 A 
ATOM     11  N   UNL     1      24.075  14.808  -3.366  0.00  0.00    -0.251 N 
ATOM     12  N   UNL     1      24.434  14.545  -4.635  0.00  0.00    -0.065 NA
BRANCH  11  13
ATOM     13  C   UNL     1      23.034  14.031  -2.724  0.00  0.00    +0.150 C 
BRANCH  13  14
ATOM     14  C   UNL     1      23.391  13.688  -1.285  0.00  0.00    +0.084 C 
BRANCH  14  15
ATOM     15  C   UNL     1      23.310  12.190  -0.977  0.00  0.00    +0.252 C 
BRANCH  15  16
ATOM     16  O   UNL     1      23.777  11.430  -2.096  0.00  0.00    -0.352 OA
BRANCH  16  17
ATOM     17  C   UNL     1      25.181  11.178  -2.085  0.00  0.00    +0.159 C 
ATOM     18  C   UNL     1      25.551  10.533  -0.764  0.00  0.00    +0.034 C 
ENDBRANCH  16  17
ENDBRANCH  15  16
BRANCH  15  19
ATOM     19  O   UNL     1      21.938  11.874  -0.714  0.00  0.00    -0.352 OA
BRANCH  19  20
ATOM     20  C   UNL     1      21.784  10.979   0.389  0.00  0.00    +0.159 C 
ATOM     21  C   UNL     1      21.552  11.784   1.652  0.00  0.00    +0.034 C 
ENDBRANCH  19  20
ENDBRANCH  15  19
ENDBRANCH  14  15
ENDBRANCH  13  14
ENDBRANCH  11  13
ENDBRANCH   7   9
ENDBRANCH   6   7
ENDBRANCH   5   6
ENDBRANCH   1   5
BRANCH   2  22
ATOM     22  C   UNL     1      28.258  14.520   0.431  0.00  0.00    +0.152 C 
BRANCH  22  23
ATOM     23  C   UNL     1      28.576  13.895   1.806  0.00  0.00    +0.193 C 
ATOM     24  O   UNL     1      27.365  13.251   2.259  0.00  0.00    -0.219 OA
BRANCH  23  25
ATOM     25  C   UNL     1      29.646  12.783   1.855  0.00  0.00    +0.212 C 
ATOM     26  O   UNL     1      29.243  11.662   1.051  0.00  0.00    -0.218 OA
BRANCH  25  27
ATOM     27  C   UNL     1      31.068  13.263   1.373  0.00  0.00    +0.171 C 
ATOM     28  O   UNL     1      31.237  13.146  -0.036  0.00  0.00    -0.343 OA
ATOM     29  C   UNL     1      32.463  13.267  -0.695  0.00  0.00    +0.220 C 
ATOM     30  C   UNL     1      33.544  12.376  -0.058  0.00  0.00    +0.076 C 
ATOM     31  C   UNL     1      33.582  12.698   1.445  0.00  0.00    +0.177 C 
ATOM     32  O   UNL     1      34.595  11.927   2.076  0.00  0.00    -0.221 OA
ATOM     33  C   UNL     1      32.185  12.433   2.087  0.00  0.00    +0.155 C 
BRANCH  33  34
ATOM     34  N   UNL     1      32.220  12.731   3.517  0.00  0.00    -0.202 NA
ATOM     35  C   UNL     1      32.039  11.907   4.580  0.00  0.00    +0.242 C 
ATOM     36  C   UNL     1      32.420  12.410   5.948  0.00  0.00    +0.096 C 
ATOM     37  O   UNL     1      31.576  10.782   4.404  0.00  0.00    -0.273 OA
ENDBRANCH  33  34
BRANCH  29  38
ATOM     38  C   UNL     1      32.969  14.804  -0.844  0.00  0.00    +0.391 C 
ATOM     39  O   UNL     1      34.262  14.710  -1.211  0.00  0.00    -0.243 OA
ATOM     40  O   UNL     1      31.863  15.559  -0.846  0.00  0.00    -0.243 OA
ENDBRANCH  29  38
ENDBRANCH  25  27
ENDBRANCH  23  25
ENDBRANCH  22  23
ENDBRANCH   2  22
TORSDOF 17
