REMARK VINA RESULT:    -6.500      3.359      9.135
REMARK INTER + INTRA:         -12.945
REMARK INTER:                 -10.697
REMARK INTRA:                  -2.249
REMARK UNBOUND:                -1.696
REMARK  Name = lig_assembled_72.pdb
REMARK  15 active torsions:
REMARK  status: ('A' for Active; 'I' for Inactive)
REMARK    1  A    between atoms: _2  and  _8
REMARK    2  A    between atoms: _4  and  _8
REMARK    3  A    between atoms: _4  and  _11
REMARK    4  A    between atoms: _5  and  _6
REMARK    5  A    between atoms: _5  and  _12
REMARK    6  A    between atoms: _8  and  _9
REMARK    7  A    between atoms: _8  and  _10
REMARK    8  A    between atoms: _12  and  _14
REMARK    9  A    between atoms: _13  and  _18
REMARK   10  A    between atoms: _14  and  _17
REMARK   11  A    between atoms: _22  and  _32
REMARK   12  A    between atoms: _24  and  _25
REMARK   13  A    between atoms: _26  and  _28
REMARK   14  A    between atoms: _28  and  _30
REMARK   15  A    between atoms: _30  and  _32
REMARK                            x       y       z     vdW  Elec       q    Type
REMARK                         _______ _______ _______ _____ _____    ______ ____
ROOT
ATOM      1  C   UNL     1      27.498  13.412  -2.617  0.00  0.00    +0.152 C 
ENDROOT
BRANCH   1   3
ATOM      2  C   UNL     1      26.339  15.588  -3.783  0.00  0.00    +0.400 C 
ATOM      3  N   UNL     1      26.779  14.315  -3.511  0.00  0.00    -0.278 N 
ATOM      4  H   UNL     1      26.438  13.750  -4.352  0.00  0.00    +0.152 HD
ATOM      5  O   UNL     1      25.873  15.815  -4.897  0.00  0.00    -0.226 OA
BRANCH   2   6
ATOM      6  O   UNL     1      26.432  16.433  -2.810  0.00  0.00    -0.450 OA
BRANCH   6   7
ATOM      7  C   UNL     1      27.157  17.591  -2.465  0.00  0.00    +0.240 C 
BRANCH   7   8
ATOM      8  C   UNL     1      27.491  17.804  -0.977  0.00  0.00    +0.100 C 
BRANCH   8  10
ATOM      9  N   UNL     1      29.928  17.414  -0.808  0.00  0.00    -0.134 NA
ATOM     10  C   UNL     1      28.650  16.979  -0.588  0.00  0.00    +0.086 A 
ATOM     11  C   UNL     1      28.694  15.739   0.011  0.00  0.00    +0.134 A 
ATOM     12  N   UNL     1      30.030  15.470   0.131  0.00  0.00    -0.244 N 
ATOM     13  N   UNL     1      30.763  16.487  -0.367  0.00  0.00    -0.065 NA
BRANCH  12  14
ATOM     14  C   UNL     1      30.670  14.280   0.708  0.00  0.00    +0.083 C 
ATOM     15  C   UNL     1      31.580  13.630  -0.351  0.00  0.00    +0.038 C 
ATOM     16  C   UNL     1      29.588  13.270   1.143  0.00  0.00    +0.038 C 
BRANCH  14  17
ATOM     17  C   UNL     1      31.552  14.641   1.934  0.00  0.00    +0.185 C 
BRANCH  17  18
ATOM     18  O   UNL     1      31.436  16.012   2.312  0.00  0.00    -0.393 OA
ATOM     19  H   UNL     1      30.606  16.078   2.830  0.00  0.00    +0.209 HD
ENDBRANCH  17  18
ENDBRANCH  14  17
ENDBRANCH  12  14
ENDBRANCH   8  10
ENDBRANCH   7   8
ENDBRANCH   6   7
ENDBRANCH   2   6
ENDBRANCH   1   3
BRANCH   1  20
ATOM     20  C   UNL     1      26.629  12.486  -1.742  0.00  0.00    +0.193 C 
ATOM     21  O   UNL     1      26.451  13.158  -0.475  0.00  0.00    -0.219 OA
BRANCH  20  22
ATOM     22  C   UNL     1      25.192  12.188  -2.225  0.00  0.00    +0.212 C 
ATOM     23  O   UNL     1      25.126  10.885  -2.827  0.00  0.00    -0.218 OA
BRANCH  22  24
ATOM     24  C   UNL     1      24.117  12.266  -1.074  0.00  0.00    +0.171 C 
ATOM     25  O   UNL     1      23.882  11.005  -0.457  0.00  0.00    -0.343 OA
ATOM     26  C   UNL     1      22.821  10.738   0.412  0.00  0.00    +0.220 C 
ATOM     27  C   UNL     1      21.473  11.183  -0.181  0.00  0.00    +0.076 C 
ATOM     28  C   UNL     1      21.614  12.657  -0.597  0.00  0.00    +0.177 C 
ATOM     29  O   UNL     1      20.380  13.132  -1.116  0.00  0.00    -0.221 OA
ATOM     30  C   UNL     1      22.766  12.814  -1.638  0.00  0.00    +0.155 C 
BRANCH  30  31
ATOM     31  N   UNL     1      22.899  14.211  -2.041  0.00  0.00    -0.202 NA
ATOM     32  C   UNL     1      22.767  14.777  -3.267  0.00  0.00    +0.242 C 
ATOM     33  C   UNL     1      22.664  16.278  -3.355  0.00  0.00    +0.096 C 
ATOM     34  O   UNL     1      22.734  14.062  -4.267  0.00  0.00    -0.273 OA
ENDBRANCH  30  31
BRANCH  26  35
ATOM     35  C   UNL     1      23.043  11.335   1.906  0.00  0.00    +0.391 C 
ATOM     36  O   UNL     1      21.801  11.544   2.384  0.00  0.00    -0.243 OA
ATOM     37  O   UNL     1      24.328  11.113   2.206  0.00  0.00    -0.243 OA
ENDBRANCH  26  35
ENDBRANCH  22  24
ENDBRANCH  20  22
ENDBRANCH   1  20
TORSDOF 13
