REMARK VINA RESULT:    -7.253      1.563      3.041
REMARK INTER + INTRA:         -14.051
REMARK INTER:                 -12.460
REMARK INTRA:                  -1.591
REMARK UNBOUND:                -2.133
REMARK  Name = lig_assembled_7.pdb
REMARK  14 active torsions:
REMARK  status: ('A' for Active; 'I' for Inactive)
REMARK    1  A    between atoms: _2  and  _8
REMARK    2  A    between atoms: _4  and  _15
REMARK    3  A    between atoms: _5  and  _6
REMARK    4  A    between atoms: _5  and  _16
REMARK    5  A    between atoms: _9  and  _10
REMARK    6  A    between atoms: _12  and  _13
REMARK    7  A    between atoms: _16  and  _18
REMARK    8  A    between atoms: _17  and  _22
REMARK    9  A    between atoms: _18  and  _21
REMARK   10  A    between atoms: _26  and  _36
REMARK   11  A    between atoms: _28  and  _29
REMARK   12  A    between atoms: _30  and  _32
REMARK   13  A    between atoms: _32  and  _34
REMARK   14  A    between atoms: _34  and  _36
REMARK                            x       y       z     vdW  Elec       q    Type
REMARK                         _______ _______ _______ _____ _____    ______ ____
ROOT
ATOM      1  C   UNL     1      28.187  17.248  -0.771  0.00  0.00    +0.400 C 
ATOM      2  N   UNL     1      28.942  16.280  -0.152  0.00  0.00    -0.278 N 
ATOM      3  H   UNL     1      29.211  16.733   0.778  0.00  0.00    +0.152 HD
ATOM      4  O   UNL     1      27.861  18.235  -0.116  0.00  0.00    -0.226 OA
ENDROOT
BRANCH   1   5
ATOM      5  O   UNL     1      27.916  17.036  -2.017  0.00  0.00    -0.450 OA
BRANCH   5   6
ATOM      6  C   UNL     1      26.965  17.418  -2.984  0.00  0.00    +0.240 C 
BRANCH   6   7
ATOM      7  C   UNL     1      26.627  16.401  -4.090  0.00  0.00    +0.100 C 
BRANCH   7   9
ATOM      8  N   UNL     1      25.961  14.029  -4.178  0.00  0.00    -0.134 NA
ATOM      9  C   UNL     1      25.976  15.213  -3.509  0.00  0.00    +0.086 A 
ATOM     10  C   UNL     1      25.322  15.050  -2.302  0.00  0.00    +0.139 A 
ATOM     11  N   UNL     1      24.878  13.744  -2.300  0.00  0.00    -0.219 N 
ATOM     12  N   UNL     1      25.324  13.142  -3.432  0.00  0.00    -0.061 NA
BRANCH  11  13
ATOM     13  C   UNL     1      24.094  13.047  -1.324  0.00  0.00    +0.073 A 
ATOM     14  C   UNL     1      24.753  12.316  -0.291  0.00  0.00    -0.024 A 
ATOM     15  C   UNL     1      23.989  11.626   0.676  0.00  0.00    +0.008 A 
ATOM     16  C   UNL     1      22.597  11.649   0.655  0.00  0.00    -0.050 A 
ATOM     17  C   UNL     1      21.816  10.908   1.699  0.00  0.00    +0.044 C 
ATOM     18  C   UNL     1      21.959  12.366  -0.353  0.00  0.00    +0.008 A 
ATOM     19  C   UNL     1      26.254  12.253  -0.106  0.00  0.00    +0.046 C 
ATOM     20  C   UNL     1      22.676  13.051  -1.361  0.00  0.00    -0.024 A 
ATOM     21  C   UNL     1      21.795  13.656  -2.427  0.00  0.00    +0.046 C 
ENDBRANCH  11  13
ENDBRANCH   7   9
ENDBRANCH   6   7
ENDBRANCH   5   6
ENDBRANCH   1   5
BRANCH   2  22
ATOM     22  C   UNL     1      29.514  14.936  -0.188  0.00  0.00    +0.152 C 
BRANCH  22  23
ATOM     23  C   UNL     1      31.051  14.850  -0.101  0.00  0.00    +0.193 C 
ATOM     24  O   UNL     1      31.569  16.076  -0.665  0.00  0.00    -0.219 OA
BRANCH  23  25
ATOM     25  C   UNL     1      31.684  14.776   1.306  0.00  0.00    +0.212 C 
ATOM     26  O   UNL     1      31.257  15.889   2.108  0.00  0.00    -0.218 OA
BRANCH  25  27
ATOM     27  C   UNL     1      31.345  13.442   2.074  0.00  0.00    +0.171 C 
ATOM     28  O   UNL     1      30.124  13.525   2.803  0.00  0.00    -0.343 OA
ATOM     29  C   UNL     1      29.710  12.591   3.755  0.00  0.00    +0.220 C 
ATOM     30  C   UNL     1      30.810  12.306   4.792  0.00  0.00    +0.076 C 
ATOM     31  C   UNL     1      32.084  11.923   4.021  0.00  0.00    +0.177 C 
ATOM     32  O   UNL     1      33.125  11.610   4.936  0.00  0.00    -0.221 OA
ATOM     33  C   UNL     1      32.501  13.081   3.063  0.00  0.00    +0.155 C 
BRANCH  33  34
ATOM     34  N   UNL     1      33.716  12.724   2.334  0.00  0.00    -0.202 NA
ATOM     35  C   UNL     1      34.945  13.298   2.361  0.00  0.00    +0.242 C 
ATOM     36  C   UNL     1      36.097  12.553   1.738  0.00  0.00    +0.096 C 
ATOM     37  O   UNL     1      35.090  14.399   2.890  0.00  0.00    -0.273 OA
ENDBRANCH  33  34
BRANCH  29  38
ATOM     38  C   UNL     1      29.132  11.218   3.106  0.00  0.00    +0.391 C 
ATOM     39  O   UNL     1      29.244  11.390   1.774  0.00  0.00    -0.243 OA
ATOM     40  O   UNL     1      29.049  10.339   4.112  0.00  0.00    -0.243 OA
ENDBRANCH  29  38
ENDBRANCH  25  27
ENDBRANCH  23  25
ENDBRANCH  22  23
ENDBRANCH   2  22
TORSDOF 11
