REMARK VINA RESULT:    -7.160      2.671     10.329
REMARK INTER + INTRA:         -16.041
REMARK INTER:                 -11.737
REMARK INTRA:                  -4.304
REMARK UNBOUND:                -3.231
REMARK  Name = lig_assembled_34.pdb
REMARK  14 active torsions:
REMARK  status: ('A' for Active; 'I' for Inactive)
REMARK    1  A    between atoms: _2  and  _8
REMARK    2  A    between atoms: _5  and  _6
REMARK    3  A    between atoms: _5  and  _32
REMARK    4  A    between atoms: _10  and  _11
REMARK    5  A    between atoms: _12  and  _13
REMARK    6  A    between atoms: _17  and  _30
REMARK    7  A    between atoms: _32  and  _34
REMARK    8  A    between atoms: _33  and  _38
REMARK    9  A    between atoms: _34  and  _37
REMARK   10  A    between atoms: _42  and  _52
REMARK   11  A    between atoms: _44  and  _45
REMARK   12  A    between atoms: _46  and  _48
REMARK   13  A    between atoms: _48  and  _50
REMARK   14  A    between atoms: _50  and  _52
REMARK                            x       y       z     vdW  Elec       q    Type
REMARK                         _______ _______ _______ _____ _____    ______ ____
ROOT
ATOM      1  N   UNL     1      32.577  14.675  -1.100  0.00  0.00    -0.134 NA
ATOM      2  C   UNL     1      32.865  13.389  -1.458  0.00  0.00    +0.086 A 
ATOM      3  C   UNL     1      31.708  12.649  -1.428  0.00  0.00    +0.139 A 
ATOM      4  N   UNL     1      30.713  13.533  -1.070  0.00  0.00    -0.220 N 
ATOM      5  N   UNL     1      31.271  14.755  -0.851  0.00  0.00    -0.061 NA
ENDROOT
BRANCH   4   6
ATOM      6  C   UNL     1      29.318  13.289  -0.976  0.00  0.00    +0.068 A 
ATOM      7  C   UNL     1      28.796  12.073  -1.433  0.00  0.00    +0.038 A 
ATOM      8  C   UNL     1      27.405  11.812  -1.489  0.00  0.00    +0.007 A 
ATOM      9  C   UNL     1      26.517  12.787  -0.994  0.00  0.00    -0.008 A 
ATOM     10  C   UNL     1      27.055  13.995  -0.488  0.00  0.00    +0.011 A 
ATOM     11  C   UNL     1      28.437  14.255  -0.492  0.00  0.00    +0.028 A 
BRANCH   9  12
ATOM     12  C   UNL     1      25.021  12.678  -1.036  0.00  0.00    +0.004 A 
ATOM     13  C   UNL     1      24.300  12.137  -0.014  0.00  0.00    +0.026 A 
ATOM     14  C   UNL     1      24.928  11.562   1.183  0.00  0.00    +0.016 A 
ATOM     15  C   UNL     1      24.216  10.870   2.085  0.00  0.00    +0.051 A 
ATOM     16  C   UNL     1      22.754  10.692   1.917  0.00  0.00    +0.183 A 
ATOM     17  O   UNL     1      22.100  10.007   2.701  0.00  0.00    -0.288 OA
ATOM     18  C   UNL     1      22.099  11.430   0.819  0.00  0.00    +0.097 A 
ATOM     19  C   UNL     1      22.825  12.133  -0.060  0.00  0.00    +0.140 A 
ATOM     20  O   UNL     1      22.157  12.920  -0.986  0.00  0.00    -0.455 OA
ATOM     21  C   UNL     1      22.866  13.436  -2.038  0.00  0.00    +0.140 A 
ATOM     22  C   UNL     1      22.130  14.143  -2.990  0.00  0.00    +0.092 A 
ATOM     23  C   UNL     1      22.773  14.642  -4.111  0.00  0.00    +0.120 A 
ATOM     24  C   UNL     1      24.121  14.376  -4.329  0.00  0.00    +0.046 A 
ATOM     25  C   UNL     1      24.847  13.678  -3.359  0.00  0.00    +0.016 A 
ATOM     26  C   UNL     1      24.240  13.253  -2.168  0.00  0.00    +0.026 A 
BRANCH  23  27
ATOM     27  O   UNL     1      22.054  15.407  -4.982  0.00  0.00    -0.507 OA
ATOM     28  H   UNL     1      22.135  16.331  -4.698  0.00  0.00    +0.292 HD
ENDBRANCH  23  27
ENDBRANCH   9  12
BRANCH   8  29
ATOM     29  C   UNL     1      26.987  10.516  -2.156  0.00  0.00    +0.072 C 
ATOM     30  O   UNL     1      27.165   9.454  -1.477  0.00  0.00    -0.545 OA
ATOM     31  O   UNL     1      26.572  10.563  -3.352  0.00  0.00    -0.545 OA
ENDBRANCH   8  29
ENDBRANCH   4   6
BRANCH   2  32
ATOM     32  C   UNL     1      34.230  12.951  -1.809  0.00  0.00    +0.100 C 
BRANCH  32  33
ATOM     33  C   UNL     1      35.275  13.669  -0.934  0.00  0.00    +0.240 C 
BRANCH  33  34
ATOM     34  O   UNL     1      35.888  12.922   0.091  0.00  0.00    -0.450 OA
BRANCH  34  35
ATOM     35  C   UNL     1      35.561  12.265   1.156  0.00  0.00    +0.400 C 
ATOM     36  N   UNL     1      35.127  13.027   2.215  0.00  0.00    -0.278 N 
ATOM     37  H   UNL     1      34.731  12.302   2.894  0.00  0.00    +0.152 HD
ATOM     38  O   UNL     1      35.576  11.044   1.287  0.00  0.00    -0.226 OA
BRANCH  36  39
ATOM     39  C   UNL     1      34.981  14.348   2.821  0.00  0.00    +0.152 C 
BRANCH  39  40
ATOM     40  C   UNL     1      33.883  14.485   3.895  0.00  0.00    +0.193 C 
ATOM     41  O   UNL     1      33.558  15.891   3.980  0.00  0.00    -0.219 OA
BRANCH  40  42
ATOM     42  C   UNL     1      32.529  13.793   3.627  0.00  0.00    +0.212 C 
ATOM     43  O   UNL     1      32.410  13.444   2.238  0.00  0.00    -0.218 OA
BRANCH  42  44
ATOM     44  C   UNL     1      32.309  12.494   4.493  0.00  0.00    +0.171 C 
ATOM     45  O   UNL     1      33.477  11.685   4.573  0.00  0.00    -0.343 OA
ATOM     46  C   UNL     1      33.498  10.377   5.064  0.00  0.00    +0.220 C 
ATOM     47  C   UNL     1      32.416   9.503   4.405  0.00  0.00    +0.076 C 
ATOM     48  C   UNL     1      31.072  10.233   4.565  0.00  0.00    +0.177 C 
ATOM     49  O   UNL     1      30.028   9.448   4.007  0.00  0.00    -0.221 OA
ATOM     50  C   UNL     1      31.142  11.641   3.895  0.00  0.00    +0.155 C 
BRANCH  50  51
ATOM     51  N   UNL     1      29.865  12.335   4.039  0.00  0.00    -0.202 NA
ATOM     52  C   UNL     1      28.791  12.356   3.209  0.00  0.00    +0.242 C 
ATOM     53  C   UNL     1      27.492  12.911   3.734  0.00  0.00    +0.096 C 
ATOM     54  O   UNL     1      28.900  11.926   2.063  0.00  0.00    -0.273 OA
ENDBRANCH  50  51
BRANCH  46  55
ATOM     55  C   UNL     1      33.429  10.293   6.684  0.00  0.00    +0.391 C 
ATOM     56  O   UNL     1      32.877   9.092   6.947  0.00  0.00    -0.243 OA
ATOM     57  O   UNL     1      34.203  11.286   7.140  0.00  0.00    -0.243 OA
ENDBRANCH  46  55
ENDBRANCH  42  44
ENDBRANCH  40  42
ENDBRANCH  39  40
ENDBRANCH  36  39
ENDBRANCH  34  35
ENDBRANCH  33  34
ENDBRANCH  32  33
ENDBRANCH   2  32
TORSDOF 14
