REMARK VINA RESULT:    -6.671      3.217      6.920
REMARK INTER + INTRA:         -12.960
REMARK INTER:                 -11.414
REMARK INTRA:                  -1.546
REMARK UNBOUND:                -1.999
REMARK  Name = lig_assembled_57.pdb
REMARK  12 active torsions:
REMARK  status: ('A' for Active; 'I' for Inactive)
REMARK    1  A    between atoms: _2  and  _9
REMARK    2  A    between atoms: _3  and  _12
REMARK    3  A    between atoms: _6  and  _7
REMARK    4  A    between atoms: _6  and  _14
REMARK    5  A    between atoms: _14  and  _16
REMARK    6  A    between atoms: _15  and  _20
REMARK    7  A    between atoms: _16  and  _19
REMARK    8  A    between atoms: _24  and  _34
REMARK    9  A    between atoms: _26  and  _27
REMARK   10  A    between atoms: _28  and  _30
REMARK   11  A    between atoms: _30  and  _32
REMARK   12  A    between atoms: _32  and  _34
REMARK                            x       y       z     vdW  Elec       q    Type
REMARK                         _______ _______ _______ _____ _____    ______ ____
ROOT
ATOM      1  C   UNL     1      28.304  17.589  -0.636  0.00  0.00    +0.400 C 
ATOM      2  N   UNL     1      29.464  17.527   0.100  0.00  0.00    -0.278 N 
ATOM      3  H   UNL     1      29.430  18.417   0.690  0.00  0.00    +0.152 HD
ATOM      4  O   UNL     1      27.480  18.453  -0.347  0.00  0.00    -0.226 OA
ENDROOT
BRANCH   1   5
ATOM      5  O   UNL     1      28.205  16.732  -1.599  0.00  0.00    -0.450 OA
BRANCH   5   6
ATOM      6  C   UNL     1      27.455  15.590  -1.941  0.00  0.00    +0.240 C 
BRANCH   6   7
ATOM      7  C   UNL     1      26.370  15.749  -3.022  0.00  0.00    +0.100 C 
BRANCH   7   9
ATOM      8  N   UNL     1      25.224  13.803  -2.022  0.00  0.00    -0.134 NA
ATOM      9  C   UNL     1      25.149  15.030  -2.620  0.00  0.00    +0.086 A 
ATOM     10  C   UNL     1      23.824  15.402  -2.720  0.00  0.00    +0.134 A 
ATOM     11  N   UNL     1      23.148  14.402  -2.086  0.00  0.00    -0.248 N 
ATOM     12  N   UNL     1      23.994  13.410  -1.734  0.00  0.00    -0.065 NA
BRANCH  11  13
ATOM     13  C   UNL     1      21.747  14.290  -1.699  0.00  0.00    +0.111 C 
ATOM     14  C   UNL     1      20.840  14.959  -2.743  0.00  0.00    +0.042 C 
ATOM     15  C   UNL     1      20.741  14.095  -3.998  0.00  0.00    +0.086 C 
ATOM     16  N   UNL     1      20.213  12.753  -3.729  0.00  0.00    -0.305 NA
ATOM     17  C   UNL     1      20.967  12.051  -2.689  0.00  0.00    +0.086 C 
ATOM     18  C   UNL     1      18.775  12.762  -3.479  0.00  0.00    +0.104 C 
ATOM     19  C   UNL     1      21.231  12.870  -1.417  0.00  0.00    +0.042 C 
ENDBRANCH  11  13
ENDBRANCH   7   9
ENDBRANCH   6   7
ENDBRANCH   5   6
ENDBRANCH   1   5
BRANCH   2  20
ATOM     20  C   UNL     1      30.685  16.801   0.438  0.00  0.00    +0.152 C 
BRANCH  20  21
ATOM     21  C   UNL     1      30.663  15.279   0.189  0.00  0.00    +0.193 C 
ATOM     22  O   UNL     1      31.594  15.020  -0.885  0.00  0.00    -0.219 OA
BRANCH  21  23
ATOM     23  C   UNL     1      31.133  14.359   1.337  0.00  0.00    +0.212 C 
ATOM     24  O   UNL     1      31.494  15.139   2.489  0.00  0.00    -0.218 OA
BRANCH  23  25
ATOM     25  C   UNL     1      30.052  13.295   1.767  0.00  0.00    +0.171 C 
ATOM     26  O   UNL     1      28.855  13.896   2.250  0.00  0.00    -0.343 OA
ATOM     27  C   UNL     1      27.840  13.204   2.917  0.00  0.00    +0.220 C 
ATOM     28  C   UNL     1      28.393  12.358   4.076  0.00  0.00    +0.076 C 
ATOM     29  C   UNL     1      29.515  11.472   3.509  0.00  0.00    +0.177 C 
ATOM     30  O   UNL     1      30.035  10.638   4.534  0.00  0.00    -0.221 OA
ATOM     31  C   UNL     1      30.633  12.359   2.877  0.00  0.00    +0.155 C 
BRANCH  31  32
ATOM     32  N   UNL     1      31.703  11.522   2.343  0.00  0.00    -0.202 NA
ATOM     33  C   UNL     1      33.003  11.427   2.724  0.00  0.00    +0.242 C 
ATOM     34  C   UNL     1      33.819  10.273   2.202  0.00  0.00    +0.096 C 
ATOM     35  O   UNL     1      33.478  12.273   3.478  0.00  0.00    -0.273 OA
ENDBRANCH  31  32
BRANCH  27  36
ATOM     36  C   UNL     1      26.901  12.322   1.928  0.00  0.00    +0.391 C 
ATOM     37  O   UNL     1      26.136  11.576   2.749  0.00  0.00    -0.243 OA
ATOM     38  O   UNL     1      27.022  12.872   0.714  0.00  0.00    -0.243 OA
ENDBRANCH  27  36
ENDBRANCH  23  25
ENDBRANCH  21  23
ENDBRANCH  20  21
ENDBRANCH   2  20
TORSDOF 11
