REMARK VINA RESULT:    -7.563      2.141      2.847
REMARK INTER + INTRA:         -15.805
REMARK INTER:                 -13.165
REMARK INTRA:                  -2.640
REMARK UNBOUND:                -2.494
REMARK  Name = lig_assembled_79.pdb
REMARK  15 active torsions:
REMARK  status: ('A' for Active; 'I' for Inactive)
REMARK    1  A    between atoms: _2  and  _9
REMARK    2  A    between atoms: _6  and  _7
REMARK    3  A    between atoms: _6  and  _21
REMARK    4  A    between atoms: _9  and  _10
REMARK    5  A    between atoms: _9  and  _11
REMARK    6  A    between atoms: _9  and  _12
REMARK    7  A    between atoms: _12  and  _13
REMARK    8  A    between atoms: _21  and  _23
REMARK    9  A    between atoms: _22  and  _27
REMARK   10  A    between atoms: _23  and  _26
REMARK   11  A    between atoms: _31  and  _41
REMARK   12  A    between atoms: _33  and  _34
REMARK   13  A    between atoms: _35  and  _37
REMARK   14  A    between atoms: _37  and  _39
REMARK   15  A    between atoms: _39  and  _41
REMARK                            x       y       z     vdW  Elec       q    Type
REMARK                         _______ _______ _______ _____ _____    ______ ____
ROOT
ATOM      1  O   UNL     1      27.909  16.234  -1.632  0.00  0.00    -0.450 OA
ENDROOT
BRANCH   1   2
ATOM      2  C   UNL     1      28.883  16.126  -0.788  0.00  0.00    +0.400 C 
ATOM      3  N   UNL     1      29.063  14.877  -0.243  0.00  0.00    -0.278 N 
ATOM      4  H   UNL     1      30.007  14.957   0.252  0.00  0.00    +0.152 HD
ATOM      5  O   UNL     1      29.663  17.018  -0.463  0.00  0.00    -0.226 OA
BRANCH   3   6
ATOM      6  C   UNL     1      28.549  13.527  -0.028  0.00  0.00    +0.152 C 
BRANCH   6   7
ATOM      7  C   UNL     1      28.946  12.473  -1.082  0.00  0.00    +0.193 C 
ATOM      8  O   UNL     1      28.907  13.134  -2.366  0.00  0.00    -0.219 OA
BRANCH   7   9
ATOM      9  C   UNL     1      30.369  11.879  -0.998  0.00  0.00    +0.212 C 
ATOM     10  O   UNL     1      30.379  10.529  -1.492  0.00  0.00    -0.218 OA
BRANCH   9  11
ATOM     11  C   UNL     1      31.443  12.715  -1.794  0.00  0.00    +0.171 C 
ATOM     12  O   UNL     1      32.056  11.966  -2.838  0.00  0.00    -0.343 OA
ATOM     13  C   UNL     1      33.197  12.372  -3.534  0.00  0.00    +0.220 C 
ATOM     14  C   UNL     1      34.331  12.783  -2.579  0.00  0.00    +0.076 C 
ATOM     15  C   UNL     1      33.760  13.828  -1.606  0.00  0.00    +0.177 C 
ATOM     16  O   UNL     1      34.781  14.272  -0.724  0.00  0.00    -0.221 OA
ATOM     17  C   UNL     1      32.554  13.227  -0.819  0.00  0.00    +0.155 C 
BRANCH  17  18
ATOM     18  N   UNL     1      32.013  14.214   0.112  0.00  0.00    -0.202 NA
ATOM     19  C   UNL     1      31.971  14.195   1.468  0.00  0.00    +0.242 C 
ATOM     20  C   UNL     1      31.626  15.472   2.191  0.00  0.00    +0.096 C 
ATOM     21  O   UNL     1      32.214  13.151   2.069  0.00  0.00    -0.273 OA
ENDBRANCH  17  18
BRANCH  13  22
ATOM     22  C   UNL     1      32.903  13.523  -4.643  0.00  0.00    +0.391 C 
ATOM     23  O   UNL     1      34.045  14.235  -4.715  0.00  0.00    -0.243 OA
ATOM     24  O   UNL     1      31.780  13.154  -5.270  0.00  0.00    -0.243 OA
ENDBRANCH  13  22
ENDBRANCH   9  11
ENDBRANCH   7   9
ENDBRANCH   6   7
ENDBRANCH   3   6
ENDBRANCH   1   2
BRANCH   1  25
ATOM     25  C   UNL     1      27.094  17.232  -2.201  0.00  0.00    +0.240 C 
BRANCH  25  26
ATOM     26  C   UNL     1      26.931  17.228  -3.732  0.00  0.00    +0.100 C 
BRANCH  26  28
ATOM     27  N   UNL     1      26.064  15.526  -5.292  0.00  0.00    -0.134 NA
ATOM     28  C   UNL     1      25.922  16.230  -4.132  0.00  0.00    +0.086 A 
ATOM     29  C   UNL     1      24.758  15.845  -3.509  0.00  0.00    +0.134 A 
ATOM     30  N   UNL     1      24.270  14.832  -4.286  0.00  0.00    -0.238 N 
ATOM     31  N   UNL     1      25.029  14.707  -5.404  0.00  0.00    -0.065 NA
BRANCH  30  32
ATOM     32  C   UNL     1      23.003  14.049  -4.190  0.00  0.00    +0.122 C 
ATOM     33  C   UNL     1      23.411  12.558  -4.140  0.00  0.00    +0.044 C 
ATOM     34  C   UNL     1      22.190  14.454  -5.435  0.00  0.00    +0.044 C 
BRANCH  32  35
ATOM     35  C   UNL     1      22.191  14.348  -2.913  0.00  0.00    +0.192 C 
ATOM     36  O   UNL     1      21.561  15.404  -2.808  0.00  0.00    -0.289 OA
BRANCH  35  37
ATOM     37  C   UNL     1      22.143  13.410  -1.754  0.00  0.00    +0.045 A 
ATOM     38  C   UNL     1      20.915  12.946  -1.291  0.00  0.00    +0.095 A 
ATOM     39  N   UNL     1      21.109  12.131  -0.217  0.00  0.00    -0.360 N 
ATOM     40  H   UNL     1      20.376  11.674   0.309  0.00  0.00    +0.165 HD
ATOM     41  C   UNL     1      22.447  12.028   0.059  0.00  0.00    +0.047 A 
ATOM     42  C   UNL     1      23.081  11.303   1.079  0.00  0.00    +0.026 A 
ATOM     43  C   UNL     1      24.471  11.359   1.163  0.00  0.00    +0.002 A 
ATOM     44  C   UNL     1      25.199  12.110   0.254  0.00  0.00    +0.001 A 
ATOM     45  C   UNL     1      24.549  12.825  -0.758  0.00  0.00    +0.011 A 
ATOM     46  C   UNL     1      23.135  12.805  -0.883  0.00  0.00    +0.010 A 
ENDBRANCH  35  37
ENDBRANCH  32  35
ENDBRANCH  30  32
ENDBRANCH  26  28
ENDBRANCH  25  26
ENDBRANCH   1  25
TORSDOF 13
