REMARK VINA RESULT:    -7.642      1.599      2.023
REMARK INTER + INTRA:         -14.917
REMARK INTER:                 -13.243
REMARK INTRA:                  -1.674
REMARK UNBOUND:                -1.466
REMARK  Name = lig_assembled_78.pdb
REMARK  13 active torsions:
REMARK  status: ('A' for Active; 'I' for Inactive)
REMARK    1  A    between atoms: _2  and  _8
REMARK    2  A    between atoms: _5  and  _6
REMARK    3  A    between atoms: _5  and  _16
REMARK    4  A    between atoms: _8  and  _44
REMARK    5  A    between atoms: _9  and  _44
REMARK    6  A    between atoms: _16  and  _18
REMARK    7  A    between atoms: _17  and  _22
REMARK    8  A    between atoms: _18  and  _21
REMARK    9  A    between atoms: _26  and  _36
REMARK   10  A    between atoms: _28  and  _29
REMARK   11  A    between atoms: _30  and  _32
REMARK   12  A    between atoms: _32  and  _34
REMARK   13  A    between atoms: _34  and  _36
REMARK                            x       y       z     vdW  Elec       q    Type
REMARK                         _______ _______ _______ _____ _____    ______ ____
ROOT
ATOM      1  C   UNL     1      28.837  17.113  -0.485  0.00  0.00    +0.400 C 
ATOM      2  N   UNL     1      29.097  15.998   0.276  0.00  0.00    -0.278 N 
ATOM      3  H   UNL     1      29.792  16.354   1.006  0.00  0.00    +0.152 HD
ATOM      4  O   UNL     1      29.259  18.196  -0.089  0.00  0.00    -0.226 OA
ENDROOT
BRANCH   2   5
ATOM      5  C   UNL     1      28.846  14.583   0.537  0.00  0.00    +0.152 C 
BRANCH   5   6
ATOM      6  C   UNL     1      29.980  13.809   1.239  0.00  0.00    +0.193 C 
ATOM      7  O   UNL     1      30.212  12.614   0.461  0.00  0.00    -0.219 OA
BRANCH   6   8
ATOM      8  C   UNL     1      31.365  14.489   1.322  0.00  0.00    +0.212 C 
ATOM      9  O   UNL     1      31.343  15.557   2.284  0.00  0.00    -0.218 OA
BRANCH   8  10
ATOM     10  C   UNL     1      32.527  13.494   1.701  0.00  0.00    +0.171 C 
ATOM     11  O   UNL     1      32.953  13.637   3.052  0.00  0.00    -0.343 OA
ATOM     12  C   UNL     1      34.113  13.064   3.578  0.00  0.00    +0.220 C 
ATOM     13  C   UNL     1      35.344  13.365   2.707  0.00  0.00    +0.076 C 
ATOM     14  C   UNL     1      35.008  12.941   1.268  0.00  0.00    +0.177 C 
ATOM     15  O   UNL     1      36.130  13.161   0.425  0.00  0.00    -0.221 OA
ATOM     16  C   UNL     1      33.754  13.718   0.757  0.00  0.00    +0.155 C 
BRANCH  16  17
ATOM     17  N   UNL     1      33.435  13.322  -0.612  0.00  0.00    -0.202 NA
ATOM     18  C   UNL     1      33.313  14.084  -1.729  0.00  0.00    +0.242 C 
ATOM     19  C   UNL     1      33.269  13.391  -3.066  0.00  0.00    +0.096 C 
ATOM     20  O   UNL     1      33.243  15.307  -1.626  0.00  0.00    -0.273 OA
ENDBRANCH  16  17
BRANCH  12  21
ATOM     21  C   UNL     1      33.969  11.474   3.879  0.00  0.00    +0.391 C 
ATOM     22  O   UNL     1      35.230  11.042   4.077  0.00  0.00    -0.243 OA
ATOM     23  O   UNL     1      32.668  11.258   4.113  0.00  0.00    -0.243 OA
ENDBRANCH  12  21
ENDBRANCH   8  10
ENDBRANCH   6   8
ENDBRANCH   5   6
ENDBRANCH   2   5
BRANCH   1  24
ATOM     24  O   UNL     1      28.186  16.902  -1.582  0.00  0.00    -0.450 OA
BRANCH  24  25
ATOM     25  C   UNL     1      27.080  17.420  -2.284  0.00  0.00    +0.240 C 
BRANCH  25  26
ATOM     26  C   UNL     1      27.022  17.169  -3.803  0.00  0.00    +0.100 C 
BRANCH  26  28
ATOM     27  N   UNL     1      25.889  15.574  -5.325  0.00  0.00    -0.134 NA
ATOM     28  C   UNL     1      25.927  16.235  -4.126  0.00  0.00    +0.086 A 
ATOM     29  C   UNL     1      24.834  15.864  -3.376  0.00  0.00    +0.135 A 
ATOM     30  N   UNL     1      24.205  14.935  -4.148  0.00  0.00    -0.230 N 
ATOM     31  N   UNL     1      24.816  14.797  -5.337  0.00  0.00    -0.064 NA
BRANCH  30  32
ATOM     32  C   UNL     1      22.994  14.202  -3.870  0.00  0.00    +0.316 C 
BRANCH  32  33
ATOM     33  S   UNL     1      23.277  12.527  -3.362  0.00  0.00    +0.017 S 
ATOM     34  O   UNL     1      22.611  11.616  -4.273  0.00  0.00    -0.168 OA
ATOM     35  O   UNL     1      24.692  12.382  -3.065  0.00  0.00    -0.168 OA
BRANCH  33  36
ATOM     36  C   UNL     1      22.406  12.389  -1.815  0.00  0.00    +0.090 A 
ATOM     37  C   UNL     1      22.876  11.499  -0.844  0.00  0.00    +0.027 A 
ATOM     38  C   UNL     1      22.212  11.406   0.379  0.00  0.00    +0.002 A 
ATOM     39  C   UNL     1      21.099  12.210   0.632  0.00  0.00    +0.000 A 
ATOM     40  C   UNL     1      20.647  13.111  -0.333  0.00  0.00    +0.002 A 
ATOM     41  C   UNL     1      21.300  13.203  -1.562  0.00  0.00    +0.027 A 
ENDBRANCH  33  36
ENDBRANCH  32  33
ENDBRANCH  30  32
ENDBRANCH  26  28
ENDBRANCH  25  26
ENDBRANCH  24  25
ENDBRANCH   1  24
TORSDOF 13
