REMARK VINA RESULT:    -6.976      2.234     10.801
REMARK INTER + INTRA:         -14.952
REMARK INTER:                 -12.232
REMARK INTRA:                  -2.720
REMARK UNBOUND:                -1.860
REMARK  Name = lig_assembled_37.pdb
REMARK  16 active torsions:
REMARK  status: ('A' for Active; 'I' for Inactive)
REMARK    1  A    between atoms: _2  and  _8
REMARK    2  A    between atoms: _5  and  _6
REMARK    3  A    between atoms: _5  and  _19
REMARK    4  A    between atoms: _8  and  _9
REMARK    5  A    between atoms: _8  and  _10
REMARK    6  A    between atoms: _10  and  _17
REMARK    7  A    between atoms: _11  and  _12
REMARK    8  A    between atoms: _11  and  _17
REMARK    9  A    between atoms: _19  and  _21
REMARK   10  A    between atoms: _20  and  _25
REMARK   11  A    between atoms: _21  and  _24
REMARK   12  A    between atoms: _29  and  _39
REMARK   13  A    between atoms: _31  and  _32
REMARK   14  A    between atoms: _33  and  _35
REMARK   15  A    between atoms: _35  and  _37
REMARK   16  A    between atoms: _37  and  _39
REMARK                            x       y       z     vdW  Elec       q    Type
REMARK                         _______ _______ _______ _____ _____    ______ ____
ROOT
ATOM      1  C   UNL     1      27.843  17.344  -1.370  0.00  0.00    +0.400 C 
ATOM      2  N   UNL     1      26.942  16.513  -1.992  0.00  0.00    -0.278 N 
ATOM      3  H   UNL     1      26.044  17.092  -2.014  0.00  0.00    +0.152 HD
ATOM      4  O   UNL     1      27.513  18.511  -1.172  0.00  0.00    -0.226 OA
ENDROOT
BRANCH   2   5
ATOM      5  C   UNL     1      26.671  15.229  -2.634  0.00  0.00    +0.152 C 
BRANCH   5   6
ATOM      6  C   UNL     1      25.682  15.256  -3.818  0.00  0.00    +0.193 C 
ATOM      7  O   UNL     1      26.478  15.302  -5.023  0.00  0.00    -0.219 OA
BRANCH   6   8
ATOM      8  C   UNL     1      24.763  14.030  -4.010  0.00  0.00    +0.212 C 
ATOM      9  O   UNL     1      25.499  12.934  -4.577  0.00  0.00    -0.218 OA
BRANCH   8  10
ATOM     10  C   UNL     1      24.085  13.542  -2.672  0.00  0.00    +0.171 C 
ATOM     11  O   UNL     1      24.529  12.249  -2.274  0.00  0.00    -0.343 OA
ATOM     12  C   UNL     1      23.923  11.481  -1.276  0.00  0.00    +0.220 C 
ATOM     13  C   UNL     1      22.403  11.367  -1.488  0.00  0.00    +0.076 C 
ATOM     14  C   UNL     1      21.848  12.794  -1.633  0.00  0.00    +0.177 C 
ATOM     15  O   UNL     1      20.437  12.747  -1.792  0.00  0.00    -0.221 OA
ATOM     16  C   UNL     1      22.530  13.516  -2.837  0.00  0.00    +0.155 C 
BRANCH  16  17
ATOM     17  N   UNL     1      22.000  14.869  -2.983  0.00  0.00    -0.202 NA
ATOM     18  C   UNL     1      21.386  15.451  -4.044  0.00  0.00    +0.242 C 
ATOM     19  C   UNL     1      20.674  16.761  -3.829  0.00  0.00    +0.096 C 
ATOM     20  O   UNL     1      21.422  14.901  -5.143  0.00  0.00    -0.273 OA
ENDBRANCH  16  17
BRANCH  12  21
ATOM     21  C   UNL     1      24.280  11.978   0.229  0.00  0.00    +0.391 C 
ATOM     22  O   UNL     1      23.365  11.382   1.018  0.00  0.00    -0.243 OA
ATOM     23  O   UNL     1      25.498  12.529   0.157  0.00  0.00    -0.243 OA
ENDBRANCH  12  21
ENDBRANCH   8  10
ENDBRANCH   6   8
ENDBRANCH   5   6
ENDBRANCH   2   5
BRANCH   1  24
ATOM     24  O   UNL     1      28.960  16.797  -1.020  0.00  0.00    -0.450 OA
BRANCH  24  25
ATOM     25  C   UNL     1      29.430  15.780  -0.166  0.00  0.00    +0.240 C 
BRANCH  25  26
ATOM     26  C   UNL     1      30.773  16.018   0.551  0.00  0.00    +0.100 C 
BRANCH  26  28
ATOM     27  N   UNL     1      30.277  13.796   1.529  0.00  0.00    -0.134 NA
ATOM     28  C   UNL     1      31.047  14.927   1.505  0.00  0.00    +0.086 A 
ATOM     29  C   UNL     1      32.029  14.824   2.465  0.00  0.00    +0.134 A 
ATOM     30  N   UNL     1      31.787  13.621   3.059  0.00  0.00    -0.238 N 
ATOM     31  N   UNL     1      30.743  12.997   2.480  0.00  0.00    -0.065 NA
BRANCH  30  32
ATOM     32  C   UNL     1      32.518  12.955   4.120  0.00  0.00    +0.214 C 
ATOM     33  C   UNL     1      31.859  11.632   4.508  0.00  0.00    +0.045 C 
BRANCH  32  34
ATOM     34  C   UNL     1      33.961  12.726   3.728  0.00  0.00    +0.332 C 
ATOM     35  O   UNL     1      34.919  13.202   4.328  0.00  0.00    -0.248 OA
BRANCH  34  36
ATOM     36  O   UNL     1      34.051  11.930   2.629  0.00  0.00    -0.458 OA
BRANCH  36  37
ATOM     37  C   UNL     1      34.980  12.351   1.618  0.00  0.00    +0.267 C 
BRANCH  37  38
ATOM     38  C   UNL     1      34.232  12.890   0.426  0.00  0.00    -0.010 A 
ATOM     39  C   UNL     1      33.158  12.175  -0.122  0.00  0.00    +0.007 A 
ATOM     40  C   UNL     1      32.447  12.687  -1.209  0.00  0.00    +0.000 A 
ATOM     41  C   UNL     1      32.802  13.917  -1.761  0.00  0.00    +0.000 A 
ATOM     42  C   UNL     1      33.873  14.634  -1.228  0.00  0.00    +0.000 A 
ATOM     43  C   UNL     1      34.587  14.123  -0.141  0.00  0.00    +0.007 A 
ENDBRANCH  37  38
ENDBRANCH  36  37
ENDBRANCH  34  36
ENDBRANCH  32  34
ENDBRANCH  30  32
ENDBRANCH  26  28
ENDBRANCH  25  26
ENDBRANCH  24  25
ENDBRANCH   1  24
TORSDOF 15
