REMARK VINA RESULT:    -6.268      2.332      4.432
REMARK INTER + INTRA:         -14.514
REMARK INTER:                 -11.956
REMARK INTRA:                  -2.559
REMARK UNBOUND:                -3.117
REMARK  Name = lig_assembled_9.pdb
REMARK  15 active torsions:
REMARK  status: ('A' for Active; 'I' for Inactive)
REMARK    1  A    between atoms: _2  and  _8
REMARK    2  A    between atoms: _5  and  _6
REMARK    3  A    between atoms: _5  and  _18
REMARK    4  A    between atoms: _10  and  _11
REMARK    5  A    between atoms: _11  and  _16
REMARK    6  A    between atoms: _12  and  _13
REMARK    7  A    between atoms: _12  and  _16
REMARK    8  A    between atoms: _18  and  _20
REMARK    9  A    between atoms: _19  and  _24
REMARK   10  A    between atoms: _20  and  _23
REMARK   11  A    between atoms: _28  and  _38
REMARK   12  A    between atoms: _30  and  _31
REMARK   13  A    between atoms: _32  and  _34
REMARK   14  A    between atoms: _34  and  _36
REMARK   15  A    between atoms: _36  and  _38
REMARK                            x       y       z     vdW  Elec       q    Type
REMARK                         _______ _______ _______ _____ _____    ______ ____
ROOT
ATOM      1  C   UNL     1      27.431  13.079   2.497  0.00  0.00    +0.400 C 
ATOM      2  N   UNL     1      27.721  13.663   1.286  0.00  0.00    -0.278 N 
ATOM      3  H   UNL     1      28.156  14.599   1.560  0.00  0.00    +0.152 HD
ATOM      4  O   UNL     1      27.863  13.613   3.515  0.00  0.00    -0.226 OA
ENDROOT
BRANCH   2   5
ATOM      5  C   UNL     1      27.714  13.573  -0.172  0.00  0.00    +0.152 C 
BRANCH   5   6
ATOM      6  C   UNL     1      28.976  12.968  -0.822  0.00  0.00    +0.193 C 
ATOM      7  O   UNL     1      28.726  12.914  -2.243  0.00  0.00    -0.219 OA
BRANCH   6   8
ATOM      8  C   UNL     1      30.296  13.759  -0.692  0.00  0.00    +0.212 C 
ATOM      9  O   UNL     1      30.027  15.156  -0.491  0.00  0.00    -0.218 OA
BRANCH   8  10
ATOM     10  C   UNL     1      31.216  13.249   0.483  0.00  0.00    +0.171 C 
ATOM     11  O   UNL     1      30.774  13.700   1.759  0.00  0.00    -0.343 OA
ATOM     12  C   UNL     1      31.527  13.605   2.933  0.00  0.00    +0.220 C 
ATOM     13  C   UNL     1      32.947  14.167   2.747  0.00  0.00    +0.076 C 
ATOM     14  C   UNL     1      33.564  13.469   1.524  0.00  0.00    +0.177 C 
ATOM     15  O   UNL     1      34.896  13.925   1.331  0.00  0.00    -0.221 OA
ATOM     16  C   UNL     1      32.688  13.728   0.259  0.00  0.00    +0.155 C 
BRANCH  16  17
ATOM     17  N   UNL     1      33.275  13.072  -0.907  0.00  0.00    -0.202 NA
ATOM     18  C   UNL     1      33.683  13.604  -2.088  0.00  0.00    +0.242 C 
ATOM     19  C   UNL     1      34.523  12.752  -3.004  0.00  0.00    +0.096 C 
ATOM     20  O   UNL     1      33.363  14.755  -2.379  0.00  0.00    -0.273 OA
ENDBRANCH  16  17
BRANCH  12  21
ATOM     21  C   UNL     1      31.555  12.108   3.563  0.00  0.00    +0.391 C 
ATOM     22  O   UNL     1      32.491  12.156   4.531  0.00  0.00    -0.243 OA
ATOM     23  O   UNL     1      30.457  11.493   3.106  0.00  0.00    -0.243 OA
ENDBRANCH  12  21
ENDBRANCH   8  10
ENDBRANCH   6   8
ENDBRANCH   5   6
ENDBRANCH   2   5
BRANCH   1  24
ATOM     24  O   UNL     1      26.691  12.021   2.445  0.00  0.00    -0.450 OA
BRANCH  24  25
ATOM     25  C   UNL     1      26.809  10.626   2.606  0.00  0.00    +0.240 C 
BRANCH  25  26
ATOM     26  C   UNL     1      25.850   9.733   1.795  0.00  0.00    +0.100 C 
BRANCH  26  28
ATOM     27  N   UNL     1      23.577  10.619   2.210  0.00  0.00    -0.134 NA
ATOM     28  C   UNL     1      24.659  10.502   1.388  0.00  0.00    +0.086 A 
ATOM     29  C   UNL     1      24.418  11.195   0.225  0.00  0.00    +0.139 A 
ATOM     30  N   UNL     1      23.174  11.760   0.399  0.00  0.00    -0.220 N 
ATOM     31  N   UNL     1      22.675  11.378   1.600  0.00  0.00    -0.061 NA
BRANCH  30  32
ATOM     32  C   UNL     1      22.470  12.636  -0.464  0.00  0.00    +0.068 A 
ATOM     33  C   UNL     1      23.150  13.362  -1.451  0.00  0.00    +0.042 A 
ATOM     34  C   UNL     1      22.453  14.252  -2.283  0.00  0.00    +0.061 A 
ATOM     35  C   UNL     1      21.071  14.409  -2.126  0.00  0.00    +0.015 A 
ATOM     36  C   UNL     1      20.388  13.678  -1.153  0.00  0.00    +0.003 A 
ATOM     37  C   UNL     1      21.083  12.793  -0.325  0.00  0.00    +0.028 A 
BRANCH  34  38
ATOM     38  C   UNL     1      23.127  14.995  -3.380  0.00  0.00    +0.339 C 
ATOM     39  O   UNL     1      22.942  14.770  -4.565  0.00  0.00    -0.245 OA
BRANCH  38  40
ATOM     40  O   UNL     1      24.026  15.866  -2.859  0.00  0.00    -0.461 OA
BRANCH  40  41
ATOM     41  C   UNL     1      25.396  15.621  -3.207  0.00  0.00    +0.229 C 
ATOM     42  C   UNL     1      25.989  16.920  -3.721  0.00  0.00    +0.048 C 
ENDBRANCH  40  41
ENDBRANCH  38  40
ENDBRANCH  34  38
ENDBRANCH  30  32
ENDBRANCH  26  28
ENDBRANCH  25  26
ENDBRANCH  24  25
ENDBRANCH   1  24
TORSDOF 14
