REMARK VINA RESULT:    -6.189      4.007      8.265
REMARK INTER + INTRA:         -13.086
REMARK INTER:                 -10.477
REMARK INTRA:                  -2.610
REMARK UNBOUND:                -2.194
REMARK  Name = lig_assembled_14.pdb
REMARK  13 active torsions:
REMARK  status: ('A' for Active; 'I' for Inactive)
REMARK    1  A    between atoms: _2  and  _9
REMARK    2  A    between atoms: _3  and  _10
REMARK    3  A    between atoms: _6  and  _7
REMARK    4  A    between atoms: _6  and  _14
REMARK    5  A    between atoms: _9  and  _10
REMARK    6  A    between atoms: _14  and  _16
REMARK    7  A    between atoms: _15  and  _20
REMARK    8  A    between atoms: _16  and  _19
REMARK    9  A    between atoms: _24  and  _34
REMARK   10  A    between atoms: _26  and  _27
REMARK   11  A    between atoms: _28  and  _30
REMARK   12  A    between atoms: _30  and  _32
REMARK   13  A    between atoms: _32  and  _34
REMARK                            x       y       z     vdW  Elec       q    Type
REMARK                         _______ _______ _______ _____ _____    ______ ____
ROOT
ATOM      1  C   UNL     1      28.101  17.318  -0.757  0.00  0.00    +0.400 C 
ATOM      2  N   UNL     1      27.092  16.683  -1.441  0.00  0.00    -0.278 N 
ATOM      3  H   UNL     1      26.213  17.202  -1.123  0.00  0.00    +0.152 HD
ATOM      4  O   UNL     1      27.829  18.350  -0.149  0.00  0.00    -0.226 OA
ENDROOT
BRANCH   2   5
ATOM      5  C   UNL     1      26.693  15.652  -2.396  0.00  0.00    +0.152 C 
BRANCH   5   6
ATOM      6  C   UNL     1      25.818  16.121  -3.576  0.00  0.00    +0.193 C 
ATOM      7  O   UNL     1      26.721  16.578  -4.607  0.00  0.00    -0.219 OA
BRANCH   6   8
ATOM      8  C   UNL     1      24.936  15.064  -4.277  0.00  0.00    +0.212 C 
ATOM      9  O   UNL     1      25.186  15.061  -5.692  0.00  0.00    -0.218 OA
BRANCH   8  10
ATOM     10  C   UNL     1      25.154  13.604  -3.725  0.00  0.00    +0.171 C 
ATOM     11  O   UNL     1      26.096  12.862  -4.492  0.00  0.00    -0.343 OA
ATOM     12  C   UNL     1      26.296  11.485  -4.378  0.00  0.00    +0.220 C 
ATOM     13  C   UNL     1      24.971  10.707  -4.459  0.00  0.00    +0.076 C 
ATOM     14  C   UNL     1      24.016  11.311  -3.417  0.00  0.00    +0.177 C 
ATOM     15  O   UNL     1      22.785  10.601  -3.422  0.00  0.00    -0.221 OA
ATOM     16  C   UNL     1      23.795  12.829  -3.705  0.00  0.00    +0.155 C 
BRANCH  16  17
ATOM     17  N   UNL     1      22.883  13.405  -2.721  0.00  0.00    -0.202 NA
ATOM     18  C   UNL     1      21.648  13.943  -2.893  0.00  0.00    +0.242 C 
ATOM     19  C   UNL     1      20.802  14.195  -1.673  0.00  0.00    +0.096 C 
ATOM     20  O   UNL     1      21.253  14.207  -4.027  0.00  0.00    -0.273 OA
ENDBRANCH  16  17
BRANCH  12  21
ATOM     21  C   UNL     1      27.157  11.062  -3.066  0.00  0.00    +0.391 C 
ATOM     22  O   UNL     1      26.834   9.774  -2.839  0.00  0.00    -0.243 OA
ATOM     23  O   UNL     1      28.066  12.030  -2.893  0.00  0.00    -0.243 OA
ENDBRANCH  12  21
ENDBRANCH   8  10
ENDBRANCH   6   8
ENDBRANCH   5   6
ENDBRANCH   2   5
BRANCH   1  24
ATOM     24  O   UNL     1      29.255  16.737  -0.796  0.00  0.00    -0.450 OA
BRANCH  24  25
ATOM     25  C   UNL     1      29.975  15.743  -0.105  0.00  0.00    +0.240 C 
BRANCH  25  26
ATOM     26  C   UNL     1      29.616  14.273  -0.396  0.00  0.00    +0.100 C 
BRANCH  26  28
ATOM     27  N   UNL     1      28.890  13.983   1.951  0.00  0.00    -0.134 NA
ATOM     28  C   UNL     1      28.674  13.763   0.617  0.00  0.00    +0.086 A 
ATOM     29  C   UNL     1      27.516  13.032   0.462  0.00  0.00    +0.133 A 
ATOM     30  N   UNL     1      27.087  12.828   1.737  0.00  0.00    -0.250 N 
ATOM     31  N   UNL     1      27.908  13.408   2.630  0.00  0.00    -0.065 NA
BRANCH  30  32
ATOM     32  C   UNL     1      25.950  12.055   2.186  0.00  0.00    +0.160 C 
BRANCH  32  33
ATOM     33  C   UNL     1      25.518  11.015   1.145  0.00  0.00    +0.107 C 
BRANCH  33  34
ATOM     34  N   UNL     1      24.082  10.694   1.212  0.00  0.00    -0.301 NA
ATOM     35  C   UNL     1      23.463  11.085   2.483  0.00  0.00    +0.084 C 
ATOM     36  C   UNL     1      21.985  11.047   2.153  0.00  0.00    +0.017 C 
ATOM     37  C   UNL     1      21.917  11.581   0.734  0.00  0.00    +0.017 C 
ATOM     38  C   UNL     1      23.319  11.388   0.164  0.00  0.00    +0.084 C 
ENDBRANCH  33  34
ENDBRANCH  32  33
ENDBRANCH  30  32
ENDBRANCH  26  28
ENDBRANCH  25  26
ENDBRANCH  24  25
ENDBRANCH   1  24
TORSDOF 13
