REMARK VINA RESULT:    -6.451      1.522      1.792
REMARK INTER + INTRA:         -13.259
REMARK INTER:                 -11.685
REMARK INTRA:                  -1.574
REMARK UNBOUND:                -1.716
REMARK  Name = lig_assembled_32.pdb
REMARK  14 active torsions:
REMARK  status: ('A' for Active; 'I' for Inactive)
REMARK    1  A    between atoms: _2  and  _8
REMARK    2  A    between atoms: _4  and  _9
REMARK    3  A    between atoms: _4  and  _10
REMARK    4  A    between atoms: _5  and  _6
REMARK    5  A    between atoms: _5  and  _12
REMARK    6  A    between atoms: _8  and  _9
REMARK    7  A    between atoms: _12  and  _14
REMARK    8  A    between atoms: _13  and  _18
REMARK    9  A    between atoms: _14  and  _17
REMARK   10  A    between atoms: _22  and  _32
REMARK   11  A    between atoms: _24  and  _25
REMARK   12  A    between atoms: _26  and  _28
REMARK   13  A    between atoms: _28  and  _30
REMARK   14  A    between atoms: _30  and  _32
REMARK                            x       y       z     vdW  Elec       q    Type
REMARK                         _______ _______ _______ _____ _____    ______ ____
ROOT
ATOM      1  C   UNL     1      28.289  14.844  -0.873  0.00  0.00    +0.152 C 
ENDROOT
BRANCH   1   3
ATOM      2  C   UNL     1      27.724  17.475  -1.324  0.00  0.00    +0.400 C 
ATOM      3  N   UNL     1      28.110  16.289  -0.747  0.00  0.00    -0.278 N 
ATOM      4  H   UNL     1      28.394  16.576   0.243  0.00  0.00    +0.152 HD
ATOM      5  O   UNL     1      27.615  18.463  -0.601  0.00  0.00    -0.226 OA
BRANCH   2   6
ATOM      6  O   UNL     1      27.538  17.442  -2.603  0.00  0.00    -0.450 OA
BRANCH   6   7
ATOM      7  C   UNL     1      26.479  17.356  -3.527  0.00  0.00    +0.240 C 
BRANCH   7   8
ATOM      8  C   UNL     1      26.399  16.090  -4.401  0.00  0.00    +0.100 C 
BRANCH   8  10
ATOM      9  N   UNL     1      25.195  13.928  -4.424  0.00  0.00    -0.134 NA
ATOM     10  C   UNL     1      25.530  15.082  -3.766  0.00  0.00    +0.086 A 
ATOM     11  C   UNL     1      24.932  15.082  -2.525  0.00  0.00    +0.133 A 
ATOM     12  N   UNL     1      24.241  13.910  -2.496  0.00  0.00    -0.251 N 
ATOM     13  N   UNL     1      24.401  13.217  -3.636  0.00  0.00    -0.065 NA
BRANCH  12  14
ATOM     14  C   UNL     1      23.418  13.381  -1.431  0.00  0.00    +0.156 C 
BRANCH  14  15
ATOM     15  C   UNL     1      22.012  13.047  -1.911  0.00  0.00    +0.143 C 
BRANCH  15  16
ATOM     16  C   UNL     1      21.051  14.118  -1.483  0.00  0.00    +0.306 C 
ATOM     17  O   UNL     1      20.258  14.016  -0.561  0.00  0.00    -0.251 OA
BRANCH  16  18
ATOM     18  O   UNL     1      21.139  15.231  -2.245  0.00  0.00    -0.481 OA
ATOM     19  H   UNL     1      21.238  16.060  -1.738  0.00  0.00    +0.295 HD
ENDBRANCH  16  18
ENDBRANCH  15  16
ENDBRANCH  14  15
ENDBRANCH  12  14
ENDBRANCH   8  10
ENDBRANCH   7   8
ENDBRANCH   6   7
ENDBRANCH   2   6
ENDBRANCH   1   3
BRANCH   1  20
ATOM     20  C   UNL     1      29.310  14.200   0.088  0.00  0.00    +0.193 C 
ATOM     21  O   UNL     1      29.539  12.856  -0.390  0.00  0.00    -0.219 OA
BRANCH  20  22
ATOM     22  C   UNL     1      30.719  14.829   0.162  0.00  0.00    +0.212 C 
ATOM     23  O   UNL     1      30.642  16.178   0.649  0.00  0.00    -0.218 OA
BRANCH  22  24
ATOM     24  C   UNL     1      31.717  14.019   1.074  0.00  0.00    +0.171 C 
ATOM     25  O   UNL     1      31.928  14.639   2.339  0.00  0.00    -0.343 OA
ATOM     26  C   UNL     1      32.934  14.275   3.237  0.00  0.00    +0.220 C 
ATOM     27  C   UNL     1      34.312  14.214   2.554  0.00  0.00    +0.076 C 
ATOM     28  C   UNL     1      34.179  13.299   1.325  0.00  0.00    +0.177 C 
ATOM     29  O   UNL     1      35.438  13.175   0.679  0.00  0.00    -0.221 OA
ATOM     30  C   UNL     1      33.095  13.859   0.353  0.00  0.00    +0.155 C 
BRANCH  30  31
ATOM     31  N   UNL     1      32.971  12.997  -0.819  0.00  0.00    -0.202 NA
ATOM     32  C   UNL     1      33.133  13.291  -2.134  0.00  0.00    +0.242 C 
ATOM     33  C   UNL     1      33.237  12.152  -3.115  0.00  0.00    +0.096 C 
ATOM     34  O   UNL     1      33.192  14.466  -2.491  0.00  0.00    -0.273 OA
ENDBRANCH  30  31
BRANCH  26  35
ATOM     35  C   UNL     1      32.611  12.908   4.053  0.00  0.00    +0.391 C 
ATOM     36  O   UNL     1      31.290  12.706   3.882  0.00  0.00    -0.243 OA
ATOM     37  O   UNL     1      33.797  12.350   4.323  0.00  0.00    -0.243 OA
ENDBRANCH  26  35
ENDBRANCH  22  24
ENDBRANCH  20  22
ENDBRANCH   1  20
TORSDOF 14
