REMARK VINA RESULT:    -6.472      3.337     10.137
REMARK INTER + INTRA:         -13.157
REMARK INTER:                 -11.846
REMARK INTRA:                  -1.310
REMARK UNBOUND:                -2.144
REMARK  Name = lig_assembled_63.pdb
REMARK  12 active torsions:
REMARK  status: ('A' for Active; 'I' for Inactive)
REMARK    1  A    between atoms: _2  and  _10
REMARK    2  A    between atoms: _6  and  _14
REMARK    3  A    between atoms: _7  and  _8
REMARK    4  A    between atoms: _7  and  _15
REMARK    5  A    between atoms: _15  and  _17
REMARK    6  A    between atoms: _16  and  _21
REMARK    7  A    between atoms: _17  and  _20
REMARK    8  A    between atoms: _25  and  _35
REMARK    9  A    between atoms: _27  and  _28
REMARK   10  A    between atoms: _29  and  _31
REMARK   11  A    between atoms: _31  and  _33
REMARK   12  A    between atoms: _33  and  _35
REMARK                            x       y       z     vdW  Elec       q    Type
REMARK                         _______ _______ _______ _____ _____    ______ ____
ROOT
ATOM      1  C   UNL     1      27.780  17.676  -1.437  0.00  0.00    +0.400 C 
ATOM      2  N   UNL     1      26.883  16.851  -2.073  0.00  0.00    -0.278 N 
ATOM      3  H   UNL     1      25.983  17.428  -2.088  0.00  0.00    +0.152 HD
ATOM      4  O   UNL     1      27.446  18.839  -1.223  0.00  0.00    -0.226 OA
ENDROOT
BRANCH   2   5
ATOM      5  C   UNL     1      26.618  15.575  -2.733  0.00  0.00    +0.152 C 
BRANCH   5   6
ATOM      6  C   UNL     1      25.566  15.600  -3.862  0.00  0.00    +0.193 C 
ATOM      7  O   UNL     1      26.287  15.804  -5.097  0.00  0.00    -0.219 OA
BRANCH   6   8
ATOM      8  C   UNL     1      24.746  14.314  -4.102  0.00  0.00    +0.212 C 
ATOM      9  O   UNL     1      25.564  13.303  -4.714  0.00  0.00    -0.218 OA
BRANCH   8  10
ATOM     10  C   UNL     1      24.113  13.721  -2.786  0.00  0.00    +0.171 C 
ATOM     11  O   UNL     1      24.682  12.467  -2.421  0.00  0.00    -0.343 OA
ATOM     12  C   UNL     1      24.151  11.613  -1.452  0.00  0.00    +0.220 C 
ATOM     13  C   UNL     1      22.651  11.354  -1.680  0.00  0.00    +0.076 C 
ATOM     14  C   UNL     1      21.956  12.721  -1.788  0.00  0.00    +0.177 C 
ATOM     15  O   UNL     1      20.558  12.538  -1.960  0.00  0.00    -0.221 OA
ATOM     16  C   UNL     1      22.570  13.544  -2.964  0.00  0.00    +0.155 C 
BRANCH  16  17
ATOM     17  N   UNL     1      21.907  14.841  -3.075  0.00  0.00    -0.202 NA
ATOM     18  C   UNL     1      21.287  15.410  -4.140  0.00  0.00    +0.242 C 
ATOM     19  C   UNL     1      20.431  16.627  -3.902  0.00  0.00    +0.096 C 
ATOM     20  O   UNL     1      21.434  14.925  -5.260  0.00  0.00    -0.273 OA
ENDBRANCH  16  17
BRANCH  12  21
ATOM     21  C   UNL     1      24.448  12.098   0.070  0.00  0.00    +0.391 C 
ATOM     22  O   UNL     1      23.524  11.468   0.822  0.00  0.00    -0.243 OA
ATOM     23  O   UNL     1      25.653  12.681   0.044  0.00  0.00    -0.243 OA
ENDBRANCH  12  21
ENDBRANCH   8  10
ENDBRANCH   6   8
ENDBRANCH   5   6
ENDBRANCH   2   5
BRANCH   1  24
ATOM     24  O   UNL     1      28.898  17.128  -1.092  0.00  0.00    -0.450 OA
BRANCH  24  25
ATOM     25  C   UNL     1      29.379  16.159  -0.189  0.00  0.00    +0.240 C 
BRANCH  25  26
ATOM     26  C   UNL     1      30.861  16.246   0.223  0.00  0.00    +0.100 C 
BRANCH  26  28
ATOM     27  N   UNL     1      31.244  13.824   0.528  0.00  0.00    -0.134 NA
ATOM     28  C   UNL     1      31.234  15.084   1.052  0.00  0.00    +0.087 A 
ATOM     29  C   UNL     1      31.593  15.019   2.377  0.00  0.00    +0.141 A 
ATOM     30  N   UNL     1      31.780  13.675   2.631  0.00  0.00    -0.201 N 
ATOM     31  N   UNL     1      31.583  12.978   1.492  0.00  0.00    -0.059 NA
BRANCH  30  32
ATOM     32  C   UNL     1      32.070  13.084   3.897  0.00  0.00    +0.173 A 
ATOM     33  C   UNL     1      33.371  12.994   4.398  0.00  0.00    +0.096 A 
ATOM     34  C   UNL     1      33.554  12.307   5.609  0.00  0.00    +0.024 A 
ATOM     35  C   UNL     1      32.468  11.764   6.287  0.00  0.00    +0.021 A 
ATOM     36  C   UNL     1      31.212  11.932   5.741  0.00  0.00    +0.113 A 
ATOM     37  N   UNL     1      30.991  12.570   4.572  0.00  0.00    -0.235 NA
BRANCH  33  38
ATOM     38  C   UNL     1      34.539  13.560   3.792  0.00  0.00    +0.103 C 
ATOM     39  N   UNL     1      35.429  14.031   3.212  0.00  0.00    -0.191 NA
ENDBRANCH  33  38
ENDBRANCH  30  32
ENDBRANCH  26  28
ENDBRANCH  25  26
ENDBRANCH  24  25
ENDBRANCH   1  24
TORSDOF 12
