REMARK VINA RESULT:    -6.674      1.946      3.838
REMARK INTER + INTRA:         -13.276
REMARK INTER:                 -11.609
REMARK INTRA:                  -1.666
REMARK UNBOUND:                -1.919
REMARK  Name = lig_assembled_41.pdb
REMARK  13 active torsions:
REMARK  status: ('A' for Active; 'I' for Inactive)
REMARK    1  A    between atoms: _2  and  _8
REMARK    2  A    between atoms: _5  and  _6
REMARK    3  A    between atoms: _5  and  _16
REMARK    4  A    between atoms: _9  and  _10
REMARK    5  A    between atoms: _10  and  _11
REMARK    6  A    between atoms: _16  and  _18
REMARK    7  A    between atoms: _17  and  _22
REMARK    8  A    between atoms: _18  and  _21
REMARK    9  A    between atoms: _26  and  _36
REMARK   10  A    between atoms: _28  and  _29
REMARK   11  A    between atoms: _30  and  _32
REMARK   12  A    between atoms: _32  and  _34
REMARK   13  A    between atoms: _34  and  _36
REMARK                            x       y       z     vdW  Elec       q    Type
REMARK                         _______ _______ _______ _____ _____    ______ ____
ROOT
ATOM      1  C   UNL     1      28.557  16.525  -0.831  0.00  0.00    +0.400 C 
ATOM      2  N   UNL     1      28.781  15.513   0.074  0.00  0.00    -0.278 N 
ATOM      3  H   UNL     1      29.755  15.733   0.454  0.00  0.00    +0.152 HD
ATOM      4  O   UNL     1      29.351  17.461  -0.860  0.00  0.00    -0.226 OA
ENDROOT
BRANCH   2   5
ATOM      5  C   UNL     1      28.290  14.311   0.742  0.00  0.00    +0.152 C 
BRANCH   5   6
ATOM      6  C   UNL     1      28.805  14.073   2.177  0.00  0.00    +0.193 C 
ATOM      7  O   UNL     1      27.685  13.580   2.944  0.00  0.00    -0.219 OA
BRANCH   6   8
ATOM      8  C   UNL     1      29.906  13.006   2.373  0.00  0.00    +0.212 C 
ATOM      9  O   UNL     1      29.479  11.741   1.842  0.00  0.00    -0.218 OA
BRANCH   8  10
ATOM     10  C   UNL     1      31.279  13.396   1.704  0.00  0.00    +0.171 C 
ATOM     11  O   UNL     1      31.278  13.198   0.294  0.00  0.00    -0.343 OA
ATOM     12  C   UNL     1      32.421  13.230  -0.507  0.00  0.00    +0.220 C 
ATOM     13  C   UNL     1      33.534  12.325   0.051  0.00  0.00    +0.076 C 
ATOM     14  C   UNL     1      33.761  12.724   1.519  0.00  0.00    +0.177 C 
ATOM     15  O   UNL     1      34.810  11.943   2.073  0.00  0.00    -0.221 OA
ATOM     16  C   UNL     1      32.440  12.557   2.332  0.00  0.00    +0.155 C 
BRANCH  16  17
ATOM     17  N   UNL     1      32.653  12.928   3.728  0.00  0.00    -0.202 NA
ATOM     18  C   UNL     1      32.828  12.139   4.819  0.00  0.00    +0.242 C 
ATOM     19  C   UNL     1      33.322  12.777   6.091  0.00  0.00    +0.096 C 
ATOM     20  O   UNL     1      32.584  10.936   4.744  0.00  0.00    -0.273 OA
ENDBRANCH  16  17
BRANCH  12  21
ATOM     21  C   UNL     1      32.964  14.732  -0.802  0.00  0.00    +0.391 C 
ATOM     22  O   UNL     1      34.240  14.568  -1.202  0.00  0.00    -0.243 OA
ATOM     23  O   UNL     1      31.881  15.518  -0.830  0.00  0.00    -0.243 OA
ENDBRANCH  12  21
ENDBRANCH   8  10
ENDBRANCH   6   8
ENDBRANCH   5   6
ENDBRANCH   2   5
BRANCH   1  24
ATOM     24  O   UNL     1      27.529  16.372  -1.599  0.00  0.00    -0.450 OA
BRANCH  24  25
ATOM     25  C   UNL     1      27.020  15.446  -2.530  0.00  0.00    +0.240 C 
BRANCH  25  26
ATOM     26  C   UNL     1      26.405  16.007  -3.826  0.00  0.00    +0.100 C 
BRANCH  26  28
ATOM     27  N   UNL     1      24.720  14.718  -5.086  0.00  0.00    -0.134 NA
ATOM     28  C   UNL     1      25.036  15.493  -4.010  0.00  0.00    +0.086 A 
ATOM     29  C   UNL     1      23.917  15.643  -3.220  0.00  0.00    +0.139 A 
ATOM     30  N   UNL     1      22.902  15.027  -3.915  0.00  0.00    -0.219 N 
ATOM     31  N   UNL     1      23.439  14.394  -4.996  0.00  0.00    -0.061 NA
BRANCH  30  32
ATOM     32  C   UNL     1      21.517  14.884  -3.610  0.00  0.00    +0.077 A 
ATOM     33  C   UNL     1      20.943  13.756  -2.987  0.00  0.00    +0.043 A 
ATOM     34  C   UNL     1      19.547  13.726  -2.790  0.00  0.00    +0.013 A 
ATOM     35  C   UNL     1      18.733  14.783  -3.205  0.00  0.00    +0.001 A 
ATOM     36  C   UNL     1      19.299  15.903  -3.794  0.00  0.00    +0.002 A 
ATOM     37  C   UNL     1      20.679  15.958  -3.985  0.00  0.00    +0.028 A 
BRANCH  33  38
ATOM     38  C   UNL     1      21.737  12.673  -2.328  0.00  0.00    +0.162 C 
ATOM     39  O   UNL     1      21.912  11.610  -2.920  0.00  0.00    -0.292 OA
ATOM     40  C   UNL     1      22.321  12.887  -0.953  0.00  0.00    +0.091 C 
ENDBRANCH  33  38
ENDBRANCH  30  32
ENDBRANCH  26  28
ENDBRANCH  25  26
ENDBRANCH  24  25
ENDBRANCH   1  24
TORSDOF 12
