REMARK VINA RESULT:    -6.781      3.835      9.798
REMARK INTER + INTRA:         -12.917
REMARK INTER:                 -11.022
REMARK INTRA:                  -1.895
REMARK UNBOUND:                -1.775
REMARK  Name = lig_assembled_42.pdb
REMARK  11 active torsions:
REMARK  status: ('A' for Active; 'I' for Inactive)
REMARK    1  A    between atoms: _2  and  _8
REMARK    2  A    between atoms: _5  and  _6
REMARK    3  A    between atoms: _5  and  _16
REMARK    4  A    between atoms: _16  and  _18
REMARK    5  A    between atoms: _17  and  _22
REMARK    6  A    between atoms: _18  and  _21
REMARK    7  A    between atoms: _26  and  _36
REMARK    8  A    between atoms: _28  and  _29
REMARK    9  A    between atoms: _30  and  _32
REMARK   10  A    between atoms: _32  and  _34
REMARK   11  A    between atoms: _34  and  _36
REMARK                            x       y       z     vdW  Elec       q    Type
REMARK                         _______ _______ _______ _____ _____    ______ ____
ROOT
ATOM      1  C   UNL     1      32.369  12.402   1.537  0.00  0.00    +0.400 C 
ATOM      2  N   UNL     1      31.665  12.773   0.416  0.00  0.00    -0.278 N 
ATOM      3  H   UNL     1      31.214  11.860   0.093  0.00  0.00    +0.152 HD
ATOM      4  O   UNL     1      32.190  11.273   1.985  0.00  0.00    -0.226 OA
ENDROOT
BRANCH   1   5
ATOM      5  O   UNL     1      33.190  13.286   2.001  0.00  0.00    -0.450 OA
BRANCH   5   6
ATOM      6  C   UNL     1      34.567  13.584   1.975  0.00  0.00    +0.240 C 
BRANCH   6   7
ATOM      7  C   UNL     1      35.224  14.021   3.297  0.00  0.00    +0.100 C 
BRANCH   7   9
ATOM      8  N   UNL     1      35.060  11.915   4.599  0.00  0.00    -0.134 NA
ATOM      9  C   UNL     1      34.706  13.222   4.422  0.00  0.00    +0.086 A 
ATOM     10  C   UNL     1      33.843  13.590   5.425  0.00  0.00    +0.139 A 
ATOM     11  N   UNL     1      33.695  12.467   6.203  0.00  0.00    -0.220 N 
ATOM     12  N   UNL     1      34.442  11.463   5.684  0.00  0.00    -0.061 NA
BRANCH  11  13
ATOM     13  C   UNL     1      32.905  12.305   7.371  0.00  0.00    +0.071 A 
ATOM     14  C   UNL     1      31.513  12.164   7.261  0.00  0.00    +0.077 A 
ATOM     15  C   UNL     1      30.789  12.009   8.425  0.00  0.00    +0.168 A 
ATOM     16  O   UNL     1      29.441  11.857   8.493  0.00  0.00    -0.453 OA
ATOM     17  C   UNL     1      29.256  11.734   9.918  0.00  0.00    +0.466 C 
ATOM     18  O   UNL     1      30.488  11.823  10.666  0.00  0.00    -0.453 OA
ATOM     19  C   UNL     1      31.389  11.989   9.660  0.00  0.00    +0.166 A 
ATOM     20  C   UNL     1      32.753  12.126   9.805  0.00  0.00    +0.051 A 
ATOM     21  C   UNL     1      33.521  12.286   8.644  0.00  0.00    +0.031 A 
ENDBRANCH  11  13
ENDBRANCH   7   9
ENDBRANCH   6   7
ENDBRANCH   5   6
ENDBRANCH   1   5
BRANCH   2  22
ATOM     22  C   UNL     1      31.255  13.833  -0.502  0.00  0.00    +0.152 C 
BRANCH  22  23
ATOM     23  C   UNL     1      30.682  15.110   0.147  0.00  0.00    +0.193 C 
ATOM     24  O   UNL     1      31.334  16.230  -0.493  0.00  0.00    -0.219 OA
BRANCH  23  25
ATOM     25  C   UNL     1      29.173  15.388  -0.033  0.00  0.00    +0.212 C 
ATOM     26  O   UNL     1      28.971  16.531  -0.880  0.00  0.00    -0.218 OA
BRANCH  25  27
ATOM     27  C   UNL     1      28.381  14.167  -0.638  0.00  0.00    +0.171 C 
ATOM     28  O   UNL     1      27.523  14.546  -1.709  0.00  0.00    -0.343 OA
ATOM     29  C   UNL     1      26.537  13.723  -2.258  0.00  0.00    +0.220 C 
ATOM     30  C   UNL     1      25.628  13.120  -1.174  0.00  0.00    +0.076 C 
ATOM     31  C   UNL     1      26.535  12.439  -0.136  0.00  0.00    +0.177 C 
ATOM     32  O   UNL     1      25.741  11.828   0.871  0.00  0.00    -0.221 OA
ATOM     33  C   UNL     1      27.526  13.477   0.476  0.00  0.00    +0.155 C 
BRANCH  33  34
ATOM     34  N   UNL     1      28.385  12.835   1.468  0.00  0.00    -0.202 NA
ATOM     35  C   UNL     1      28.394  12.960   2.819  0.00  0.00    +0.242 C 
ATOM     36  C   UNL     1      29.185  11.963   3.625  0.00  0.00    +0.096 C 
ATOM     37  O   UNL     1      27.761  13.872   3.349  0.00  0.00    -0.273 OA
ENDBRANCH  33  34
BRANCH  29  38
ATOM     38  C   UNL     1      27.128  12.578  -3.247  0.00  0.00    +0.391 C 
ATOM     39  O   UNL     1      26.358  11.495  -3.024  0.00  0.00    -0.243 OA
ATOM     40  O   UNL     1      27.936  13.211  -4.106  0.00  0.00    -0.243 OA
ENDBRANCH  29  38
ENDBRANCH  25  27
ENDBRANCH  23  25
ENDBRANCH  22  23
ENDBRANCH   2  22
TORSDOF 11
