REMARK VINA RESULT:    -6.778     23.869     26.919
REMARK INTER + INTRA:         -14.149
REMARK INTER:                 -11.871
REMARK INTRA:                  -2.278
REMARK UNBOUND:                -1.823
REMARK  Name = lig_assembled_12.pdb
REMARK  14 active torsions:
REMARK  status: ('A' for Active; 'I' for Inactive)
REMARK    1  A    between atoms: _2  and  _8
REMARK    2  A    between atoms: _5  and  _6
REMARK    3  A    between atoms: _5  and  _16
REMARK    4  A    between atoms: _8  and  _15
REMARK    5  A    between atoms: _9  and  _10
REMARK    6  A    between atoms: _9  and  _15
REMARK    7  A    between atoms: _16  and  _18
REMARK    8  A    between atoms: _17  and  _22
REMARK    9  A    between atoms: _18  and  _21
REMARK   10  A    between atoms: _26  and  _36
REMARK   11  A    between atoms: _28  and  _29
REMARK   12  A    between atoms: _30  and  _32
REMARK   13  A    between atoms: _32  and  _34
REMARK   14  A    between atoms: _34  and  _36
REMARK                            x       y       z     vdW  Elec       q    Type
REMARK                         _______ _______ _______ _____ _____    ______ ____
ROOT
ATOM      1  C   UNL     1      33.872  41.989   8.501  0.00  0.00    +0.400 C 
ATOM      2  N   UNL     1      33.719  41.668   7.173  0.00  0.00    -0.278 N 
ATOM      3  H   UNL     1      34.663  41.929   6.745  0.00  0.00    +0.152 HD
ATOM      4  O   UNL     1      34.995  42.287   8.899  0.00  0.00    -0.226 OA
ENDROOT
BRANCH   2   5
ATOM      5  C   UNL     1      32.870  41.131   6.113  0.00  0.00    +0.152 C 
BRANCH   5   6
ATOM      6  C   UNL     1      33.597  40.401   4.965  0.00  0.00    +0.193 C 
ATOM      7  O   UNL     1      32.577  39.955   4.044  0.00  0.00    -0.219 OA
BRANCH   6   8
ATOM      8  C   UNL     1      34.569  41.226   4.093  0.00  0.00    +0.212 C 
ATOM      9  O   UNL     1      35.209  42.243   4.881  0.00  0.00    -0.218 OA
BRANCH   8  10
ATOM     10  C   UNL     1      35.681  40.352   3.399  0.00  0.00    +0.171 C 
ATOM     11  O   UNL     1      35.234  39.762   2.183  0.00  0.00    -0.343 OA
ATOM     12  C   UNL     1      35.919  38.757   1.495  0.00  0.00    +0.220 C 
ATOM     13  C   UNL     1      36.303  37.591   2.422  0.00  0.00    +0.076 C 
ATOM     14  C   UNL     1      37.057  38.184   3.624  0.00  0.00    +0.177 C 
ATOM     15  O   UNL     1      37.471  37.141   4.495  0.00  0.00    -0.221 OA
ATOM     16  C   UNL     1      36.157  39.219   4.366  0.00  0.00    +0.155 C 
BRANCH  16  17
ATOM     17  N   UNL     1      36.867  39.780   5.513  0.00  0.00    -0.202 NA
ATOM     18  C   UNL     1      36.624  39.634   6.840  0.00  0.00    +0.242 C 
ATOM     19  C   UNL     1      37.685  40.078   7.814  0.00  0.00    +0.096 C 
ATOM     20  O   UNL     1      35.559  39.148   7.213  0.00  0.00    -0.273 OA
ENDBRANCH  16  17
BRANCH  12  21
ATOM     21  C   UNL     1      37.202  39.304   0.661  0.00  0.00    +0.391 C 
ATOM     22  O   UNL     1      37.817  38.196   0.203  0.00  0.00    -0.243 OA
ATOM     23  O   UNL     1      37.000  40.616   0.490  0.00  0.00    -0.243 OA
ENDBRANCH  12  21
ENDBRANCH   8  10
ENDBRANCH   6   8
ENDBRANCH   5   6
ENDBRANCH   2   5
BRANCH   1  24
ATOM     24  O   UNL     1      32.791  41.973   9.209  0.00  0.00    -0.450 OA
BRANCH  24  25
ATOM     25  C   UNL     1      32.148  41.156  10.160  0.00  0.00    +0.240 C 
BRANCH  25  26
ATOM     26  C   UNL     1      31.917  39.679   9.788  0.00  0.00    +0.100 C 
BRANCH  26  28
ATOM     27  N   UNL     1      29.879  40.532   8.662  0.00  0.00    -0.134 NA
ATOM     28  C   UNL     1      30.842  39.562   8.787  0.00  0.00    +0.086 A 
ATOM     29  C   UNL     1      30.599  38.569   7.868  0.00  0.00    +0.136 A 
ATOM     30  N   UNL     1      29.461  38.973   7.234  0.00  0.00    -0.226 N 
ATOM     31  N   UNL     1      29.044  40.167   7.698  0.00  0.00    -0.063 NA
BRANCH  30  32
ATOM     32  C   UNL     1      28.742  38.318   6.156  0.00  0.00    +0.305 C 
BRANCH  32  33
ATOM     33  O   UNL     1      29.213  36.979   6.025  0.00  0.00    -0.353 OA
BRANCH  33  34
ATOM     34  C   UNL     1      28.141  36.049   5.948  0.00  0.00    +0.197 C 
BRANCH  34  35
ATOM     35  C   UNL     1      28.109  35.287   7.244  0.00  0.00    -0.022 A 
ATOM     36  C   UNL     1      29.293  34.799   7.814  0.00  0.00    +0.006 A 
ATOM     37  C   UNL     1      29.258  34.057   8.997  0.00  0.00    +0.000 A 
ATOM     38  C   UNL     1      28.040  33.789   9.616  0.00  0.00    +0.000 A 
ATOM     39  C   UNL     1      26.854  34.258   9.053  0.00  0.00    +0.000 A 
ATOM     40  C   UNL     1      26.887  35.001   7.870  0.00  0.00    +0.006 A 
ENDBRANCH  34  35
ENDBRANCH  33  34
ENDBRANCH  32  33
ENDBRANCH  30  32
ENDBRANCH  26  28
ENDBRANCH  25  26
ENDBRANCH  24  25
ENDBRANCH   1  24
TORSDOF 14
