REMARK VINA RESULT:    -7.141      2.882      8.455
REMARK INTER + INTRA:         -15.262
REMARK INTER:                 -11.707
REMARK INTRA:                  -3.555
REMARK UNBOUND:                -1.860
REMARK  Name = lig_assembled_37.pdb
REMARK  16 active torsions:
REMARK  status: ('A' for Active; 'I' for Inactive)
REMARK    1  A    between atoms: _2  and  _8
REMARK    2  A    between atoms: _5  and  _6
REMARK    3  A    between atoms: _5  and  _19
REMARK    4  A    between atoms: _8  and  _9
REMARK    5  A    between atoms: _8  and  _10
REMARK    6  A    between atoms: _10  and  _17
REMARK    7  A    between atoms: _11  and  _12
REMARK    8  A    between atoms: _11  and  _17
REMARK    9  A    between atoms: _19  and  _21
REMARK   10  A    between atoms: _20  and  _25
REMARK   11  A    between atoms: _21  and  _24
REMARK   12  A    between atoms: _29  and  _39
REMARK   13  A    between atoms: _31  and  _32
REMARK   14  A    between atoms: _33  and  _35
REMARK   15  A    between atoms: _35  and  _37
REMARK   16  A    between atoms: _37  and  _39
REMARK                            x       y       z     vdW  Elec       q    Type
REMARK                         _______ _______ _______ _____ _____    ______ ____
ROOT
ATOM      1  C   UNL     1      25.510  16.010  -4.129  0.00  0.00    +0.400 C 
ATOM      2  N   UNL     1      24.178  15.708  -3.974  0.00  0.00    -0.278 N 
ATOM      3  H   UNL     1      23.918  15.251  -4.905  0.00  0.00    +0.152 HD
ATOM      4  O   UNL     1      26.095  15.565  -5.114  0.00  0.00    -0.226 OA
ENDROOT
BRANCH   2   5
ATOM      5  C   UNL     1      22.991  15.717  -3.124  0.00  0.00    +0.152 C 
BRANCH   5   6
ATOM      6  C   UNL     1      22.849  14.537  -2.141  0.00  0.00    +0.193 C 
ATOM      7  O   UNL     1      21.468  14.513  -1.716  0.00  0.00    -0.219 OA
BRANCH   6   8
ATOM      8  C   UNL     1      23.108  13.116  -2.689  0.00  0.00    +0.212 C 
ATOM      9  O   UNL     1      23.111  13.124  -4.125  0.00  0.00    -0.218 OA
BRANCH   8  10
ATOM     10  C   UNL     1      24.465  12.490  -2.186  0.00  0.00    +0.171 C 
ATOM     11  O   UNL     1      25.332  12.131  -3.256  0.00  0.00    -0.343 OA
ATOM     12  C   UNL     1      26.478  11.345  -3.112  0.00  0.00    +0.220 C 
ATOM     13  C   UNL     1      26.185  10.045  -2.343  0.00  0.00    +0.076 C 
ATOM     14  C   UNL     1      25.496  10.433  -1.024  0.00  0.00    +0.177 C 
ATOM     15  O   UNL     1      25.238   9.267  -0.254  0.00  0.00    -0.221 OA
ATOM     16  C   UNL     1      24.182  11.222  -1.316  0.00  0.00    +0.155 C 
BRANCH  16  17
ATOM     17  N   UNL     1      23.520  11.586  -0.065  0.00  0.00    -0.202 NA
ATOM     18  C   UNL     1      22.242  11.371   0.335  0.00  0.00    +0.242 C 
ATOM     19  C   UNL     1      21.900  11.586   1.787  0.00  0.00    +0.096 C 
ATOM     20  O   UNL     1      21.401  11.008  -0.486  0.00  0.00    -0.273 OA
ENDBRANCH  16  17
BRANCH  12  21
ATOM     21  C   UNL     1      27.737  12.147  -2.470  0.00  0.00    +0.391 C 
ATOM     22  O   UNL     1      28.523  11.192  -1.939  0.00  0.00    -0.243 OA
ATOM     23  O   UNL     1      27.674  13.390  -2.964  0.00  0.00    -0.243 OA
ENDBRANCH  12  21
ENDBRANCH   8  10
ENDBRANCH   6   8
ENDBRANCH   5   6
ENDBRANCH   2   5
BRANCH   1  24
ATOM     24  O   UNL     1      26.021  16.774  -3.220  0.00  0.00    -0.450 OA
BRANCH  24  25
ATOM     25  C   UNL     1      27.127  17.626  -3.038  0.00  0.00    +0.240 C 
BRANCH  25  26
ATOM     26  C   UNL     1      27.486  18.027  -1.595  0.00  0.00    +0.100 C 
BRANCH  26  28
ATOM     27  N   UNL     1      29.685  17.384  -0.651  0.00  0.00    -0.134 NA
ATOM     28  C   UNL     1      28.407  17.041  -1.001  0.00  0.00    +0.086 A 
ATOM     29  C   UNL     1      28.200  15.712  -0.702  0.00  0.00    +0.134 A 
ATOM     30  N   UNL     1      29.397  15.295  -0.199  0.00  0.00    -0.238 N 
ATOM     31  N   UNL     1      30.282  16.309  -0.153  0.00  0.00    -0.065 NA
BRANCH  30  32
ATOM     32  C   UNL     1      29.772  13.993   0.319  0.00  0.00    +0.214 C 
ATOM     33  C   UNL     1      31.253  13.702   0.077  0.00  0.00    +0.045 C 
BRANCH  32  34
ATOM     34  C   UNL     1      29.451  13.877   1.792  0.00  0.00    +0.332 C 
ATOM     35  O   UNL     1      30.297  13.848   2.679  0.00  0.00    -0.248 OA
BRANCH  34  36
ATOM     36  O   UNL     1      28.108  13.806   1.997  0.00  0.00    -0.458 OA
BRANCH  36  37
ATOM     37  C   UNL     1      27.389  12.884   1.162  0.00  0.00    +0.267 C 
BRANCH  37  38
ATOM     38  C   UNL     1      27.000  11.666   1.958  0.00  0.00    -0.010 A 
ATOM     39  C   UNL     1      25.701  11.536   2.470  0.00  0.00    +0.007 A 
ATOM     40  C   UNL     1      25.333  10.395   3.185  0.00  0.00    +0.000 A 
ATOM     41  C   UNL     1      26.257   9.373   3.397  0.00  0.00    +0.000 A 
ATOM     42  C   UNL     1      27.553   9.494   2.899  0.00  0.00    +0.000 A 
ATOM     43  C   UNL     1      27.925  10.636   2.184  0.00  0.00    +0.007 A 
ENDBRANCH  37  38
ENDBRANCH  36  37
ENDBRANCH  34  36
ENDBRANCH  32  34
ENDBRANCH  30  32
ENDBRANCH  26  28
ENDBRANCH  25  26
ENDBRANCH  24  25
ENDBRANCH   1  24
TORSDOF 15
