REMARK VINA RESULT:    -6.756      1.566      2.903
REMARK INTER + INTRA:         -15.402
REMARK INTER:                 -13.370
REMARK INTRA:                  -2.032
REMARK UNBOUND:                -3.117
REMARK  Name = lig_assembled_9.pdb
REMARK  15 active torsions:
REMARK  status: ('A' for Active; 'I' for Inactive)
REMARK    1  A    between atoms: _2  and  _8
REMARK    2  A    between atoms: _5  and  _6
REMARK    3  A    between atoms: _5  and  _18
REMARK    4  A    between atoms: _10  and  _11
REMARK    5  A    between atoms: _11  and  _16
REMARK    6  A    between atoms: _12  and  _13
REMARK    7  A    between atoms: _12  and  _16
REMARK    8  A    between atoms: _18  and  _20
REMARK    9  A    between atoms: _19  and  _24
REMARK   10  A    between atoms: _20  and  _23
REMARK   11  A    between atoms: _28  and  _38
REMARK   12  A    between atoms: _30  and  _31
REMARK   13  A    between atoms: _32  and  _34
REMARK   14  A    between atoms: _34  and  _36
REMARK   15  A    between atoms: _36  and  _38
REMARK                            x       y       z     vdW  Elec       q    Type
REMARK                         _______ _______ _______ _____ _____    ______ ____
ROOT
ATOM      1  C   UNL     1      28.025  17.242  -0.746  0.00  0.00    +0.400 C 
ATOM      2  N   UNL     1      28.705  16.234  -0.104  0.00  0.00    -0.278 N 
ATOM      3  H   UNL     1      28.969  16.672   0.834  0.00  0.00    +0.152 HD
ATOM      4  O   UNL     1      27.733  18.246  -0.101  0.00  0.00    -0.226 OA
ENDROOT
BRANCH   2   5
ATOM      5  C   UNL     1      29.203  14.861  -0.123  0.00  0.00    +0.152 C 
BRANCH   5   6
ATOM      6  C   UNL     1      30.714  14.683   0.134  0.00  0.00    +0.193 C 
ATOM      7  O   UNL     1      31.028  15.451   1.316  0.00  0.00    -0.219 OA
BRANCH   6   8
ATOM      8  C   UNL     1      31.222  13.260   0.452  0.00  0.00    +0.212 C 
ATOM      9  O   UNL     1      32.119  12.806  -0.575  0.00  0.00    -0.218 OA
BRANCH   8  10
ATOM     10  C   UNL     1      31.956  13.155   1.844  0.00  0.00    +0.171 C 
ATOM     11  O   UNL     1      33.289  12.670   1.725  0.00  0.00    -0.343 OA
ATOM     12  C   UNL     1      34.075  12.254   2.802  0.00  0.00    +0.220 C 
ATOM     13  C   UNL     1      33.330  11.247   3.696  0.00  0.00    +0.076 C 
ATOM     14  C   UNL     1      31.984  11.880   4.083  0.00  0.00    +0.177 C 
ATOM     15  O   UNL     1      31.270  11.004   4.945  0.00  0.00    -0.221 OA
ATOM     16  C   UNL     1      31.157  12.212   2.802  0.00  0.00    +0.155 C 
BRANCH  16  17
ATOM     17  N   UNL     1      29.874  12.808   3.167  0.00  0.00    -0.202 NA
ATOM     18  C   UNL     1      28.615  12.422   2.839  0.00  0.00    +0.242 C 
ATOM     19  C   UNL     1      27.461  13.036   3.589  0.00  0.00    +0.096 C 
ATOM     20  O   UNL     1      28.446  11.589   1.951  0.00  0.00    -0.273 OA
ENDBRANCH  16  17
BRANCH  12  21
ATOM     21  C   UNL     1      34.687  13.483   3.670  0.00  0.00    +0.391 C 
ATOM     22  O   UNL     1      34.854  12.984   4.910  0.00  0.00    -0.243 OA
ATOM     23  O   UNL     1      35.071  14.408   2.781  0.00  0.00    -0.243 OA
ENDBRANCH  12  21
ENDBRANCH   8  10
ENDBRANCH   6   8
ENDBRANCH   5   6
ENDBRANCH   2   5
BRANCH   1  24
ATOM     24  O   UNL     1      27.782  17.043  -2.000  0.00  0.00    -0.450 OA
BRANCH  24  25
ATOM     25  C   UNL     1      26.915  17.511  -3.007  0.00  0.00    +0.240 C 
BRANCH  25  26
ATOM     26  C   UNL     1      26.379  16.480  -4.018  0.00  0.00    +0.100 C 
BRANCH  26  28
ATOM     27  N   UNL     1      26.266  14.191  -3.083  0.00  0.00    -0.134 NA
ATOM     28  C   UNL     1      25.669  15.396  -3.314  0.00  0.00    +0.086 A 
ATOM     29  C   UNL     1      24.398  15.376  -2.790  0.00  0.00    +0.139 A 
ATOM     30  N   UNL     1      24.274  14.135  -2.206  0.00  0.00    -0.220 N 
ATOM     31  N   UNL     1      25.409  13.428  -2.416  0.00  0.00    -0.061 NA
BRANCH  30  32
ATOM     32  C   UNL     1      23.188  13.612  -1.459  0.00  0.00    +0.068 A 
ATOM     33  C   UNL     1      23.399  12.603  -0.510  0.00  0.00    +0.042 A 
ATOM     34  C   UNL     1      22.317  12.064   0.205  0.00  0.00    +0.061 A 
ATOM     35  C   UNL     1      21.023  12.544  -0.032  0.00  0.00    +0.015 A 
ATOM     36  C   UNL     1      20.812  13.558  -0.967  0.00  0.00    +0.003 A 
ATOM     37  C   UNL     1      21.889  14.092  -1.679  0.00  0.00    +0.028 A 
BRANCH  34  38
ATOM     38  C   UNL     1      22.506  11.037   1.262  0.00  0.00    +0.339 C 
ATOM     39  O   UNL     1      21.625  10.682   2.028  0.00  0.00    -0.245 OA
BRANCH  38  40
ATOM     40  O   UNL     1      23.804  10.647   1.296  0.00  0.00    -0.461 OA
BRANCH  40  41
ATOM     41  C   UNL     1      24.514  10.969   2.499  0.00  0.00    +0.229 C 
ATOM     42  C   UNL     1      24.802   9.673   3.236  0.00  0.00    +0.048 C 
ENDBRANCH  40  41
ENDBRANCH  38  40
ENDBRANCH  34  38
ENDBRANCH  30  32
ENDBRANCH  26  28
ENDBRANCH  25  26
ENDBRANCH  24  25
ENDBRANCH   1  24
TORSDOF 14
