REMARK VINA RESULT:    -6.791      1.709      2.189
REMARK INTER + INTRA:         -13.370
REMARK INTER:                 -10.958
REMARK INTRA:                  -2.412
REMARK UNBOUND:                -1.815
REMARK  Name = lig_assembled_71.pdb
REMARK  12 active torsions:
REMARK  status: ('A' for Active; 'I' for Inactive)
REMARK    1  A    between atoms: _2  and  _11
REMARK    2  A    between atoms: _8  and  _9
REMARK    3  A    between atoms: _8  and  _17
REMARK    4  A    between atoms: _11  and  _12
REMARK    5  A    between atoms: _17  and  _19
REMARK    6  A    between atoms: _18  and  _23
REMARK    7  A    between atoms: _19  and  _22
REMARK    8  A    between atoms: _27  and  _37
REMARK    9  A    between atoms: _29  and  _30
REMARK   10  A    between atoms: _31  and  _33
REMARK   11  A    between atoms: _33  and  _35
REMARK   12  A    between atoms: _35  and  _37
REMARK                            x       y       z     vdW  Elec       q    Type
REMARK                         _______ _______ _______ _____ _____    ______ ____
ROOT
ATOM      1  C   UNL     1      26.787  13.326  -2.680  0.00  0.00    +0.400 C 
ATOM      2  N   UNL     1      27.145  14.214  -1.693  0.00  0.00    -0.278 N 
ATOM      3  H   UNL     1      26.750  13.769  -0.805  0.00  0.00    +0.152 HD
ATOM      4  O   UNL     1      26.316  12.243  -2.341  0.00  0.00    -0.226 OA
ENDROOT
BRANCH   2   5
ATOM      5  C   UNL     1      27.820  15.455  -1.320  0.00  0.00    +0.152 C 
BRANCH   5   6
ATOM      6  C   UNL     1      28.759  15.378  -0.099  0.00  0.00    +0.193 C 
ATOM      7  O   UNL     1      28.430  14.158   0.602  0.00  0.00    -0.219 OA
BRANCH   6   8
ATOM      8  C   UNL     1      30.276  15.269  -0.370  0.00  0.00    +0.212 C 
ATOM      9  O   UNL     1      30.902  16.556  -0.245  0.00  0.00    -0.218 OA
BRANCH   8  10
ATOM     10  C   UNL     1      31.010  14.257   0.590  0.00  0.00    +0.171 C 
ATOM     11  O   UNL     1      31.289  14.818   1.868  0.00  0.00    -0.343 OA
ATOM     12  C   UNL     1      32.135  14.238   2.816  0.00  0.00    +0.220 C 
ATOM     13  C   UNL     1      33.497  13.857   2.209  0.00  0.00    +0.076 C 
ATOM     14  C   UNL     1      33.224  12.991   0.969  0.00  0.00    +0.177 C 
ATOM     15  O   UNL     1      34.454  12.577   0.390  0.00  0.00    -0.221 OA
ATOM     16  C   UNL     1      32.352  13.780  -0.057  0.00  0.00    +0.155 C 
BRANCH  16  17
ATOM     17  N   UNL     1      32.096  12.963  -1.240  0.00  0.00    -0.202 NA
ATOM     18  C   UNL     1      32.532  13.122  -2.516  0.00  0.00    +0.242 C 
ATOM     19  C   UNL     1      32.364  11.975  -3.478  0.00  0.00    +0.096 C 
ATOM     20  O   UNL     1      33.048  14.186  -2.853  0.00  0.00    -0.273 OA
ENDBRANCH  16  17
BRANCH  12  21
ATOM     21  C   UNL     1      31.462  12.987   3.605  0.00  0.00    +0.391 C 
ATOM     22  O   UNL     1      32.442  12.507   4.395  0.00  0.00    -0.243 OA
ATOM     23  O   UNL     1      30.143  13.092   3.406  0.00  0.00    -0.243 OA
ENDBRANCH  12  21
ENDBRANCH   8  10
ENDBRANCH   6   8
ENDBRANCH   5   6
ENDBRANCH   2   5
BRANCH   1  24
ATOM     24  O   UNL     1      26.957  13.739  -3.893  0.00  0.00    -0.450 OA
BRANCH  24  25
ATOM     25  C   UNL     1      26.623  14.842  -4.702  0.00  0.00    +0.240 C 
BRANCH  25  26
ATOM     26  C   UNL     1      25.150  14.993  -5.125  0.00  0.00    +0.100 C 
BRANCH  26  28
ATOM     27  N   UNL     1      24.199  15.503  -2.889  0.00  0.00    -0.134 NA
ATOM     28  C   UNL     1      24.257  14.690  -3.991  0.00  0.00    +0.086 A 
ATOM     29  C   UNL     1      23.383  13.642  -3.819  0.00  0.00    +0.134 A 
ATOM     30  N   UNL     1      22.835  13.861  -2.590  0.00  0.00    -0.243 N 
ATOM     31  N   UNL     1      23.317  14.990  -2.039  0.00  0.00    -0.065 NA
BRANCH  30  32
ATOM     32  C   UNL     1      21.780  13.125  -1.925  0.00  0.00    +0.241 C 
BRANCH  32  33
ATOM     33  C   UNL     1      22.255  12.508  -0.634  0.00  0.00    +0.241 C 
ATOM     34  O   UNL     1      21.442  12.182   0.229  0.00  0.00    -0.273 OA
ATOM     35  N   UNL     1      23.626  12.429  -0.508  0.00  0.00    -0.253 N 
ATOM     36  H   UNL     1      24.252  12.891  -1.149  0.00  0.00    +0.158 HD
ATOM     37  C   UNL     1      24.271  11.872   0.590  0.00  0.00    +0.221 A 
ATOM     38  N   UNL     1      25.583  12.139   0.681  0.00  0.00    -0.223 NA
ATOM     39  C   UNL     1      26.210  11.669   1.780  0.00  0.00    +0.116 A 
ATOM     40  C   UNL     1      25.589  10.931   2.760  0.00  0.00    +0.039 A 
ATOM     41  C   UNL     1      24.260  10.678   2.545  0.00  0.00    +0.116 A 
ATOM     42  N   UNL     1      23.592  11.136   1.475  0.00  0.00    -0.223 NA
ENDBRANCH  32  33
ENDBRANCH  30  32
ENDBRANCH  26  28
ENDBRANCH  25  26
ENDBRANCH  24  25
ENDBRANCH   1  24
TORSDOF 12
