REMARK VINA RESULT:    -6.516      3.210      8.633
REMARK INTER + INTRA:         -12.927
REMARK INTER:                 -11.335
REMARK INTRA:                  -1.593
REMARK UNBOUND:                -1.841
REMARK  Name = lig_assembled_39.pdb
REMARK  12 active torsions:
REMARK  status: ('A' for Active; 'I' for Inactive)
REMARK    1  A    between atoms: _2  and  _8
REMARK    2  A    between atoms: _5  and  _6
REMARK    3  A    between atoms: _5  and  _14
REMARK    4  A    between atoms: _8  and  _9
REMARK    5  A    between atoms: _14  and  _16
REMARK    6  A    between atoms: _15  and  _20
REMARK    7  A    between atoms: _16  and  _19
REMARK    8  A    between atoms: _24  and  _34
REMARK    9  A    between atoms: _26  and  _27
REMARK   10  A    between atoms: _28  and  _30
REMARK   11  A    between atoms: _30  and  _32
REMARK   12  A    between atoms: _32  and  _34
REMARK                            x       y       z     vdW  Elec       q    Type
REMARK                         _______ _______ _______ _____ _____    ______ ____
ROOT
ATOM      1  C   UNL     1      27.498  17.390  -1.665  0.00  0.00    +0.400 C 
ATOM      2  N   UNL     1      26.422  17.141  -2.484  0.00  0.00    -0.278 N 
ATOM      3  H   UNL     1      25.871  18.056  -2.454  0.00  0.00    +0.152 HD
ATOM      4  O   UNL     1      27.675  18.542  -1.276  0.00  0.00    -0.226 OA
ENDROOT
BRANCH   2   5
ATOM      5  C   UNL     1      25.720  16.214  -3.368  0.00  0.00    +0.152 C 
BRANCH   5   6
ATOM      6  C   UNL     1      24.673  15.299  -2.699  0.00  0.00    +0.193 C 
ATOM      7  O   UNL     1      23.457  15.428  -3.469  0.00  0.00    -0.219 OA
BRANCH   6   8
ATOM      8  C   UNL     1      24.958  13.781  -2.679  0.00  0.00    +0.212 C 
ATOM      9  O   UNL     1      26.246  13.505  -3.251  0.00  0.00    -0.218 OA
BRANCH   8  10
ATOM     10  C   UNL     1      24.903  13.155  -1.234  0.00  0.00    +0.171 C 
ATOM     11  O   UNL     1      26.044  12.357  -0.939  0.00  0.00    -0.343 OA
ATOM     12  C   UNL     1      26.144  11.498   0.158  0.00  0.00    +0.220 C 
ATOM     13  C   UNL     1      24.928  10.561   0.260  0.00  0.00    +0.076 C 
ATOM     14  C   UNL     1      23.665  11.437   0.237  0.00  0.00    +0.177 C 
ATOM     15  O   UNL     1      22.510  10.621   0.369  0.00  0.00    -0.221 OA
ATOM     16  C   UNL     1      23.618  12.277  -1.077  0.00  0.00    +0.155 C 
BRANCH  16  17
ATOM     17  N   UNL     1      22.416  13.106  -1.107  0.00  0.00    -0.202 NA
ATOM     18  C   UNL     1      21.367  13.083  -1.968  0.00  0.00    +0.242 C 
ATOM     19  C   UNL     1      20.121  13.846  -1.598  0.00  0.00    +0.096 C 
ATOM     20  O   UNL     1      21.455  12.447  -3.016  0.00  0.00    -0.273 OA
ENDBRANCH  16  17
BRANCH  12  21
ATOM     21  C   UNL     1      26.423  12.269   1.561  0.00  0.00    +0.391 C 
ATOM     22  O   UNL     1      25.769  11.546   2.491  0.00  0.00    -0.243 OA
ATOM     23  O   UNL     1      27.419  13.130   1.317  0.00  0.00    -0.243 OA
ENDBRANCH  12  21
ENDBRANCH   8  10
ENDBRANCH   6   8
ENDBRANCH   5   6
ENDBRANCH   2   5
BRANCH   1  24
ATOM     24  O   UNL     1      28.215  16.361  -1.353  0.00  0.00    -0.450 OA
BRANCH  24  25
ATOM     25  C   UNL     1      28.932  15.853  -0.252  0.00  0.00    +0.240 C 
BRANCH  25  26
ATOM     26  C   UNL     1      30.303  16.485   0.056  0.00  0.00    +0.100 C 
BRANCH  26  28
ATOM     27  N   UNL     1      32.143  15.139  -0.911  0.00  0.00    -0.134 NA
ATOM     28  C   UNL     1      31.339  15.441   0.158  0.00  0.00    +0.086 A 
ATOM     29  C   UNL     1      31.696  14.653   1.229  0.00  0.00    +0.134 A 
ATOM     30  N   UNL     1      32.775  13.953   0.772  0.00  0.00    -0.247 N 
ATOM     31  N   UNL     1      33.001  14.203  -0.532  0.00  0.00    -0.065 NA
BRANCH  30  32
ATOM     32  C   UNL     1      33.671  13.093   1.531  0.00  0.00    +0.181 C 
BRANCH  32  33
ATOM     33  C   UNL     1      32.993  12.409   2.704  0.00  0.00    -0.012 A 
ATOM     34  C   UNL     1      32.116  11.323   2.505  0.00  0.00    +0.006 A 
ATOM     35  C   UNL     1      31.482  10.687   3.576  0.00  0.00    +0.000 A 
ATOM     36  C   UNL     1      31.690  11.139   4.873  0.00  0.00    +0.001 A 
ATOM     37  C   UNL     1      32.517  12.236   5.096  0.00  0.00    +0.015 A 
ATOM     38  C   UNL     1      33.155  12.874   4.023  0.00  0.00    +0.023 A 
ATOM     39 BR   UNL     1      34.213  14.397   4.444  0.00  0.00    -0.050 Br
ENDBRANCH  32  33
ENDBRANCH  30  32
ENDBRANCH  26  28
ENDBRANCH  25  26
ENDBRANCH  24  25
ENDBRANCH   1  24
TORSDOF 12
