REMARK VINA RESULT:    -6.611      2.120      3.463
REMARK INTER + INTRA:         -14.449
REMARK INTER:                 -12.530
REMARK INTRA:                  -1.919
REMARK UNBOUND:                -2.234
REMARK  Name = lig_assembled_83.pdb
REMARK  15 active torsions:
REMARK  status: ('A' for Active; 'I' for Inactive)
REMARK    1  A    between atoms: _2  and  _11
REMARK    2  A    between atoms: _3  and  _13
REMARK    3  A    between atoms: _8  and  _9
REMARK    4  A    between atoms: _8  and  _19
REMARK    5  A    between atoms: _11  and  _12
REMARK    6  A    between atoms: _12  and  _13
REMARK    7  A    between atoms: _12  and  _17
REMARK    8  A    between atoms: _19  and  _21
REMARK    9  A    between atoms: _20  and  _25
REMARK   10  A    between atoms: _21  and  _24
REMARK   11  A    between atoms: _29  and  _39
REMARK   12  A    between atoms: _31  and  _32
REMARK   13  A    between atoms: _33  and  _35
REMARK   14  A    between atoms: _35  and  _37
REMARK   15  A    between atoms: _37  and  _39
REMARK                            x       y       z     vdW  Elec       q    Type
REMARK                         _______ _______ _______ _____ _____    ______ ____
ROOT
ATOM      1  C   UNL     1      27.882  17.323  -1.218  0.00  0.00    +0.400 C 
ATOM      2  N   UNL     1      28.270  16.242  -0.461  0.00  0.00    -0.278 N 
ATOM      3  H   UNL     1      28.533  16.679   0.478  0.00  0.00    +0.152 HD
ATOM      4  O   UNL     1      27.750  18.407  -0.655  0.00  0.00    -0.226 OA
ENDROOT
BRANCH   2   5
ATOM      5  C   UNL     1      28.466  14.798  -0.363  0.00  0.00    +0.152 C 
BRANCH   5   6
ATOM      6  C   UNL     1      29.517  14.323   0.661  0.00  0.00    +0.193 C 
ATOM      7  O   UNL     1      29.676  12.901   0.464  0.00  0.00    -0.219 OA
BRANCH   6   8
ATOM      8  C   UNL     1      30.948  14.892   0.534  0.00  0.00    +0.212 C 
ATOM      9  O   UNL     1      30.987  16.256   0.983  0.00  0.00    -0.218 OA
BRANCH   8  10
ATOM     10  C   UNL     1      32.022  14.066   1.340  0.00  0.00    +0.171 C 
ATOM     11  O   UNL     1      32.381  14.687   2.570  0.00  0.00    -0.343 OA
ATOM     12  C   UNL     1      33.471  14.306   3.356  0.00  0.00    +0.220 C 
ATOM     13  C   UNL     1      34.765  14.212   2.529  0.00  0.00    +0.076 C 
ATOM     14  C   UNL     1      34.481  13.294   1.328  0.00  0.00    +0.177 C 
ATOM     15  O   UNL     1      35.660  13.140   0.550  0.00  0.00    -0.221 OA
ATOM     16  C   UNL     1      33.310  13.872   0.475  0.00  0.00    +0.155 C 
BRANCH  16  17
ATOM     17  N   UNL     1      33.041  13.007  -0.671  0.00  0.00    -0.202 NA
ATOM     18  C   UNL     1      33.107  13.280  -1.999  0.00  0.00    +0.242 C 
ATOM     19  C   UNL     1      33.067  12.127  -2.969  0.00  0.00    +0.096 C 
ATOM     20  O   UNL     1      33.197  14.446  -2.375  0.00  0.00    -0.273 OA
ENDBRANCH  16  17
BRANCH  12  21
ATOM     21  C   UNL     1      33.210  12.951   4.212  0.00  0.00    +0.391 C 
ATOM     22  O   UNL     1      34.387  12.686   4.812  0.00  0.00    -0.243 OA
ATOM     23  O   UNL     1      31.882  12.784   4.244  0.00  0.00    -0.243 OA
ENDBRANCH  12  21
ENDBRANCH   8  10
ENDBRANCH   6   8
ENDBRANCH   5   6
ENDBRANCH   2   5
BRANCH   1  24
ATOM     24  O   UNL     1      27.720  17.094  -2.480  0.00  0.00    -0.450 OA
BRANCH  24  25
ATOM     25  C   UNL     1      26.762  17.307  -3.490  0.00  0.00    +0.240 C 
BRANCH  25  26
ATOM     26  C   UNL     1      26.519  16.163  -4.493  0.00  0.00    +0.100 C 
BRANCH  26  28
ATOM     27  N   UNL     1      26.003  14.258  -2.986  0.00  0.00    -0.134 NA
ATOM     28  C   UNL     1      25.591  15.168  -3.926  0.00  0.00    +0.086 A 
ATOM     29  C   UNL     1      24.256  14.963  -4.190  0.00  0.00    +0.133 A 
ATOM     30  N   UNL     1      23.915  13.931  -3.373  0.00  0.00    -0.249 N 
ATOM     31  N   UNL     1      24.965  13.498  -2.658  0.00  0.00    -0.065 NA
BRANCH  30  32
ATOM     32  C   UNL     1      22.624  13.287  -3.253  0.00  0.00    +0.178 C 
BRANCH  32  33
ATOM     33  C   UNL     1      21.980  13.547  -1.888  0.00  0.00    +0.156 C 
BRANCH  33  34
ATOM     34  O   UNL     1      22.592  14.686  -1.271  0.00  0.00    -0.388 OA
ATOM     35  H   UNL     1      21.914  15.206  -0.793  0.00  0.00    +0.210 HD
ENDBRANCH  33  34
BRANCH  33  36
ATOM     36  C   UNL     1      20.467  13.771  -2.039  0.00  0.00    +0.162 C 
BRANCH  36  37
ATOM     37  N   UNL     1      20.020  13.650  -3.417  0.00  0.00    -0.269 N 
ATOM     38  C   UNL     1      19.548  12.477  -3.961  0.00  0.00    +0.113 A 
ATOM     39  C   UNL     1      19.203  12.782  -5.256  0.00  0.00    +0.137 A 
ATOM     40  N   UNL     1      19.475  14.094  -5.535  0.00  0.00    -0.172 NA
ATOM     41  C   UNL     1      19.959  14.595  -4.413  0.00  0.00    +0.450 A 
ATOM     42  N   UNL     1      20.361  15.978  -4.291  0.00  0.00    +0.120 N 
ATOM     43  O   UNL     1      20.803  16.355  -3.193  0.00  0.00    +0.045 OA
ATOM     44  O   UNL     1      20.250  16.695  -5.292  0.00  0.00    -0.573 OA
ENDBRANCH  36  37
ENDBRANCH  33  36
ENDBRANCH  32  33
ENDBRANCH  30  32
ENDBRANCH  26  28
ENDBRANCH  25  26
ENDBRANCH  24  25
ENDBRANCH   1  24
TORSDOF 15
