REMARK VINA RESULT:    -6.686      2.065      3.469
REMARK INTER + INTRA:         -13.520
REMARK INTER:                 -11.507
REMARK INTRA:                  -2.013
REMARK UNBOUND:                -2.144
REMARK  Name = lig_assembled_63.pdb
REMARK  12 active torsions:
REMARK  status: ('A' for Active; 'I' for Inactive)
REMARK    1  A    between atoms: _2  and  _10
REMARK    2  A    between atoms: _6  and  _14
REMARK    3  A    between atoms: _7  and  _8
REMARK    4  A    between atoms: _7  and  _15
REMARK    5  A    between atoms: _15  and  _17
REMARK    6  A    between atoms: _16  and  _21
REMARK    7  A    between atoms: _17  and  _20
REMARK    8  A    between atoms: _25  and  _35
REMARK    9  A    between atoms: _27  and  _28
REMARK   10  A    between atoms: _29  and  _31
REMARK   11  A    between atoms: _31  and  _33
REMARK   12  A    between atoms: _33  and  _35
REMARK                            x       y       z     vdW  Elec       q    Type
REMARK                         _______ _______ _______ _____ _____    ______ ____
ROOT
ATOM      1  C   UNL     1      28.232  16.890  -1.308  0.00  0.00    +0.400 C 
ATOM      2  N   UNL     1      28.214  15.583  -0.882  0.00  0.00    -0.278 N 
ATOM      3  H   UNL     1      29.240  15.381  -0.660  0.00  0.00    +0.152 HD
ATOM      4  O   UNL     1      29.271  17.529  -1.172  0.00  0.00    -0.226 OA
ENDROOT
BRANCH   2   5
ATOM      5  C   UNL     1      27.439  14.380  -0.589  0.00  0.00    +0.152 C 
BRANCH   5   6
ATOM      6  C   UNL     1      27.806  13.121  -1.401  0.00  0.00    +0.193 C 
ATOM      7  O   UNL     1      28.294  13.580  -2.681  0.00  0.00    -0.219 OA
BRANCH   6   8
ATOM      8  C   UNL     1      28.939  12.223  -0.856  0.00  0.00    +0.212 C 
ATOM      9  O   UNL     1      29.960  12.044  -1.851  0.00  0.00    -0.218 OA
BRANCH   8  10
ATOM     10  C   UNL     1      29.607  12.788   0.455  0.00  0.00    +0.171 C 
ATOM     11  O   UNL     1      30.951  13.210   0.247  0.00  0.00    -0.343 OA
ATOM     12  C   UNL     1      31.848  13.520   1.272  0.00  0.00    +0.220 C 
ATOM     13  C   UNL     1      31.907  12.407   2.333  0.00  0.00    +0.076 C 
ATOM     14  C   UNL     1      30.467  12.131   2.795  0.00  0.00    +0.177 C 
ATOM     15  O   UNL     1      30.468  11.135   3.808  0.00  0.00    -0.221 OA
ATOM     16  C   UNL     1      29.586  11.702   1.580  0.00  0.00    +0.155 C 
BRANCH  16  17
ATOM     17  N   UNL     1      28.218  11.432   2.015  0.00  0.00    -0.202 NA
ATOM     18  C   UNL     1      27.276  12.284   2.494  0.00  0.00    +0.242 C 
ATOM     19  C   UNL     1      25.854  11.796   2.591  0.00  0.00    +0.096 C 
ATOM     20  O   UNL     1      27.600  13.420   2.833  0.00  0.00    -0.273 OA
ENDBRANCH  16  17
BRANCH  12  21
ATOM     21  C   UNL     1      31.584  14.974   1.946  0.00  0.00    +0.391 C 
ATOM     22  O   UNL     1      32.404  15.017   3.014  0.00  0.00    -0.243 OA
ATOM     23  O   UNL     1      30.898  15.682   1.040  0.00  0.00    -0.243 OA
ENDBRANCH  12  21
ENDBRANCH   8  10
ENDBRANCH   6   8
ENDBRANCH   5   6
ENDBRANCH   2   5
BRANCH   1  24
ATOM     24  O   UNL     1      27.138  17.317  -1.850  0.00  0.00    -0.450 OA
BRANCH  24  25
ATOM     25  C   UNL     1      26.610  17.575  -3.130  0.00  0.00    +0.240 C 
BRANCH  25  26
ATOM     26  C   UNL     1      26.608  16.417  -4.145  0.00  0.00    +0.100 C 
BRANCH  26  28
ATOM     27  N   UNL     1      24.873  14.852  -4.951  0.00  0.00    -0.134 NA
ATOM     28  C   UNL     1      25.448  15.535  -3.918  0.00  0.00    +0.087 A 
ATOM     29  C   UNL     1      24.762  15.253  -2.761  0.00  0.00    +0.141 A 
ATOM     30  N   UNL     1      23.738  14.412  -3.148  0.00  0.00    -0.201 N 
ATOM     31  N   UNL     1      23.842  14.169  -4.472  0.00  0.00    -0.059 NA
BRANCH  30  32
ATOM     32  C   UNL     1      22.690  13.915  -2.318  0.00  0.00    +0.173 A 
ATOM     33  C   UNL     1      21.423  14.503  -2.281  0.00  0.00    +0.096 A 
ATOM     34  C   UNL     1      20.497  13.994  -1.356  0.00  0.00    +0.024 A 
ATOM     35  C   UNL     1      20.834  12.924  -0.531  0.00  0.00    +0.021 A 
ATOM     36  C   UNL     1      22.094  12.378  -0.661  0.00  0.00    +0.113 A 
ATOM     37  N   UNL     1      23.021  12.846  -1.523  0.00  0.00    -0.235 NA
BRANCH  33  38
ATOM     38  C   UNL     1      20.977  15.575  -3.121  0.00  0.00    +0.103 C 
ATOM     39  N   UNL     1      20.701  16.426  -3.861  0.00  0.00    -0.191 NA
ENDBRANCH  33  38
ENDBRANCH  30  32
ENDBRANCH  26  28
ENDBRANCH  25  26
ENDBRANCH  24  25
ENDBRANCH   1  24
TORSDOF 12
