REMARK VINA RESULT:    -7.144      2.563      8.904
REMARK INTER + INTRA:         -13.659
REMARK INTER:                 -12.156
REMARK INTRA:                  -1.503
REMARK UNBOUND:                -1.503
REMARK  Name = lig_assembled_89.pdb
REMARK  14 active torsions:
REMARK  status: ('A' for Active; 'I' for Inactive)
REMARK    1  A    between atoms: _2  and  _11
REMARK    2  A    between atoms: _5  and  _19
REMARK    3  A    between atoms: _8  and  _9
REMARK    4  A    between atoms: _8  and  _24
REMARK    5  A    between atoms: _19  and  _20
REMARK    6  A    between atoms: _19  and  _21
REMARK    7  A    between atoms: _24  and  _26
REMARK    8  A    between atoms: _25  and  _30
REMARK    9  A    between atoms: _26  and  _29
REMARK   10  A    between atoms: _34  and  _44
REMARK   11  A    between atoms: _36  and  _37
REMARK   12  A    between atoms: _38  and  _40
REMARK   13  A    between atoms: _40  and  _42
REMARK   14  A    between atoms: _42  and  _44
REMARK                            x       y       z     vdW  Elec       q    Type
REMARK                         _______ _______ _______ _____ _____    ______ ____
ROOT
ATOM      1  C   UNL     1      26.612  16.253  -2.289  0.00  0.00    +0.240 C 
ENDROOT
BRANCH   1   2
ATOM      2  C   UNL     1      27.473  17.417  -1.760  0.00  0.00    +0.100 C 
BRANCH   2   4
ATOM      3  N   UNL     1      29.646  17.715  -0.633  0.00  0.00    -0.134 NA
ATOM      4  C   UNL     1      28.620  16.895  -0.999  0.00  0.00    +0.087 A 
ATOM      5  C   UNL     1      28.870  15.629  -0.526  0.00  0.00    +0.141 A 
ATOM      6  N   UNL     1      30.067  15.727   0.158  0.00  0.00    -0.200 N 
ATOM      7  N   UNL     1      30.512  17.002   0.072  0.00  0.00    -0.059 NA
BRANCH   6   8
ATOM      8  C   UNL     1      30.682  14.685   0.912  0.00  0.00    +0.186 A 
ATOM      9  C   UNL     1      31.764  13.888   0.595  0.00  0.00    +0.158 A 
ATOM     10  C   UNL     1      32.544  13.722  -0.591  0.00  0.00    +0.280 A 
ATOM     11  O   UNL     1      32.140  14.062  -1.695  0.00  0.00    -0.265 OA
ATOM     12  N   UNL     1      33.800  13.109  -0.404  0.00  0.00    -0.302 N 
ATOM     13  C   UNL     1      34.050  12.310   0.775  0.00  0.00    +0.069 A 
ATOM     14  C   UNL     1      35.158  11.458   0.893  0.00  0.00    +0.028 A 
ATOM     15  C   UNL     1      35.341  10.658   2.030  0.00  0.00    +0.002 A 
ATOM     16  C   UNL     1      34.429  10.702   3.079  0.00  0.00    +0.002 A 
ATOM     17  C   UNL     1      33.325  11.546   3.001  0.00  0.00    +0.028 A 
ATOM     18  C   UNL     1      33.138  12.332   1.854  0.00  0.00    +0.072 A 
ATOM     19  N   UNL     1      32.031  13.188   1.741  0.00  0.00    -0.291 N 
ATOM     20  C   UNL     1      31.052  13.499   2.650  0.00  0.00    +0.207 A 
ATOM     21  N   UNL     1      30.225  14.411   2.187  0.00  0.00    -0.216 NA
BRANCH  12  22
ATOM     22  C   UNL     1      34.761  13.137  -1.532  0.00  0.00    +0.085 C 
ATOM     23  C   UNL     1      34.768  11.847  -2.373  0.00  0.00    +0.030 C 
ATOM     24  C   UNL     1      36.176  13.479  -1.063  0.00  0.00    +0.030 C 
ENDBRANCH  12  22
ENDBRANCH   6   8
ENDBRANCH   2   4
ENDBRANCH   1   2
BRANCH   1  25
ATOM     25  O   UNL     1      26.789  15.873  -3.633  0.00  0.00    -0.450 OA
BRANCH  25  26
ATOM     26  C   UNL     1      26.240  15.103  -4.514  0.00  0.00    +0.400 C 
ATOM     27  N   UNL     1      26.317  13.754  -4.257  0.00  0.00    -0.278 N 
ATOM     28  H   UNL     1      25.651  13.327  -4.976  0.00  0.00    +0.152 HD
ATOM     29  O   UNL     1      25.643  15.466  -5.524  0.00  0.00    -0.226 OA
BRANCH  27  30
ATOM     30  C   UNL     1      26.897  12.668  -3.470  0.00  0.00    +0.152 C 
BRANCH  30  31
ATOM     31  C   UNL     1      25.930  11.918  -2.531  0.00  0.00    +0.193 C 
ATOM     32  O   UNL     1      26.230  10.511  -2.665  0.00  0.00    -0.219 OA
BRANCH  31  33
ATOM     33  C   UNL     1      26.047  12.194  -1.016  0.00  0.00    +0.212 C 
ATOM     34  O   UNL     1      26.546  13.521  -0.785  0.00  0.00    -0.218 OA
BRANCH  33  35
ATOM     35  C   UNL     1      24.683  12.028  -0.244  0.00  0.00    +0.171 C 
ATOM     36  O   UNL     1      24.533  10.734   0.331  0.00  0.00    -0.343 OA
ATOM     37  C   UNL     1      23.337  10.238   0.854  0.00  0.00    +0.220 C 
ATOM     38  C   UNL     1      22.169  10.405  -0.134  0.00  0.00    +0.076 C 
ATOM     39  C   UNL     1      22.128  11.883  -0.555  0.00  0.00    +0.177 C 
ATOM     40  O   UNL     1      21.038  12.101  -1.440  0.00  0.00    -0.221 OA
ATOM     41  C   UNL     1      23.482  12.293  -1.211  0.00  0.00    +0.155 C 
BRANCH  41  42
ATOM     42  N   UNL     1      23.444  13.695  -1.619  0.00  0.00    -0.202 NA
ATOM     43  C   UNL     1      23.172  14.239  -2.832  0.00  0.00    +0.242 C 
ATOM     44  C   UNL     1      22.910  15.721  -2.910  0.00  0.00    +0.096 C 
ATOM     45  O   UNL     1      23.144  13.519  -3.828  0.00  0.00    -0.273 OA
ENDBRANCH  41  42
BRANCH  37  46
ATOM     46  C   UNL     1      22.971  10.840   2.318  0.00  0.00    +0.391 C 
ATOM     47  O   UNL     1      21.707  10.437   2.554  0.00  0.00    -0.243 OA
ATOM     48  O   UNL     1      24.131  11.238   2.855  0.00  0.00    -0.243 OA
ENDBRANCH  37  46
ENDBRANCH  33  35
ENDBRANCH  31  33
ENDBRANCH  30  31
ENDBRANCH  27  30
ENDBRANCH  25  26
ENDBRANCH   1  25
TORSDOF 12
