REMARK VINA RESULT:    -6.358      1.933      2.831
REMARK INTER + INTRA:         -12.897
REMARK INTER:                 -11.800
REMARK INTRA:                  -1.097
REMARK UNBOUND:                -1.336
REMARK  Name = lig_assembled_19.pdb
REMARK  15 active torsions:
REMARK  status: ('A' for Active; 'I' for Inactive)
REMARK    1  A    between atoms: _2  and  _8
REMARK    2  A    between atoms: _4  and  _10
REMARK    3  A    between atoms: _5  and  _6
REMARK    4  A    between atoms: _5  and  _13
REMARK    5  A    between atoms: _8  and  _9
REMARK    6  A    between atoms: _9  and  _12
REMARK    7  A    between atoms: _10  and  _12
REMARK    8  A    between atoms: _13  and  _15
REMARK    9  A    between atoms: _14  and  _19
REMARK   10  A    between atoms: _15  and  _18
REMARK   11  A    between atoms: _23  and  _33
REMARK   12  A    between atoms: _25  and  _26
REMARK   13  A    between atoms: _27  and  _29
REMARK   14  A    between atoms: _29  and  _31
REMARK   15  A    between atoms: _31  and  _33
REMARK                            x       y       z     vdW  Elec       q    Type
REMARK                         _______ _______ _______ _____ _____    ______ ____
ROOT
ATOM      1  C   UNL     1      28.905  14.529   0.170  0.00  0.00    +0.152 C 
ENDROOT
BRANCH   1   3
ATOM      2  C   UNL     1      29.224  17.188  -0.352  0.00  0.00    +0.400 C 
ATOM      3  N   UNL     1      29.323  15.928   0.190  0.00  0.00    -0.278 N 
ATOM      4  H   UNL     1      30.016  16.058   0.993  0.00  0.00    +0.152 HD
ATOM      5  O   UNL     1      29.742  18.122   0.255  0.00  0.00    -0.226 OA
BRANCH   2   6
ATOM      6  O   UNL     1      28.608  17.263  -1.486  0.00  0.00    -0.450 OA
BRANCH   6   7
ATOM      7  C   UNL     1      27.303  17.450  -1.983  0.00  0.00    +0.240 C 
BRANCH   7   8
ATOM      8  C   UNL     1      27.099  17.334  -3.505  0.00  0.00    +0.100 C 
BRANCH   8  10
ATOM      9  N   UNL     1      25.969  15.773  -5.062  0.00  0.00    -0.134 NA
ATOM     10  C   UNL     1      26.073  16.321  -3.810  0.00  0.00    +0.086 A 
ATOM     11  C   UNL     1      25.108  15.770  -2.998  0.00  0.00    +0.133 A 
ATOM     12  N   UNL     1      24.446  14.905  -3.816  0.00  0.00    -0.248 N 
ATOM     13  N   UNL     1      24.966  14.903  -5.054  0.00  0.00    -0.065 NA
BRANCH  12  14
ATOM     14  C   UNL     1      23.329  14.049  -3.485  0.00  0.00    +0.186 C 
BRANCH  14  15
ATOM     15  C   UNL     1      22.709  14.419  -2.141  0.00  0.00    +0.255 C 
BRANCH  15  16
ATOM     16  O   UNL     1      21.342  14.855  -2.272  0.00  0.00    -0.463 OA
BRANCH  16  17
ATOM     17  C   UNL     1      20.408  14.079  -1.660  0.00  0.00    +0.304 C 
ATOM     18  O   UNL     1      20.581  13.473  -0.612  0.00  0.00    -0.251 OA
ATOM     19  C   UNL     1      19.120  14.091  -2.424  0.00  0.00    +0.136 C 
ENDBRANCH  16  17
ENDBRANCH  15  16
ENDBRANCH  14  15
ENDBRANCH  12  14
ENDBRANCH   8  10
ENDBRANCH   7   8
ENDBRANCH   6   7
ENDBRANCH   2   6
ENDBRANCH   1   3
BRANCH   1  20
ATOM     20  C   UNL     1      29.333  13.674   1.380  0.00  0.00    +0.193 C 
ATOM     21  O   UNL     1      29.128  12.294   1.008  0.00  0.00    -0.219 OA
BRANCH  20  22
ATOM     22  C   UNL     1      30.815  13.740   1.813  0.00  0.00    +0.212 C 
ATOM     23  O   UNL     1      31.136  15.052   2.304  0.00  0.00    -0.218 OA
BRANCH  22  24
ATOM     24  C   UNL     1      31.189  12.682   2.920  0.00  0.00    +0.171 C 
ATOM     25  O   UNL     1      30.254  12.658   3.994  0.00  0.00    -0.343 OA
ATOM     26  C   UNL     1      30.465  12.001   5.208  0.00  0.00    +0.220 C 
ATOM     27  C   UNL     1      31.822  12.374   5.830  0.00  0.00    +0.076 C 
ATOM     28  C   UNL     1      32.903  12.127   4.765  0.00  0.00    +0.177 C 
ATOM     29  O   UNL     1      34.185  12.419   5.302  0.00  0.00    -0.221 OA
ATOM     30  C   UNL     1      32.611  12.986   3.495  0.00  0.00    +0.155 C 
BRANCH  30  31
ATOM     31  N   UNL     1      33.640  12.760   2.483  0.00  0.00    -0.202 NA
ATOM     32  C   UNL     1      34.815  13.409   2.279  0.00  0.00    +0.242 C 
ATOM     33  C   UNL     1      35.825  12.785   1.351  0.00  0.00    +0.096 C 
ATOM     34  O   UNL     1      35.026  14.476   2.851  0.00  0.00    -0.273 OA
ENDBRANCH  30  31
BRANCH  26  35
ATOM     35  C   UNL     1      30.274  10.390   5.114  0.00  0.00    +0.391 C 
ATOM     36  O   UNL     1      29.764  10.172   3.887  0.00  0.00    -0.243 OA
ATOM     37  O   UNL     1      30.959   9.876   6.143  0.00  0.00    -0.243 OA
ENDBRANCH  26  35
ENDBRANCH  22  24
ENDBRANCH  20  22
ENDBRANCH   1  20
TORSDOF 14
