REMARK VINA RESULT:    -7.079      2.963      8.340
REMARK INTER + INTRA:         -12.950
REMARK INTER:                 -11.223
REMARK INTRA:                  -1.727
REMARK UNBOUND:                -1.318
REMARK  Name = lig_assembled_40.pdb
REMARK  12 active torsions:
REMARK  status: ('A' for Active; 'I' for Inactive)
REMARK    1  A    between atoms: _2  and  _8
REMARK    2  A    between atoms: _5  and  _6
REMARK    3  A    between atoms: _5  and  _14
REMARK    4  A    between atoms: _11  and  _12
REMARK    5  A    between atoms: _14  and  _16
REMARK    6  A    between atoms: _15  and  _20
REMARK    7  A    between atoms: _16  and  _19
REMARK    8  A    between atoms: _24  and  _34
REMARK    9  A    between atoms: _26  and  _27
REMARK   10  A    between atoms: _28  and  _30
REMARK   11  A    between atoms: _30  and  _32
REMARK   12  A    between atoms: _32  and  _34
REMARK                            x       y       z     vdW  Elec       q    Type
REMARK                         _______ _______ _______ _____ _____    ______ ____
ROOT
ATOM      1  C   UNL     1      28.398  17.341  -0.976  0.00  0.00    +0.400 C 
ATOM      2  N   UNL     1      27.771  16.144  -1.231  0.00  0.00    -0.278 N 
ATOM      3  H   UNL     1      26.735  16.406  -1.246  0.00  0.00    +0.152 HD
ATOM      4  O   UNL     1      27.724  18.367  -1.012  0.00  0.00    -0.226 OA
ENDROOT
BRANCH   1   5
ATOM      5  O   UNL     1      29.656  17.263  -0.688  0.00  0.00    -0.450 OA
BRANCH   5   6
ATOM      6  C   UNL     1      30.508  16.580   0.202  0.00  0.00    +0.240 C 
BRANCH   6   7
ATOM      7  C   UNL     1      31.292  15.374  -0.348  0.00  0.00    +0.100 C 
BRANCH   7   9
ATOM      8  N   UNL     1      32.997  13.858   0.612  0.00  0.00    -0.134 NA
ATOM      9  C   UNL     1      31.843  14.571   0.759  0.00  0.00    +0.086 A 
ATOM     10  C   UNL     1      31.371  14.401   2.039  0.00  0.00    +0.139 A 
ATOM     11  N   UNL     1      32.297  13.592   2.657  0.00  0.00    -0.220 N 
ATOM     12  N   UNL     1      33.262  13.259   1.764  0.00  0.00    -0.061 NA
BRANCH  11  13
ATOM     13  C   UNL     1      32.337  13.166   4.010  0.00  0.00    +0.067 A 
ATOM     14  C   UNL     1      33.507  13.295   4.769  0.00  0.00    +0.028 A 
ATOM     15  C   UNL     1      33.552  12.806   6.078  0.00  0.00    +0.005 A 
ATOM     16  C   UNL     1      32.435  12.185   6.646  0.00  0.00    -0.050 A 
ATOM     17  C   UNL     1      31.255  12.090   5.898  0.00  0.00    +0.005 A 
ATOM     18  C   UNL     1      32.494  11.617   8.033  0.00  0.00    +0.044 C 
ATOM     19  C   UNL     1      31.203  12.577   4.588  0.00  0.00    +0.028 A 
ENDBRANCH  11  13
ENDBRANCH   7   9
ENDBRANCH   6   7
ENDBRANCH   5   6
ENDBRANCH   1   5
BRANCH   2  20
ATOM     20  C   UNL     1      27.883  14.712  -1.497  0.00  0.00    +0.152 C 
BRANCH  20  21
ATOM     21  C   UNL     1      26.590  14.001  -1.948  0.00  0.00    +0.193 C 
ATOM     22  O   UNL     1      26.689  13.828  -3.378  0.00  0.00    -0.219 OA
BRANCH  21  23
ATOM     23  C   UNL     1      26.329  12.579  -1.404  0.00  0.00    +0.212 C 
ATOM     24  O   UNL     1      27.345  11.673  -1.863  0.00  0.00    -0.218 OA
BRANCH  23  25
ATOM     25  C   UNL     1      26.268  12.514   0.170  0.00  0.00    +0.171 C 
ATOM     26  O   UNL     1      27.485  12.050   0.746  0.00  0.00    -0.343 OA
ATOM     27  C   UNL     1      27.629  11.668   2.082  0.00  0.00    +0.220 C 
ATOM     28  C   UNL     1      26.543  10.664   2.508  0.00  0.00    +0.076 C 
ATOM     29  C   UNL     1      25.179  11.280   2.154  0.00  0.00    +0.177 C 
ATOM     30  O   UNL     1      24.135  10.408   2.564  0.00  0.00    -0.221 OA
ATOM     31  C   UNL     1      25.103  11.575   0.623  0.00  0.00    +0.155 C 
BRANCH  31  32
ATOM     32  N   UNL     1      23.806  12.154   0.282  0.00  0.00    -0.202 NA
ATOM     33  C   UNL     1      22.758  11.604  -0.383  0.00  0.00    +0.242 C 
ATOM     34  C   UNL     1      21.432  12.317  -0.341  0.00  0.00    +0.096 C 
ATOM     35  O   UNL     1      22.913  10.550  -0.995  0.00  0.00    -0.273 OA
ENDBRANCH  31  32
BRANCH  27  36
ATOM     36  C   UNL     1      27.717  12.923   3.109  0.00  0.00    +0.391 C 
ATOM     37  O   UNL     1      27.721  12.369   4.336  0.00  0.00    -0.243 OA
ATOM     38  O   UNL     1      28.051  13.986   2.366  0.00  0.00    -0.243 OA
ENDBRANCH  27  36
ENDBRANCH  23  25
ENDBRANCH  21  23
ENDBRANCH  20  21
ENDBRANCH   2  20
TORSDOF 11
