REMARK VINA RESULT:    -6.661      1.389      3.286
REMARK INTER + INTRA:         -14.066
REMARK INTER:                 -11.629
REMARK INTRA:                  -2.437
REMARK UNBOUND:                -2.732
REMARK  Name = lig_assembled_85.pdb
REMARK  14 active torsions:
REMARK  status: ('A' for Active; 'I' for Inactive)
REMARK    1  A    between atoms: _2  and  _9
REMARK    2  A    between atoms: _3  and  _5
REMARK    3  A    between atoms: _3  and  _16
REMARK    4  A    between atoms: _6  and  _7
REMARK    5  A    between atoms: _6  and  _18
REMARK    6  A    between atoms: _14  and  _15
REMARK    7  A    between atoms: _18  and  _20
REMARK    8  A    between atoms: _19  and  _24
REMARK    9  A    between atoms: _20  and  _23
REMARK   10  A    between atoms: _28  and  _38
REMARK   11  A    between atoms: _30  and  _31
REMARK   12  A    between atoms: _32  and  _34
REMARK   13  A    between atoms: _34  and  _36
REMARK   14  A    between atoms: _36  and  _38
REMARK                            x       y       z     vdW  Elec       q    Type
REMARK                         _______ _______ _______ _____ _____    ______ ____
ROOT
ATOM      1  C   UNL     1      28.671  16.935  -0.505  0.00  0.00    +0.400 C 
ATOM      2  N   UNL     1      28.810  15.818   0.286  0.00  0.00    -0.278 N 
ATOM      3  H   UNL     1      29.603  16.084   0.951  0.00  0.00    +0.152 HD
ATOM      4  O   UNL     1      29.284  17.950  -0.186  0.00  0.00    -0.226 OA
ENDROOT
BRANCH   2   5
ATOM      5  C   UNL     1      28.361  14.470   0.625  0.00  0.00    +0.152 C 
BRANCH   5   6
ATOM      6  C   UNL     1      28.744  13.961   2.030  0.00  0.00    +0.193 C 
ATOM      7  O   UNL     1      27.556  13.361   2.592  0.00  0.00    -0.219 OA
BRANCH   6   8
ATOM      8  C   UNL     1      29.815  12.851   2.121  0.00  0.00    +0.212 C 
ATOM      9  O   UNL     1      29.193  11.560   2.221  0.00  0.00    -0.218 OA
BRANCH   8  10
ATOM     10  C   UNL     1      30.807  12.839   0.896  0.00  0.00    +0.171 C 
ATOM     11  O   UNL     1      30.451  11.873  -0.087  0.00  0.00    -0.343 OA
ATOM     12  C   UNL     1      31.278  11.483  -1.144  0.00  0.00    +0.220 C 
ATOM     13  C   UNL     1      32.685  11.099  -0.655  0.00  0.00    +0.076 C 
ATOM     14  C   UNL     1      33.219  12.270   0.186  0.00  0.00    +0.177 C 
ATOM     15  O   UNL     1      34.537  11.983   0.631  0.00  0.00    -0.221 OA
ATOM     16  C   UNL     1      32.263  12.549   1.387  0.00  0.00    +0.155 C 
BRANCH  16  17
ATOM     17  N   UNL     1      32.770  13.657   2.193  0.00  0.00    -0.202 NA
ATOM     18  C   UNL     1      33.207  13.667   3.478  0.00  0.00    +0.242 C 
ATOM     19  C   UNL     1      33.953  14.881   3.970  0.00  0.00    +0.096 C 
ATOM     20  O   UNL     1      32.989  12.698   4.201  0.00  0.00    -0.273 OA
ENDBRANCH  16  17
BRANCH  12  21
ATOM     21  C   UNL     1      31.341  12.568  -2.351  0.00  0.00    +0.391 C 
ATOM     22  O   UNL     1      32.440  12.239  -3.057  0.00  0.00    -0.243 OA
ATOM     23  O   UNL     1      30.147  13.172  -2.368  0.00  0.00    -0.243 OA
ENDBRANCH  12  21
ENDBRANCH   8  10
ENDBRANCH   6   8
ENDBRANCH   5   6
ENDBRANCH   2   5
BRANCH   1  24
ATOM     24  O   UNL     1      27.917  16.793  -1.546  0.00  0.00    -0.450 OA
BRANCH  24  25
ATOM     25  C   UNL     1      27.178  17.586  -2.445  0.00  0.00    +0.240 C 
BRANCH  25  26
ATOM     26  C   UNL     1      26.762  16.944  -3.782  0.00  0.00    +0.100 C 
BRANCH  26  28
ATOM     27  N   UNL     1      25.315  15.097  -4.548  0.00  0.00    -0.134 NA
ATOM     28  C   UNL     1      25.679  15.970  -3.564  0.00  0.00    +0.086 A 
ATOM     29  C   UNL     1      24.932  15.720  -2.434  0.00  0.00    +0.139 A 
ATOM     30  N   UNL     1      24.120  14.667  -2.781  0.00  0.00    -0.219 N 
ATOM     31  N   UNL     1      24.386  14.291  -4.054  0.00  0.00    -0.061 NA
BRANCH  30  32
ATOM     32  C   UNL     1      23.199  13.946  -1.992  0.00  0.00    +0.080 A 
ATOM     33  C   UNL     1      23.534  12.830  -1.209  0.00  0.00    +0.062 A 
ATOM     34  C   UNL     1      22.474  12.061  -0.675  0.00  0.00    +0.016 A 
ATOM     35  C   UNL     1      21.133  12.399  -0.887  0.00  0.00    +0.021 A 
ATOM     36  C   UNL     1      20.825  13.547  -1.602  0.00  0.00    +0.043 A 
ATOM     37 CL   UNL     1      19.183  13.959  -1.903  0.00  0.00    -0.083 Cl
ATOM     38  C   UNL     1      21.845  14.334  -2.129  0.00  0.00    +0.048 A 
BRANCH  33  39
ATOM     39  C   UNL     1      24.886  12.274  -0.911  0.00  0.00    +0.248 C 
ATOM     40  O   UNL     1      25.343  12.578   0.195  0.00  0.00    -0.270 OA
ATOM     41  N   UNL     1      25.637  11.519  -1.818  0.00  0.00    -0.304 N 
ATOM     42  C   UNL     1      25.205  10.969  -3.096  0.00  0.00    +0.132 C 
ATOM     43  C   UNL     1      26.946  11.066  -1.359  0.00  0.00    +0.132 C 
ENDBRANCH  33  39
ENDBRANCH  30  32
ENDBRANCH  26  28
ENDBRANCH  25  26
ENDBRANCH  24  25
ENDBRANCH   1  24
TORSDOF 12
