REMARK VINA RESULT:    -6.650      3.001      9.305
REMARK INTER + INTRA:         -13.189
REMARK INTER:                 -11.385
REMARK INTRA:                  -1.805
REMARK UNBOUND:                -1.681
REMARK  Name = lig_assembled_59.pdb
REMARK  13 active torsions:
REMARK  status: ('A' for Active; 'I' for Inactive)
REMARK    1  A    between atoms: _2  and  _9
REMARK    2  A    between atoms: _6  and  _7
REMARK    3  A    between atoms: _6  and  _15
REMARK    4  A    between atoms: _12  and  _13
REMARK    5  A    between atoms: _13  and  _14
REMARK    6  A    between atoms: _15  and  _17
REMARK    7  A    between atoms: _16  and  _21
REMARK    8  A    between atoms: _17  and  _20
REMARK    9  A    between atoms: _25  and  _35
REMARK   10  A    between atoms: _27  and  _28
REMARK   11  A    between atoms: _29  and  _31
REMARK   12  A    between atoms: _31  and  _33
REMARK   13  A    between atoms: _33  and  _35
REMARK                            x       y       z     vdW  Elec       q    Type
REMARK                         _______ _______ _______ _____ _____    ______ ____
ROOT
ATOM      1  C   UNL     1      25.995  16.192  -4.505  0.00  0.00    +0.400 C 
ATOM      2  N   UNL     1      24.761  15.746  -4.095  0.00  0.00    -0.278 N 
ATOM      3  H   UNL     1      24.416  15.171  -4.928  0.00  0.00    +0.152 HD
ATOM      4  O   UNL     1      26.464  15.727  -5.541  0.00  0.00    -0.226 OA
ENDROOT
BRANCH   1   5
ATOM      5  O   UNL     1      26.538  17.099  -3.762  0.00  0.00    -0.450 OA
BRANCH   5   6
ATOM      6  C   UNL     1      27.128  17.225  -2.489  0.00  0.00    +0.240 C 
BRANCH   6   7
ATOM      7  C   UNL     1      27.317  15.938  -1.663  0.00  0.00    +0.100 C 
BRANCH   7   9
ATOM      8  N   UNL     1      29.302  17.145  -0.819  0.00  0.00    -0.134 NA
ATOM      9  C   UNL     1      28.607  15.975  -0.948  0.00  0.00    +0.087 A 
ATOM     10  C   UNL     1      29.306  14.964  -0.331  0.00  0.00    +0.141 A 
ATOM     11  N   UNL     1      30.438  15.571   0.165  0.00  0.00    -0.202 N 
ATOM     12  N   UNL     1      30.413  16.894  -0.138  0.00  0.00    -0.059 NA
BRANCH  11  13
ATOM     13  C   UNL     1      31.503  14.959   0.878  0.00  0.00    +0.156 A 
ATOM     14  C   UNL     1      31.630  15.199   2.245  0.00  0.00    +0.048 A 
ATOM     15  C   UNL     1      32.703  14.630   2.930  0.00  0.00    +0.011 A 
ATOM     16  C   UNL     1      33.620  13.828   2.247  0.00  0.00    -0.004 A 
ATOM     17  C   UNL     1      33.412  13.643   0.884  0.00  0.00    +0.119 A 
ATOM     18  N   UNL     1      32.379  14.176   0.189  0.00  0.00    -0.236 NA
BRANCH  16  19
ATOM     19  C   UNL     1      34.831  13.282   2.944  0.00  0.00    +0.192 C 
BRANCH  19  20
ATOM     20  O   UNL     1      35.775  14.305   3.221  0.00  0.00    -0.390 OA
ATOM     21  H   UNL     1      35.269  15.103   3.450  0.00  0.00    +0.210 HD
ENDBRANCH  19  20
ENDBRANCH  16  19
ENDBRANCH  11  13
ENDBRANCH   7   9
ENDBRANCH   6   7
ENDBRANCH   5   6
ENDBRANCH   1   5
BRANCH   2  22
ATOM     22  C   UNL     1      23.740  15.695  -3.052  0.00  0.00    +0.152 C 
BRANCH  22  23
ATOM     23  C   UNL     1      22.647  14.620  -3.223  0.00  0.00    +0.193 C 
ATOM     24  O   UNL     1      21.638  15.187  -4.088  0.00  0.00    -0.219 OA
BRANCH  23  25
ATOM     25  C   UNL     1      23.046  13.297  -3.912  0.00  0.00    +0.212 C 
ATOM     26  O   UNL     1      23.346  13.524  -5.299  0.00  0.00    -0.218 OA
BRANCH  25  27
ATOM     27  C   UNL     1      24.284  12.591  -3.238  0.00  0.00    +0.171 C 
ATOM     28  O   UNL     1      25.228  12.112  -4.191  0.00  0.00    -0.343 OA
ATOM     29  C   UNL     1      26.281  11.246  -3.891  0.00  0.00    +0.220 C 
ATOM     30  C   UNL     1      25.799  10.012  -3.107  0.00  0.00    +0.076 C 
ATOM     31  C   UNL     1      25.009  10.517  -1.889  0.00  0.00    +0.177 C 
ATOM     32  O   UNL     1      24.573   9.414  -1.107  0.00  0.00    -0.221 OA
ATOM     33  C   UNL     1      23.804  11.393  -2.355  0.00  0.00    +0.155 C 
BRANCH  33  34
ATOM     34  N   UNL     1      23.047  11.869  -1.201  0.00  0.00    -0.202 NA
ATOM     35  C   UNL     1      21.725  11.742  -0.918  0.00  0.00    +0.242 C 
ATOM     36  C   UNL     1      21.258  12.066   0.478  0.00  0.00    +0.096 C 
ATOM     37  O   UNL     1      20.949  11.368  -1.795  0.00  0.00    -0.273 OA
ENDBRANCH  33  34
BRANCH  29  38
ATOM     38  C   UNL     1      27.527  11.976  -3.147  0.00  0.00    +0.391 C 
ATOM     39  O   UNL     1      28.248  10.972  -2.610  0.00  0.00    -0.243 OA
ATOM     40  O   UNL     1      27.537  13.238  -3.593  0.00  0.00    -0.243 OA
ENDBRANCH  29  38
ENDBRANCH  25  27
ENDBRANCH  23  25
ENDBRANCH  22  23
ENDBRANCH   2  22
TORSDOF 13
