REMARK VINA RESULT:    -7.707      2.686      8.962
REMARK INTER + INTRA:         -14.616
REMARK INTER:                 -12.461
REMARK INTRA:                  -2.155
REMARK UNBOUND:                -1.503
REMARK  Name = lig_assembled_89.pdb
REMARK  14 active torsions:
REMARK  status: ('A' for Active; 'I' for Inactive)
REMARK    1  A    between atoms: _2  and  _11
REMARK    2  A    between atoms: _5  and  _19
REMARK    3  A    between atoms: _8  and  _9
REMARK    4  A    between atoms: _8  and  _24
REMARK    5  A    between atoms: _19  and  _20
REMARK    6  A    between atoms: _19  and  _21
REMARK    7  A    between atoms: _24  and  _26
REMARK    8  A    between atoms: _25  and  _30
REMARK    9  A    between atoms: _26  and  _29
REMARK   10  A    between atoms: _34  and  _44
REMARK   11  A    between atoms: _36  and  _37
REMARK   12  A    between atoms: _38  and  _40
REMARK   13  A    between atoms: _40  and  _42
REMARK   14  A    between atoms: _42  and  _44
REMARK                            x       y       z     vdW  Elec       q    Type
REMARK                         _______ _______ _______ _____ _____    ______ ____
ROOT
ATOM      1  C   UNL     1      27.119  17.396  -2.957  0.00  0.00    +0.240 C 
ENDROOT
BRANCH   1   2
ATOM      2  C   UNL     1      27.000  16.810  -1.537  0.00  0.00    +0.100 C 
BRANCH   2   4
ATOM      3  N   UNL     1      29.243  17.612  -0.900  0.00  0.00    -0.134 NA
ATOM      4  C   UNL     1      28.339  16.594  -0.963  0.00  0.00    +0.087 A 
ATOM      5  C   UNL     1      28.897  15.466  -0.410  0.00  0.00    +0.141 A 
ATOM      6  N   UNL     1      30.155  15.852   0.010  0.00  0.00    -0.200 N 
ATOM      7  N   UNL     1      30.335  17.157  -0.304  0.00  0.00    -0.059 NA
BRANCH   6   8
ATOM      8  C   UNL     1      31.074  15.042   0.739  0.00  0.00    +0.186 A 
ATOM      9  C   UNL     1      31.987  14.114   0.282  0.00  0.00    +0.158 A 
ATOM     10  C   UNL     1      32.247  13.547  -1.005  0.00  0.00    +0.280 A 
ATOM     11  O   UNL     1      31.424  13.570  -1.910  0.00  0.00    -0.265 OA
ATOM     12  N   UNL     1      33.508  12.932  -1.148  0.00  0.00    -0.302 N 
ATOM     13  C   UNL     1      34.244  12.505   0.021  0.00  0.00    +0.069 A 
ATOM     14  C   UNL     1      35.354  11.652  -0.051  0.00  0.00    +0.028 A 
ATOM     15  C   UNL     1      36.013  11.217   1.107  0.00  0.00    +0.002 A 
ATOM     16  C   UNL     1      35.585  11.635   2.362  0.00  0.00    +0.002 A 
ATOM     17  C   UNL     1      34.494  12.492   2.471  0.00  0.00    +0.028 A 
ATOM     18  C   UNL     1      33.829  12.912   1.310  0.00  0.00    +0.072 A 
ATOM     19  N   UNL     1      32.721  13.770   1.385  0.00  0.00    -0.291 N 
ATOM     20  C   UNL     1      32.162  14.406   2.464  0.00  0.00    +0.207 A 
ATOM     21  N   UNL     1      31.169  15.194   2.109  0.00  0.00    -0.216 NA
BRANCH  12  22
ATOM     22  C   UNL     1      33.945  12.555  -2.513  0.00  0.00    +0.085 C 
ATOM     23  C   UNL     1      33.848  13.704  -3.534  0.00  0.00    +0.030 C 
ATOM     24  C   UNL     1      33.204  11.320  -3.025  0.00  0.00    +0.030 C 
ENDBRANCH  12  22
ENDBRANCH   6   8
ENDBRANCH   2   4
ENDBRANCH   1   2
BRANCH   1  25
ATOM     25  O   UNL     1      26.169  16.985  -3.912  0.00  0.00    -0.450 OA
BRANCH  25  26
ATOM     26  C   UNL     1      25.759  15.900  -4.483  0.00  0.00    +0.400 C 
ATOM     27  N   UNL     1      24.473  15.517  -4.182  0.00  0.00    -0.278 N 
ATOM     28  H   UNL     1      24.275  14.740  -4.889  0.00  0.00    +0.152 HD
ATOM     29  O   UNL     1      26.397  15.214  -5.277  0.00  0.00    -0.226 OA
BRANCH  27  30
ATOM     30  C   UNL     1      23.291  15.682  -3.341  0.00  0.00    +0.152 C 
BRANCH  30  31
ATOM     31  C   UNL     1      23.047  14.582  -2.288  0.00  0.00    +0.193 C 
ATOM     32  O   UNL     1      21.654  14.666  -1.914  0.00  0.00    -0.219 OA
BRANCH  31  33
ATOM     33  C   UNL     1      23.239  13.114  -2.729  0.00  0.00    +0.212 C 
ATOM     34  O   UNL     1      23.234  13.017  -4.163  0.00  0.00    -0.218 OA
BRANCH  33  35
ATOM     35  C   UNL     1      24.570  12.468  -2.185  0.00  0.00    +0.171 C 
ATOM     36  O   UNL     1      25.470  12.108  -3.228  0.00  0.00    -0.343 OA
ATOM     37  C   UNL     1      26.601  11.307  -3.051  0.00  0.00    +0.220 C 
ATOM     38  C   UNL     1      26.266  10.004  -2.305  0.00  0.00    +0.076 C 
ATOM     39  C   UNL     1      25.536  10.388  -1.008  0.00  0.00    +0.177 C 
ATOM     40  O   UNL     1      25.237   9.219  -0.259  0.00  0.00    -0.221 OA
ATOM     41  C   UNL     1      24.242  11.195  -1.338  0.00  0.00    +0.155 C 
BRANCH  41  42
ATOM     42  N   UNL     1      23.542  11.556  -0.108  0.00  0.00    -0.202 NA
ATOM     43  C   UNL     1      22.245  11.358   0.243  0.00  0.00    +0.242 C 
ATOM     44  C   UNL     1      21.855  11.562   1.684  0.00  0.00    +0.096 C 
ATOM     45  O   UNL     1      21.430  11.019  -0.612  0.00  0.00    -0.273 OA
ENDBRANCH  41  42
BRANCH  37  46
ATOM     46  C   UNL     1      27.846  12.088  -2.359  0.00  0.00    +0.391 C 
ATOM     47  O   UNL     1      28.597  11.119  -1.801  0.00  0.00    -0.243 OA
ATOM     48  O   UNL     1      27.820  13.334  -2.849  0.00  0.00    -0.243 OA
ENDBRANCH  37  46
ENDBRANCH  33  35
ENDBRANCH  31  33
ENDBRANCH  30  31
ENDBRANCH  27  30
ENDBRANCH  25  26
ENDBRANCH   1  25
TORSDOF 12
