REMARK VINA RESULT:    -6.963      1.157      1.491
REMARK INTER + INTRA:         -12.987
REMARK INTER:                 -11.794
REMARK INTRA:                  -1.193
REMARK UNBOUND:                -1.545
REMARK  Name = lig_assembled_48.pdb
REMARK  11 active torsions:
REMARK  status: ('A' for Active; 'I' for Inactive)
REMARK    1  A    between atoms: _2  and  _8
REMARK    2  A    between atoms: _5  and  _6
REMARK    3  A    between atoms: _5  and  _13
REMARK    4  A    between atoms: _13  and  _15
REMARK    5  A    between atoms: _14  and  _19
REMARK    6  A    between atoms: _15  and  _18
REMARK    7  A    between atoms: _23  and  _33
REMARK    8  A    between atoms: _25  and  _26
REMARK    9  A    between atoms: _27  and  _29
REMARK   10  A    between atoms: _29  and  _31
REMARK   11  A    between atoms: _31  and  _33
REMARK                            x       y       z     vdW  Elec       q    Type
REMARK                         _______ _______ _______ _____ _____    ______ ____
ROOT
ATOM      1  C   UNL     1      28.494  14.931  -0.769  0.00  0.00    +0.152 C 
ENDROOT
BRANCH   1   3
ATOM      2  C   UNL     1      27.613  17.373  -1.608  0.00  0.00    +0.400 C 
ATOM      3  N   UNL     1      28.199  16.356  -0.892  0.00  0.00    -0.278 N 
ATOM      4  H   UNL     1      28.605  16.856  -0.039  0.00  0.00    +0.152 HD
ATOM      5  O   UNL     1      27.525  18.478  -1.079  0.00  0.00    -0.226 OA
BRANCH   2   6
ATOM      6  O   UNL     1      27.233  17.068  -2.806  0.00  0.00    -0.450 OA
BRANCH   6   7
ATOM      7  C   UNL     1      26.042  16.878  -3.532  0.00  0.00    +0.240 C 
BRANCH   7   8
ATOM      8  C   UNL     1      25.783  15.478  -4.121  0.00  0.00    +0.100 C 
BRANCH   8  10
ATOM      9  N   UNL     1      23.704  14.566  -5.095  0.00  0.00    -0.134 NA
ATOM     10  C   UNL     1      24.348  15.153  -4.042  0.00  0.00    +0.086 A 
ATOM     11  C   UNL     1      23.455  15.323  -3.007  0.00  0.00    +0.134 A 
ATOM     12  N   UNL     1      22.309  14.736  -3.453  0.00  0.00    -0.248 N 
ATOM     13  N   UNL     1      22.446  14.350  -4.740  0.00  0.00    -0.065 NA
BRANCH  12  14
ATOM     14  C   UNL     1      21.062  14.435  -2.760  0.00  0.00    +0.109 C 
ATOM     15  C   UNL     1      20.281  13.321  -3.482  0.00  0.00    +0.027 C 
ATOM     16  C   UNL     1      20.950  11.961  -3.299  0.00  0.00    +0.002 C 
ATOM     17  C   UNL     1      21.039  11.594  -1.823  0.00  0.00    +0.000 C 
ATOM     18  C   UNL     1      21.731  12.673  -0.994  0.00  0.00    +0.002 C 
ATOM     19  C   UNL     1      21.194  14.084  -1.264  0.00  0.00    +0.027 C 
ENDBRANCH  12  14
ENDBRANCH   8  10
ENDBRANCH   7   8
ENDBRANCH   6   7
ENDBRANCH   2   6
ENDBRANCH   1   3
BRANCH   1  20
ATOM     20  C   UNL     1      29.392  14.523   0.417  0.00  0.00    +0.193 C 
ATOM     21  O   UNL     1      29.530  13.086   0.358  0.00  0.00    -0.219 OA
BRANCH  20  22
ATOM     22  C   UNL     1      30.843  15.050   0.431  0.00  0.00    +0.212 C 
ATOM     23  O   UNL     1      30.892  16.373   0.988  0.00  0.00    -0.218 OA
BRANCH  22  24
ATOM     24  C   UNL     1      31.835  14.127   1.236  0.00  0.00    +0.171 C 
ATOM     25  O   UNL     1      32.169  14.663   2.512  0.00  0.00    -0.343 OA
ATOM     26  C   UNL     1      33.201  14.185   3.323  0.00  0.00    +0.220 C 
ATOM     27  C   UNL     1      34.525  14.064   2.549  0.00  0.00    +0.076 C 
ATOM     28  C   UNL     1      34.250  13.226   1.289  0.00  0.00    +0.177 C 
ATOM     29  O   UNL     1      35.454  13.049   0.556  0.00  0.00    -0.221 OA
ATOM     30  C   UNL     1      33.151  13.910   0.418  0.00  0.00    +0.155 C 
BRANCH  30  31
ATOM     31  N   UNL     1      32.891  13.120  -0.783  0.00  0.00    -0.202 NA
ATOM     32  C   UNL     1      33.085  13.437  -2.088  0.00  0.00    +0.242 C 
ATOM     33  C   UNL     1      33.012  12.334  -3.111  0.00  0.00    +0.096 C 
ATOM     34  O   UNL     1      33.314  14.604  -2.403  0.00  0.00    -0.273 OA
ENDBRANCH  30  31
BRANCH  26  35
ATOM     35  C   UNL     1      32.831  12.803   4.093  0.00  0.00    +0.391 C 
ATOM     36  O   UNL     1      33.994  12.379   4.624  0.00  0.00    -0.243 OA
ATOM     37  O   UNL     1      31.495  12.767   4.166  0.00  0.00    -0.243 OA
ENDBRANCH  26  35
ENDBRANCH  22  24
ENDBRANCH  20  22
ENDBRANCH   1  20
TORSDOF 11
