REMARK VINA RESULT:    -6.636      1.716      2.230
REMARK INTER + INTRA:         -14.711
REMARK INTER:                 -12.850
REMARK INTRA:                  -1.861
REMARK UNBOUND:                -1.675
REMARK  Name = lig_assembled_33.pdb
REMARK  17 active torsions:
REMARK  status: ('A' for Active; 'I' for Inactive)
REMARK    1  A    between atoms: _2  and  _8
REMARK    2  A    between atoms: _4  and  _12
REMARK    3  A    between atoms: _4  and  _13
REMARK    4  A    between atoms: _5  and  _6
REMARK    5  A    between atoms: _5  and  _15
REMARK    6  A    between atoms: _8  and  _9
REMARK    7  A    between atoms: _9  and  _10
REMARK    8  A    between atoms: _10  and  _11
REMARK    9  A    between atoms: _11  and  _12
REMARK   10  A    between atoms: _15  and  _17
REMARK   11  A    between atoms: _16  and  _21
REMARK   12  A    between atoms: _17  and  _20
REMARK   13  A    between atoms: _25  and  _35
REMARK   14  A    between atoms: _27  and  _28
REMARK   15  A    between atoms: _29  and  _31
REMARK   16  A    between atoms: _31  and  _33
REMARK   17  A    between atoms: _33  and  _35
REMARK                            x       y       z     vdW  Elec       q    Type
REMARK                         _______ _______ _______ _____ _____    ______ ____
ROOT
ATOM      1  C   UNL     1      28.323  17.538  -0.389  0.00  0.00    +0.400 C 
ATOM      2  N   UNL     1      29.546  17.401   0.224  0.00  0.00    -0.278 N 
ATOM      3  H   UNL     1      29.488  18.082   1.047  0.00  0.00    +0.152 HD
ATOM      4  O   UNL     1      27.457  18.192   0.187  0.00  0.00    -0.226 OA
ENDROOT
BRANCH   1   5
ATOM      5  O   UNL     1      28.213  16.980  -1.549  0.00  0.00    -0.450 OA
BRANCH   5   6
ATOM      6  C   UNL     1      27.305  16.922  -2.625  0.00  0.00    +0.240 C 
BRANCH   6   7
ATOM      7  C   UNL     1      26.993  15.534  -3.218  0.00  0.00    +0.100 C 
BRANCH   7   9
ATOM      8  N   UNL     1      24.555  15.869  -2.971  0.00  0.00    -0.134 NA
ATOM      9  C   UNL     1      25.658  15.079  -2.786  0.00  0.00    +0.086 A 
ATOM     10  C   UNL     1      25.275  13.906  -2.174  0.00  0.00    +0.133 A 
ATOM     11  N   UNL     1      23.929  14.042  -2.022  0.00  0.00    -0.251 N 
ATOM     12  N   UNL     1      23.501  15.230  -2.484  0.00  0.00    -0.065 NA
BRANCH  11  13
ATOM     13  C   UNL     1      22.992  13.104  -1.438  0.00  0.00    +0.145 C 
BRANCH  13  14
ATOM     14  C   UNL     1      21.590  13.697  -1.310  0.00  0.00    +0.023 C 
BRANCH  14  15
ATOM     15  C   UNL     1      20.728  12.956  -0.285  0.00  0.00    +0.002 C 
BRANCH  15  16
ATOM     16  C   UNL     1      21.471  11.715   0.220  0.00  0.00    +0.011 C 
BRANCH  16  17
ATOM     17  C   UNL     1      21.589  11.673   1.740  0.00  0.00    +0.120 C 
BRANCH  17  18
ATOM     18  C   UNL     1      22.191  10.367   2.208  0.00  0.00    +0.305 C 
ATOM     19  O   UNL     1      22.844   9.602   1.516  0.00  0.00    -0.251 OA
BRANCH  18  20
ATOM     20  O   UNL     1      21.935  10.118   3.513  0.00  0.00    -0.481 OA
ATOM     21  H   UNL     1      20.995   9.945   3.704  0.00  0.00    +0.295 HD
ENDBRANCH  18  20
ENDBRANCH  17  18
ENDBRANCH  16  17
ENDBRANCH  15  16
ENDBRANCH  14  15
ENDBRANCH  13  14
ENDBRANCH  11  13
ENDBRANCH   7   9
ENDBRANCH   6   7
ENDBRANCH   5   6
ENDBRANCH   1   5
BRANCH   2  22
ATOM     22  C   UNL     1      30.852  16.748   0.264  0.00  0.00    +0.152 C 
BRANCH  22  23
ATOM     23  C   UNL     1      30.865  15.237  -0.046  0.00  0.00    +0.193 C 
ATOM     24  O   UNL     1      31.991  15.002  -0.921  0.00  0.00    -0.219 OA
BRANCH  23  25
ATOM     25  C   UNL     1      31.087  14.267   1.135  0.00  0.00    +0.212 C 
ATOM     26  O   UNL     1      31.386  14.998   2.335  0.00  0.00    -0.218 OA
BRANCH  25  27
ATOM     27  C   UNL     1      29.851  13.328   1.412  0.00  0.00    +0.171 C 
ATOM     28  O   UNL     1      29.707  13.005   2.791  0.00  0.00    -0.343 OA
ATOM     29  C   UNL     1      28.859  12.010   3.283  0.00  0.00    +0.220 C 
ATOM     30  C   UNL     1      29.060  10.673   2.549  0.00  0.00    +0.076 C 
ATOM     31  C   UNL     1      28.929  10.949   1.042  0.00  0.00    +0.177 C 
ATOM     32  O   UNL     1      29.068   9.736   0.316  0.00  0.00    -0.221 OA
ATOM     33  C   UNL     1      29.989  12.003   0.594  0.00  0.00    +0.155 C 
BRANCH  33  34
ATOM     34  N   UNL     1      29.872  12.262  -0.839  0.00  0.00    -0.202 NA
ATOM     35  C   UNL     1      30.706  11.920  -1.854  0.00  0.00    +0.242 C 
ATOM     36  C   UNL     1      30.203  12.052  -3.268  0.00  0.00    +0.096 C 
ATOM     37  O   UNL     1      31.837  11.512  -1.600  0.00  0.00    -0.273 OA
ENDBRANCH  33  34
BRANCH  29  38
ATOM     38  C   UNL     1      27.294  12.448   3.308  0.00  0.00    +0.391 C 
ATOM     39  O   UNL     1      26.608  11.289   3.254  0.00  0.00    -0.243 OA
ATOM     40  O   UNL     1      27.276  13.736   3.670  0.00  0.00    -0.243 OA
ENDBRANCH  29  38
ENDBRANCH  25  27
ENDBRANCH  23  25
ENDBRANCH  22  23
ENDBRANCH   2  22
TORSDOF 17
