REMARK VINA RESULT:    -6.499      2.111      3.911
REMARK INTER + INTRA:         -14.936
REMARK INTER:                 -12.617
REMARK INTRA:                  -2.318
REMARK UNBOUND:                -3.117
REMARK  Name = lig_assembled_9.pdb
REMARK  15 active torsions:
REMARK  status: ('A' for Active; 'I' for Inactive)
REMARK    1  A    between atoms: _2  and  _8
REMARK    2  A    between atoms: _5  and  _6
REMARK    3  A    between atoms: _5  and  _18
REMARK    4  A    between atoms: _10  and  _11
REMARK    5  A    between atoms: _11  and  _16
REMARK    6  A    between atoms: _12  and  _13
REMARK    7  A    between atoms: _12  and  _16
REMARK    8  A    between atoms: _18  and  _20
REMARK    9  A    between atoms: _19  and  _24
REMARK   10  A    between atoms: _20  and  _23
REMARK   11  A    between atoms: _28  and  _38
REMARK   12  A    between atoms: _30  and  _31
REMARK   13  A    between atoms: _32  and  _34
REMARK   14  A    between atoms: _34  and  _36
REMARK   15  A    between atoms: _36  and  _38
REMARK                            x       y       z     vdW  Elec       q    Type
REMARK                         _______ _______ _______ _____ _____    ______ ____
ROOT
ATOM      1  C   UNL     1      28.271  17.735  -0.614  0.00  0.00    +0.400 C 
ATOM      2  N   UNL     1      29.399  17.420   0.106  0.00  0.00    -0.278 N 
ATOM      3  H   UNL     1      29.341  18.068   0.954  0.00  0.00    +0.152 HD
ATOM      4  O   UNL     1      27.436  18.469  -0.090  0.00  0.00    -0.226 OA
ENDROOT
BRANCH   2   5
ATOM      5  C   UNL     1      30.605  16.606   0.236  0.00  0.00    +0.152 C 
BRANCH   5   6
ATOM      6  C   UNL     1      30.409  15.080   0.135  0.00  0.00    +0.193 C 
ATOM      7  O   UNL     1      31.211  14.630  -0.979  0.00  0.00    -0.219 OA
BRANCH   6   8
ATOM      8  C   UNL     1      30.886  14.218   1.325  0.00  0.00    +0.212 C 
ATOM      9  O   UNL     1      31.247  15.053   2.437  0.00  0.00    -0.218 OA
BRANCH   8  10
ATOM     10  C   UNL     1      29.810  13.172   1.809  0.00  0.00    +0.171 C 
ATOM     11  O   UNL     1      28.497  13.722   1.863  0.00  0.00    -0.343 OA
ATOM     12  C   UNL     1      27.408  13.102   2.480  0.00  0.00    +0.220 C 
ATOM     13  C   UNL     1      27.744  12.653   3.913  0.00  0.00    +0.076 C 
ATOM     14  C   UNL     1      29.020  11.798   3.843  0.00  0.00    +0.177 C 
ATOM     15  O   UNL     1      29.353  11.323   5.139  0.00  0.00    -0.221 OA
ATOM     16  C   UNL     1      30.189  12.628   3.226  0.00  0.00    +0.155 C 
BRANCH  16  17
ATOM     17  N   UNL     1      31.406  11.822   3.164  0.00  0.00    -0.202 NA
ATOM     18  C   UNL     1      32.517  11.868   3.941  0.00  0.00    +0.242 C 
ATOM     19  C   UNL     1      33.501  10.730   3.851  0.00  0.00    +0.096 C 
ATOM     20  O   UNL     1      32.694  12.825   4.692  0.00  0.00    -0.273 OA
ENDBRANCH  16  17
BRANCH  12  21
ATOM     21  C   UNL     1      26.775  11.887   1.607  0.00  0.00    +0.391 C 
ATOM     22  O   UNL     1      26.175  11.087   2.509  0.00  0.00    -0.243 OA
ATOM     23  O   UNL     1      26.821  12.287   0.330  0.00  0.00    -0.243 OA
ENDBRANCH  12  21
ENDBRANCH   8  10
ENDBRANCH   6   8
ENDBRANCH   5   6
ENDBRANCH   2   5
BRANCH   1  24
ATOM     24  O   UNL     1      28.213  17.243  -1.808  0.00  0.00    -0.450 OA
BRANCH  24  25
ATOM     25  C   UNL     1      27.545  16.221  -2.511  0.00  0.00    +0.240 C 
BRANCH  25  26
ATOM     26  C   UNL     1      26.405  16.639  -3.458  0.00  0.00    +0.100 C 
BRANCH  26  28
ATOM     27  N   UNL     1      24.442  15.352  -4.244  0.00  0.00    -0.134 NA
ATOM     28  C   UNL     1      25.209  15.811  -3.214  0.00  0.00    +0.086 A 
ATOM     29  C   UNL     1      24.678  15.366  -2.025  0.00  0.00    +0.139 A 
ATOM     30  N   UNL     1      23.595  14.597  -2.386  0.00  0.00    -0.220 N 
ATOM     31  N   UNL     1      23.459  14.621  -3.733  0.00  0.00    -0.061 NA
BRANCH  30  32
ATOM     32  C   UNL     1      22.730  13.840  -1.556  0.00  0.00    +0.068 A 
ATOM     33  C   UNL     1      23.245  12.863  -0.693  0.00  0.00    +0.042 A 
ATOM     34  C   UNL     1      22.382  12.094   0.103  0.00  0.00    +0.061 A 
ATOM     35  C   UNL     1      21.001  12.310   0.036  0.00  0.00    +0.015 A 
ATOM     36  C   UNL     1      20.485  13.291  -0.812  0.00  0.00    +0.003 A 
ATOM     37  C   UNL     1      21.345  14.055  -1.605  0.00  0.00    +0.028 A 
BRANCH  34  38
ATOM     38  C   UNL     1      22.893  11.091   1.074  0.00  0.00    +0.339 C 
ATOM     39  O   UNL     1      22.854  11.237   2.284  0.00  0.00    -0.245 OA
BRANCH  38  40
ATOM     40  O   UNL     1      23.480  10.065   0.407  0.00  0.00    -0.461 OA
BRANCH  40  41
ATOM     41  C   UNL     1      23.253   8.761   0.957  0.00  0.00    +0.229 C 
ATOM     42  C   UNL     1      21.867   8.308   0.534  0.00  0.00    +0.048 C 
ENDBRANCH  40  41
ENDBRANCH  38  40
ENDBRANCH  34  38
ENDBRANCH  30  32
ENDBRANCH  26  28
ENDBRANCH  25  26
ENDBRANCH  24  25
ENDBRANCH   1  24
TORSDOF 14
