REMARK VINA RESULT:    -6.932      4.120      7.364
REMARK INTER + INTRA:         -13.058
REMARK INTER:                 -10.702
REMARK INTRA:                  -2.355
REMARK UNBOUND:                -1.669
REMARK  Name = lig_assembled_70.pdb
REMARK  11 active torsions:
REMARK  status: ('A' for Active; 'I' for Inactive)
REMARK    1  A    between atoms: _2  and  _9
REMARK    2  A    between atoms: _6  and  _7
REMARK    3  A    between atoms: _6  and  _17
REMARK    4  A    between atoms: _17  and  _19
REMARK    5  A    between atoms: _18  and  _23
REMARK    6  A    between atoms: _19  and  _22
REMARK    7  A    between atoms: _27  and  _37
REMARK    8  A    between atoms: _29  and  _30
REMARK    9  A    between atoms: _31  and  _33
REMARK   10  A    between atoms: _33  and  _35
REMARK   11  A    between atoms: _35  and  _37
REMARK                            x       y       z     vdW  Elec       q    Type
REMARK                         _______ _______ _______ _____ _____    ______ ____
ROOT
ATOM      1  C   UNL     1      27.569  13.038   2.471  0.00  0.00    +0.400 C 
ATOM      2  N   UNL     1      28.303  13.621   1.464  0.00  0.00    -0.278 N 
ATOM      3  H   UNL     1      28.512  14.598   1.845  0.00  0.00    +0.152 HD
ATOM      4  O   UNL     1      27.489  13.628   3.545  0.00  0.00    -0.226 OA
ENDROOT
BRANCH   1   5
ATOM      5  O   UNL     1      26.999  11.917   2.170  0.00  0.00    -0.450 OA
BRANCH   5   6
ATOM      6  C   UNL     1      26.629  10.707   2.790  0.00  0.00    +0.240 C 
BRANCH   6   7
ATOM      7  C   UNL     1      27.669   9.570   2.806  0.00  0.00    +0.100 C 
BRANCH   7   9
ATOM      8  N   UNL     1      29.646   8.889   4.138  0.00  0.00    -0.134 NA
ATOM      9  C   UNL     1      28.571   9.713   3.964  0.00  0.00    +0.086 A 
ATOM     10  C   UNL     1      28.525  10.615   5.002  0.00  0.00    +0.140 A 
ATOM     11  N   UNL     1      29.611  10.308   5.789  0.00  0.00    -0.218 N 
ATOM     12  N   UNL     1      30.268   9.253   5.253  0.00  0.00    -0.060 NA
BRANCH  11  13
ATOM     13  C   UNL     1      30.052  10.955   6.961  0.00  0.00    +0.086 A 
ATOM     14  C   UNL     1      29.163  11.228   7.989  0.00  0.00    +0.139 A 
ATOM     15  N   UNL     1      29.527  11.806   9.163  0.00  0.00    -0.253 NA
ATOM     16  C   UNL     1      30.823  12.125   9.343  0.00  0.00    +0.071 A 
ATOM     17  C   UNL     1      31.794  11.899   8.346  0.00  0.00    +0.002 A 
ATOM     18  C   UNL     1      33.139  12.245   8.570  0.00  0.00    +0.010 A 
ATOM     19  C   UNL     1      33.529  12.794   9.787  0.00  0.00    +0.001 A 
ATOM     20  C   UNL     1      32.579  13.011  10.777  0.00  0.00    +0.002 A 
ATOM     21  C   UNL     1      31.239  12.683  10.544  0.00  0.00    +0.028 A 
ATOM     22  C   UNL     1      31.387  11.314   7.140  0.00  0.00    +0.039 A 
ENDBRANCH  11  13
ENDBRANCH   7   9
ENDBRANCH   6   7
ENDBRANCH   5   6
ENDBRANCH   1   5
BRANCH   2  23
ATOM     23  C   UNL     1      28.922  13.503   0.147  0.00  0.00    +0.152 C 
BRANCH  23  24
ATOM     24  C   UNL     1      29.432  14.814  -0.485  0.00  0.00    +0.193 C 
ATOM     25  O   UNL     1      28.553  15.865  -0.028  0.00  0.00    -0.219 OA
BRANCH  24  26
ATOM     26  C   UNL     1      30.846  15.296  -0.089  0.00  0.00    +0.212 C 
ATOM     27  O   UNL     1      30.771  16.547   0.612  0.00  0.00    -0.218 OA
BRANCH  26  28
ATOM     28  C   UNL     1      31.629  14.262   0.807  0.00  0.00    +0.171 C 
ATOM     29  O   UNL     1      31.887  14.757   2.117  0.00  0.00    -0.343 OA
ATOM     30  C   UNL     1      32.762  14.160   3.027  0.00  0.00    +0.220 C 
ATOM     31  C   UNL     1      34.138  13.880   2.396  0.00  0.00    +0.076 C 
ATOM     32  C   UNL     1      33.900  13.079   1.105  0.00  0.00    +0.177 C 
ATOM     33  O   UNL     1      35.145  12.758   0.502  0.00  0.00    -0.221 OA
ATOM     34  C   UNL     1      32.989  13.887   0.131  0.00  0.00    +0.155 C 
BRANCH  34  35
ATOM     35  N   UNL     1      32.766  13.132  -1.100  0.00  0.00    -0.202 NA
ATOM     36  C   UNL     1      33.077  13.452  -2.382  0.00  0.00    +0.242 C 
ATOM     37  C   UNL     1      33.006  12.368  -3.426  0.00  0.00    +0.096 C 
ATOM     38  O   UNL     1      33.407  14.603  -2.659  0.00  0.00    -0.273 OA
ENDBRANCH  34  35
BRANCH  30  39
ATOM     39  C   UNL     1      32.151  12.834   3.738  0.00  0.00    +0.391 C 
ATOM     40  O   UNL     1      33.194  12.269   4.377  0.00  0.00    -0.243 OA
ATOM     41  O   UNL     1      30.819  12.963   3.679  0.00  0.00    -0.243 OA
ENDBRANCH  30  39
ENDBRANCH  26  28
ENDBRANCH  24  26
ENDBRANCH  23  24
ENDBRANCH   2  23
TORSDOF 11
