REMARK VINA RESULT:    -6.929      4.170      9.213
REMARK INTER + INTRA:         -13.054
REMARK INTER:                 -10.905
REMARK INTRA:                  -2.148
REMARK UNBOUND:                -1.669
REMARK  Name = lig_assembled_70.pdb
REMARK  11 active torsions:
REMARK  status: ('A' for Active; 'I' for Inactive)
REMARK    1  A    between atoms: _2  and  _9
REMARK    2  A    between atoms: _6  and  _7
REMARK    3  A    between atoms: _6  and  _17
REMARK    4  A    between atoms: _17  and  _19
REMARK    5  A    between atoms: _18  and  _23
REMARK    6  A    between atoms: _19  and  _22
REMARK    7  A    between atoms: _27  and  _37
REMARK    8  A    between atoms: _29  and  _30
REMARK    9  A    between atoms: _31  and  _33
REMARK   10  A    between atoms: _33  and  _35
REMARK   11  A    between atoms: _35  and  _37
REMARK                            x       y       z     vdW  Elec       q    Type
REMARK                         _______ _______ _______ _____ _____    ______ ____
ROOT
ATOM      1  C   UNL     1      31.425  13.825   2.267  0.00  0.00    +0.400 C 
ATOM      2  N   UNL     1      30.770  14.927   1.768  0.00  0.00    -0.278 N 
ATOM      3  H   UNL     1      29.881  14.975   2.359  0.00  0.00    +0.152 HD
ATOM      4  O   UNL     1      30.991  13.311   3.294  0.00  0.00    -0.226 OA
ENDROOT
BRANCH   1   5
ATOM      5  O   UNL     1      32.435  13.413   1.574  0.00  0.00    -0.450 OA
BRANCH   5   6
ATOM      6  C   UNL     1      33.449  12.437   1.640  0.00  0.00    +0.240 C 
BRANCH   6   7
ATOM      7  C   UNL     1      34.654  12.725   2.556  0.00  0.00    +0.100 C 
BRANCH   7   9
ATOM      8  N   UNL     1      34.335  14.012   4.651  0.00  0.00    -0.134 NA
ATOM      9  C   UNL     1      34.218  12.840   3.960  0.00  0.00    +0.086 A 
ATOM     10  C   UNL     1      33.658  11.890   4.782  0.00  0.00    +0.140 A 
ATOM     11  N   UNL     1      33.436  12.537   5.976  0.00  0.00    -0.218 N 
ATOM     12  N   UNL     1      33.864  13.817   5.877  0.00  0.00    -0.060 NA
BRANCH  11  13
ATOM     13  C   UNL     1      32.840  12.029   7.148  0.00  0.00    +0.086 A 
ATOM     14  C   UNL     1      31.661  11.304   7.080  0.00  0.00    +0.139 A 
ATOM     15  N   UNL     1      31.057  10.747   8.161  0.00  0.00    -0.253 NA
ATOM     16  C   UNL     1      31.639  10.901   9.365  0.00  0.00    +0.071 A 
ATOM     17  C   UNL     1      32.830  11.637   9.533  0.00  0.00    +0.002 A 
ATOM     18  C   UNL     1      33.408  11.776  10.808  0.00  0.00    +0.010 A 
ATOM     19  C   UNL     1      32.822  11.170  11.915  0.00  0.00    +0.001 A 
ATOM     20  C   UNL     1      31.653  10.436  11.755  0.00  0.00    +0.002 A 
ATOM     21  C   UNL     1      31.071  10.315  10.489  0.00  0.00    +0.028 A 
ATOM     22  C   UNL     1      33.422  12.211   8.402  0.00  0.00    +0.039 A 
ENDBRANCH  11  13
ENDBRANCH   7   9
ENDBRANCH   6   7
ENDBRANCH   5   6
ENDBRANCH   1   5
BRANCH   2  23
ATOM     23  C   UNL     1      30.752  16.042   0.824  0.00  0.00    +0.152 C 
BRANCH  23  24
ATOM     24  C   UNL     1      29.462  16.210  -0.005  0.00  0.00    +0.193 C 
ATOM     25  O   UNL     1      29.727  17.242  -0.980  0.00  0.00    -0.219 OA
BRANCH  24  26
ATOM     26  C   UNL     1      28.988  15.001  -0.842  0.00  0.00    +0.212 C 
ATOM     27  O   UNL     1      30.104  14.167  -1.195  0.00  0.00    -0.218 OA
BRANCH  26  28
ATOM     28  C   UNL     1      27.910  14.117  -0.107  0.00  0.00    +0.171 C 
ATOM     29  O   UNL     1      28.493  13.164   0.776  0.00  0.00    -0.343 OA
ATOM     30  C   UNL     1      27.797  12.104   1.362  0.00  0.00    +0.220 C 
ATOM     31  C   UNL     1      27.006  11.295   0.319  0.00  0.00    +0.076 C 
ATOM     32  C   UNL     1      26.133  12.285  -0.470  0.00  0.00    +0.177 C 
ATOM     33  O   UNL     1      25.349  11.582  -1.423  0.00  0.00    -0.221 OA
ATOM     34  C   UNL     1      27.029  13.363  -1.156  0.00  0.00    +0.155 C 
BRANCH  34  35
ATOM     35  N   UNL     1      26.204  14.301  -1.912  0.00  0.00    -0.202 NA
ATOM     36  C   UNL     1      26.158  14.534  -3.249  0.00  0.00    +0.242 C 
ATOM     37  C   UNL     1      25.009  15.343  -3.794  0.00  0.00    +0.096 C 
ATOM     38  O   UNL     1      27.042  14.085  -3.975  0.00  0.00    -0.273 OA
ENDBRANCH  34  35
BRANCH  30  39
ATOM     39  C   UNL     1      26.855  12.557   2.605  0.00  0.00    +0.391 C 
ATOM     40  O   UNL     1      25.944  11.572   2.729  0.00  0.00    -0.243 OA
ATOM     41  O   UNL     1      27.505  13.556   3.216  0.00  0.00    -0.243 OA
ENDBRANCH  30  39
ENDBRANCH  26  28
ENDBRANCH  24  26
ENDBRANCH  23  24
ENDBRANCH   2  23
TORSDOF 11
