REMARK VINA RESULT:    -7.058      2.051      8.945
REMARK INTER + INTRA:         -16.446
REMARK INTER:                 -13.484
REMARK INTRA:                  -2.962
REMARK UNBOUND:                -2.580
REMARK  Name = lig_assembled_90.pdb
REMARK  17 active torsions:
REMARK  status: ('A' for Active; 'I' for Inactive)
REMARK    1  A    between atoms: _2  and  _12
REMARK    2  A    between atoms: _3  and  _14
REMARK    3  A    between atoms: _4  and  _16
REMARK    4  A    between atoms: _9  and  _10
REMARK    5  A    between atoms: _9  and  _23
REMARK    6  A    between atoms: _12  and  _13
REMARK    7  A    between atoms: _14  and  _15
REMARK    8  A    between atoms: _15  and  _16
REMARK    9  A    between atoms: _15  and  _21
REMARK   10  A    between atoms: _23  and  _25
REMARK   11  A    between atoms: _24  and  _29
REMARK   12  A    between atoms: _25  and  _28
REMARK   13  A    between atoms: _33  and  _43
REMARK   14  A    between atoms: _35  and  _36
REMARK   15  A    between atoms: _37  and  _39
REMARK   16  A    between atoms: _39  and  _41
REMARK   17  A    between atoms: _41  and  _43
REMARK                            x       y       z     vdW  Elec       q    Type
REMARK                         _______ _______ _______ _____ _____    ______ ____
ROOT
ATOM      1  C   UNL     1      30.050  13.600  -0.599  0.00  0.00    +0.240 C 
ENDROOT
BRANCH   1   2
ATOM      2  O   UNL     1      31.127  14.370  -1.081  0.00  0.00    -0.450 OA
BRANCH   2   3
ATOM      3  C   UNL     1      32.415  14.419  -0.989  0.00  0.00    +0.400 C 
ATOM      4  N   UNL     1      32.992  13.463  -0.187  0.00  0.00    -0.278 N 
ATOM      5  H   UNL     1      34.034  13.554  -0.404  0.00  0.00    +0.152 HD
ATOM      6  O   UNL     1      33.154  15.212  -1.568  0.00  0.00    -0.226 OA
BRANCH   4   7
ATOM      7  C   UNL     1      32.825  12.414   0.815  0.00  0.00    +0.152 C 
BRANCH   7   8
ATOM      8  C   UNL     1      33.133  12.811   2.274  0.00  0.00    +0.193 C 
ATOM      9  O   UNL     1      34.067  13.912   2.215  0.00  0.00    -0.219 OA
BRANCH   8  10
ATOM     10  C   UNL     1      31.965  13.342   3.133  0.00  0.00    +0.212 C 
ATOM     11  O   UNL     1      31.371  14.496   2.516  0.00  0.00    -0.218 OA
BRANCH  10  12
ATOM     12  C   UNL     1      30.837  12.269   3.384  0.00  0.00    +0.171 C 
ATOM     13  O   UNL     1      29.563  12.693   2.912  0.00  0.00    -0.343 OA
ATOM     14  C   UNL     1      28.358  12.056   3.217  0.00  0.00    +0.220 C 
ATOM     15  C   UNL     1      28.200  11.829   4.730  0.00  0.00    +0.076 C 
ATOM     16  C   UNL     1      29.460  11.099   5.223  0.00  0.00    +0.177 C 
ATOM     17  O   UNL     1      29.348  10.828   6.613  0.00  0.00    -0.221 OA
ATOM     18  C   UNL     1      30.730  11.950   4.912  0.00  0.00    +0.155 C 
BRANCH  18  19
ATOM     19  N   UNL     1      31.929  11.263   5.384  0.00  0.00    -0.202 NA
ATOM     20  C   UNL     1      32.876  11.676   6.265  0.00  0.00    +0.242 C 
ATOM     21  C   UNL     1      33.849  10.657   6.800  0.00  0.00    +0.096 C 
ATOM     22  O   UNL     1      32.918  12.857   6.603  0.00  0.00    -0.273 OA
ENDBRANCH  18  19
BRANCH  14  23
ATOM     23  C   UNL     1      28.120  10.684   2.379  0.00  0.00    +0.391 C 
ATOM     24  O   UNL     1      27.098  10.068   3.005  0.00  0.00    -0.243 OA
ATOM     25  O   UNL     1      28.804  10.825   1.237  0.00  0.00    -0.243 OA
ENDBRANCH  14  23
ENDBRANCH  10  12
ENDBRANCH   8  10
ENDBRANCH   7   8
ENDBRANCH   4   7
ENDBRANCH   2   3
ENDBRANCH   1   2
BRANCH   1  26
ATOM     26  C   UNL     1      28.862  14.353   0.028  0.00  0.00    +0.100 C 
BRANCH  26  28
ATOM     27  N   UNL     1      28.817  16.709  -0.745  0.00  0.00    -0.134 NA
ATOM     28  C   UNL     1      28.387  15.414  -0.880  0.00  0.00    +0.086 A 
ATOM     29  C   UNL     1      27.509  15.341  -1.938  0.00  0.00    +0.134 A 
ATOM     30  N   UNL     1      27.463  16.616  -2.416  0.00  0.00    -0.243 N 
ATOM     31  N   UNL     1      28.235  17.440  -1.687  0.00  0.00    -0.065 NA
BRANCH  30  32
ATOM     32  C   UNL     1      26.639  17.143  -3.479  0.00  0.00    +0.240 C 
BRANCH  32  33
ATOM     33  C   UNL     1      25.529  16.184  -3.842  0.00  0.00    +0.235 C 
ATOM     34  O   UNL     1      25.621  15.386  -4.773  0.00  0.00    -0.274 OA
ATOM     35  N   UNL     1      24.421  16.226  -3.017  0.00  0.00    -0.311 N 
ATOM     36  H   UNL     1      24.266  17.058  -2.452  0.00  0.00    +0.149 HD
BRANCH  35  37
ATOM     37  C   UNL     1      23.250  15.411  -3.311  0.00  0.00    +0.137 C 
BRANCH  37  38
ATOM     38  C   UNL     1      22.787  14.637  -2.068  0.00  0.00    +0.151 C 
BRANCH  38  39
ATOM     39  O   UNL     1      21.386  14.870  -1.878  0.00  0.00    -0.388 OA
ATOM     40  H   UNL     1      20.904  14.580  -2.678  0.00  0.00    +0.210 HD
ENDBRANCH  38  39
BRANCH  38  41
ATOM     41  C   UNL     1      23.090  13.138  -2.188  0.00  0.00    +0.162 C 
BRANCH  41  42
ATOM     42  N   UNL     1      23.783  12.614  -1.020  0.00  0.00    -0.269 N 
ATOM     43  C   UNL     1      25.154  12.646  -0.885  0.00  0.00    +0.113 A 
ATOM     44  C   UNL     1      25.426  12.027   0.312  0.00  0.00    +0.137 A 
ATOM     45  N   UNL     1      24.267  11.613   0.915  0.00  0.00    -0.172 NA
ATOM     46  C   UNL     1      23.294  11.989   0.100  0.00  0.00    +0.450 A 
ATOM     47  N   UNL     1      21.903  11.740   0.392  0.00  0.00    +0.120 N 
ATOM     48  O   UNL     1      21.058  12.222  -0.375  0.00  0.00    +0.045 OA
ATOM     49  O   UNL     1      21.647  11.049   1.386  0.00  0.00    -0.573 OA
ENDBRANCH  41  42
ENDBRANCH  38  41
ENDBRANCH  37  38
ENDBRANCH  35  37
ENDBRANCH  32  33
ENDBRANCH  30  32
ENDBRANCH  26  28
ENDBRANCH   1  26
TORSDOF 17
