REMARK VINA RESULT:    -6.220      2.074      3.513
REMARK INTER + INTRA:         -11.766
REMARK INTER:                 -10.115
REMARK INTRA:                  -1.651
REMARK UNBOUND:                -1.545
REMARK  Name = lig_assembled_48.pdb
REMARK  11 active torsions:
REMARK  status: ('A' for Active; 'I' for Inactive)
REMARK    1  A    between atoms: _2  and  _8
REMARK    2  A    between atoms: _5  and  _6
REMARK    3  A    between atoms: _5  and  _13
REMARK    4  A    between atoms: _13  and  _15
REMARK    5  A    between atoms: _14  and  _19
REMARK    6  A    between atoms: _15  and  _18
REMARK    7  A    between atoms: _23  and  _33
REMARK    8  A    between atoms: _25  and  _26
REMARK    9  A    between atoms: _27  and  _29
REMARK   10  A    between atoms: _29  and  _31
REMARK   11  A    between atoms: _31  and  _33
REMARK                            x       y       z     vdW  Elec       q    Type
REMARK                         _______ _______ _______ _____ _____    ______ ____
ROOT
ATOM      1  C   UNL     1      28.433  13.064   0.263  0.00  0.00    +0.152 C 
ENDROOT
BRANCH   1   3
ATOM      2  C   UNL     1      27.296  12.849   2.735  0.00  0.00    +0.400 C 
ATOM      3  N   UNL     1      27.966  13.309   1.626  0.00  0.00    -0.278 N 
ATOM      4  H   UNL     1      28.294  14.282   1.921  0.00  0.00    +0.152 HD
ATOM      5  O   UNL     1      27.377  13.502   3.773  0.00  0.00    -0.226 OA
BRANCH   2   6
ATOM      6  O   UNL     1      26.607  11.769   2.564  0.00  0.00    -0.450 OA
BRANCH   6   7
ATOM      7  C   UNL     1      25.323  11.378   2.136  0.00  0.00    +0.240 C 
BRANCH   7   8
ATOM      8  C   UNL     1      25.174  10.902   0.679  0.00  0.00    +0.100 C 
BRANCH   8  10
ATOM      9  N   UNL     1      23.021  11.860  -0.066  0.00  0.00    -0.134 NA
ATOM     10  C   UNL     1      24.388  11.880  -0.094  0.00  0.00    +0.086 A 
ATOM     11  C   UNL     1      24.806  12.920  -0.896  0.00  0.00    +0.134 A 
ATOM     12  N   UNL     1      23.652  13.553  -1.251  0.00  0.00    -0.248 N 
ATOM     13  N   UNL     1      22.579  12.864  -0.809  0.00  0.00    -0.065 NA
BRANCH  12  14
ATOM     14  C   UNL     1      23.436  14.818  -1.944  0.00  0.00    +0.109 C 
ATOM     15  C   UNL     1      24.687  15.235  -2.741  0.00  0.00    +0.027 C 
ATOM     16  C   UNL     1      24.882  14.357  -3.975  0.00  0.00    +0.002 C 
ATOM     17  C   UNL     1      23.678  14.450  -4.903  0.00  0.00    +0.000 C 
ATOM     18  C   UNL     1      22.365  14.131  -4.192  0.00  0.00    +0.002 C 
ATOM     19  C   UNL     1      22.199  14.877  -2.863  0.00  0.00    +0.027 C 
ENDBRANCH  12  14
ENDBRANCH   8  10
ENDBRANCH   7   8
ENDBRANCH   6   7
ENDBRANCH   2   6
ENDBRANCH   1   3
BRANCH   1  20
ATOM     20  C   UNL     1      28.954  14.294  -0.508  0.00  0.00    +0.193 C 
ATOM     21  O   UNL     1      28.462  15.460   0.189  0.00  0.00    -0.219 OA
BRANCH  20  22
ATOM     22  C   UNL     1      30.483  14.501  -0.574  0.00  0.00    +0.212 C 
ATOM     23  O   UNL     1      30.803  15.901  -0.518  0.00  0.00    -0.218 OA
BRANCH  22  24
ATOM     24  C   UNL     1      31.264  13.759   0.577  0.00  0.00    +0.171 C 
ATOM     25  O   UNL     1      30.958  14.276   1.868  0.00  0.00    -0.343 OA
ATOM     26  C   UNL     1      31.676  13.976   3.028  0.00  0.00    +0.220 C 
ATOM     27  C   UNL     1      33.189  14.181   2.831  0.00  0.00    +0.076 C 
ATOM     28  C   UNL     1      33.606  13.382   1.586  0.00  0.00    +0.177 C 
ATOM     29  O   UNL     1      35.006  13.505   1.381  0.00  0.00    -0.221 OA
ATOM     30  C   UNL     1      32.806  13.872   0.339  0.00  0.00    +0.155 C 
BRANCH  30  31
ATOM     31  N   UNL     1      33.204  13.119  -0.848  0.00  0.00    -0.202 NA
ATOM     32  C   UNL     1      33.603  13.567  -2.065  0.00  0.00    +0.242 C 
ATOM     33  C   UNL     1      34.240  12.586  -3.015  0.00  0.00    +0.096 C 
ATOM     34  O   UNL     1      33.438  14.749  -2.362  0.00  0.00    -0.273 OA
ENDBRANCH  30  31
BRANCH  26  35
ATOM     35  C   UNL     1      31.347  12.503   3.630  0.00  0.00    +0.391 C 
ATOM     36  O   UNL     1      30.575  11.911   2.698  0.00  0.00    -0.243 OA
ATOM     37  O   UNL     1      32.193  12.324   4.652  0.00  0.00    -0.243 OA
ENDBRANCH  26  35
ENDBRANCH  22  24
ENDBRANCH  20  22
ENDBRANCH   1  20
TORSDOF 11
