REMARK VINA RESULT:    -6.237      3.074      9.500
REMARK INTER + INTRA:         -12.490
REMARK INTER:                 -11.017
REMARK INTRA:                  -1.473
REMARK UNBOUND:                -1.696
REMARK  Name = lig_assembled_72.pdb
REMARK  15 active torsions:
REMARK  status: ('A' for Active; 'I' for Inactive)
REMARK    1  A    between atoms: _2  and  _8
REMARK    2  A    between atoms: _4  and  _8
REMARK    3  A    between atoms: _4  and  _11
REMARK    4  A    between atoms: _5  and  _6
REMARK    5  A    between atoms: _5  and  _12
REMARK    6  A    between atoms: _8  and  _9
REMARK    7  A    between atoms: _8  and  _10
REMARK    8  A    between atoms: _12  and  _14
REMARK    9  A    between atoms: _13  and  _18
REMARK   10  A    between atoms: _14  and  _17
REMARK   11  A    between atoms: _22  and  _32
REMARK   12  A    between atoms: _24  and  _25
REMARK   13  A    between atoms: _26  and  _28
REMARK   14  A    between atoms: _28  and  _30
REMARK   15  A    between atoms: _30  and  _32
REMARK                            x       y       z     vdW  Elec       q    Type
REMARK                         _______ _______ _______ _____ _____    ______ ____
ROOT
ATOM      1  C   UNL     1      27.113  15.621  -2.579  0.00  0.00    +0.152 C 
ENDROOT
BRANCH   1   3
ATOM      2  C   UNL     1      28.016  17.540  -0.862  0.00  0.00    +0.400 C 
ATOM      3  N   UNL     1      27.216  16.695  -1.595  0.00  0.00    -0.278 N 
ATOM      4  H   UNL     1      26.227  16.977  -1.304  0.00  0.00    +0.152 HD
ATOM      5  O   UNL     1      27.479  18.460  -0.250  0.00  0.00    -0.226 OA
BRANCH   2   6
ATOM      6  O   UNL     1      29.277  17.258  -0.865  0.00  0.00    -0.450 OA
BRANCH   6   7
ATOM      7  C   UNL     1      30.230  16.617  -0.049  0.00  0.00    +0.240 C 
BRANCH   7   8
ATOM      8  C   UNL     1      30.254  15.077  -0.060  0.00  0.00    +0.100 C 
BRANCH   8  10
ATOM      9  N   UNL     1      30.819  14.449   2.264  0.00  0.00    -0.134 NA
ATOM     10  C   UNL     1      31.196  14.571   0.955  0.00  0.00    +0.086 A 
ATOM     11  C   UNL     1      32.504  14.159   0.824  0.00  0.00    +0.134 A 
ATOM     12  N   UNL     1      32.872  13.796   2.090  0.00  0.00    -0.244 N 
ATOM     13  N   UNL     1      31.848  13.976   2.950  0.00  0.00    -0.065 NA
BRANCH  12  14
ATOM     14  C   UNL     1      34.166  13.271   2.546  0.00  0.00    +0.083 C 
ATOM     15  C   UNL     1      35.126  13.176   1.345  0.00  0.00    +0.038 C 
ATOM     16  C   UNL     1      33.970  11.869   3.157  0.00  0.00    +0.038 C 
BRANCH  14  17
ATOM     17  C   UNL     1      34.822  14.200   3.604  0.00  0.00    +0.185 C 
BRANCH  17  18
ATOM     18  O   UNL     1      34.215  15.491   3.655  0.00  0.00    -0.393 OA
ATOM     19  H   UNL     1      34.586  15.991   2.898  0.00  0.00    +0.209 HD
ENDBRANCH  17  18
ENDBRANCH  14  17
ENDBRANCH  12  14
ENDBRANCH   8  10
ENDBRANCH   7   8
ENDBRANCH   6   7
ENDBRANCH   2   6
ENDBRANCH   1   3
BRANCH   1  20
ATOM     20  C   UNL     1      25.737  14.934  -2.695  0.00  0.00    +0.193 C 
ATOM     21  O   UNL     1      25.264  15.176  -4.038  0.00  0.00    -0.219 OA
BRANCH  20  22
ATOM     22  C   UNL     1      25.689  13.398  -2.540  0.00  0.00    +0.212 C 
ATOM     23  O   UNL     1      26.943  12.815  -2.928  0.00  0.00    -0.218 OA
BRANCH  22  24
ATOM     24  C   UNL     1      25.346  12.929  -1.074  0.00  0.00    +0.171 C 
ATOM     25  O   UNL     1      26.246  11.935  -0.593  0.00  0.00    -0.343 OA
ATOM     26  C   UNL     1      26.038  11.176   0.561  0.00  0.00    +0.220 C 
ATOM     27  C   UNL     1      24.640  10.533   0.576  0.00  0.00    +0.076 C 
ATOM     28  C   UNL     1      23.613  11.653   0.344  0.00  0.00    +0.177 C 
ATOM     29  O   UNL     1      22.298  11.117   0.388  0.00  0.00    -0.221 OA
ATOM     30  C   UNL     1      23.890  12.363  -1.018  0.00  0.00    +0.155 C 
BRANCH  30  31
ATOM     31  N   UNL     1      22.911  13.423  -1.245  0.00  0.00    -0.202 NA
ATOM     32  C   UNL     1      22.059  13.609  -2.285  0.00  0.00    +0.242 C 
ATOM     33  C   UNL     1      20.951  14.618  -2.130  0.00  0.00    +0.096 C 
ATOM     34  O   UNL     1      22.207  12.956  -3.316  0.00  0.00    -0.273 OA
ENDBRANCH  30  31
BRANCH  26  35
ATOM     35  C   UNL     1      26.334  11.992   1.934  0.00  0.00    +0.391 C 
ATOM     36  O   UNL     1      27.184  12.975   1.578  0.00  0.00    -0.243 OA
ATOM     37  O   UNL     1      25.413  11.581   2.815  0.00  0.00    -0.243 OA
ENDBRANCH  26  35
ENDBRANCH  22  24
ENDBRANCH  20  22
ENDBRANCH   1  20
TORSDOF 13
