REMARK VINA RESULT:    -6.461      2.255      2.880
REMARK INTER + INTRA:         -12.834
REMARK INTER:                 -11.683
REMARK INTRA:                  -1.152
REMARK UNBOUND:                -1.841
REMARK  Name = lig_assembled_39.pdb
REMARK  12 active torsions:
REMARK  status: ('A' for Active; 'I' for Inactive)
REMARK    1  A    between atoms: _2  and  _8
REMARK    2  A    between atoms: _5  and  _6
REMARK    3  A    between atoms: _5  and  _14
REMARK    4  A    between atoms: _8  and  _9
REMARK    5  A    between atoms: _14  and  _16
REMARK    6  A    between atoms: _15  and  _20
REMARK    7  A    between atoms: _16  and  _19
REMARK    8  A    between atoms: _24  and  _34
REMARK    9  A    between atoms: _26  and  _27
REMARK   10  A    between atoms: _28  and  _30
REMARK   11  A    between atoms: _30  and  _32
REMARK   12  A    between atoms: _32  and  _34
REMARK                            x       y       z     vdW  Elec       q    Type
REMARK                         _______ _______ _______ _____ _____    ______ ____
ROOT
ATOM      1  C   UNL     1      27.478  17.504  -1.590  0.00  0.00    +0.400 C 
ATOM      2  N   UNL     1      28.220  16.490  -1.031  0.00  0.00    -0.278 N 
ATOM      3  H   UNL     1      29.004  17.009  -0.523  0.00  0.00    +0.152 HD
ATOM      4  O   UNL     1      27.735  18.659  -1.261  0.00  0.00    -0.226 OA
ENDROOT
BRANCH   2   5
ATOM      5  C   UNL     1      28.404  15.058  -0.813  0.00  0.00    +0.152 C 
BRANCH   5   6
ATOM      6  C   UNL     1      29.295  14.661   0.382  0.00  0.00    +0.193 C 
ATOM      7  O   UNL     1      29.361  13.218   0.390  0.00  0.00    -0.219 OA
BRANCH   6   8
ATOM      8  C   UNL     1      30.771  15.114   0.355  0.00  0.00    +0.212 C 
ATOM      9  O   UNL     1      30.894  16.454   0.857  0.00  0.00    -0.218 OA
BRANCH   8  10
ATOM     10  C   UNL     1      31.728  14.175   1.184  0.00  0.00    +0.171 C 
ATOM     11  O   UNL     1      32.065  14.721   2.455  0.00  0.00    -0.343 OA
ATOM     12  C   UNL     1      33.074  14.225   3.284  0.00  0.00    +0.220 C 
ATOM     13  C   UNL     1      34.402  14.054   2.525  0.00  0.00    +0.076 C 
ATOM     14  C   UNL     1      34.115  13.206   1.275  0.00  0.00    +0.177 C 
ATOM     15  O   UNL     1      35.320  12.983   0.557  0.00  0.00    -0.221 OA
ATOM     16  C   UNL     1      33.044  13.908   0.383  0.00  0.00    +0.155 C 
BRANCH  16  17
ATOM     17  N   UNL     1      32.774  13.108  -0.809  0.00  0.00    -0.202 NA
ATOM     18  C   UNL     1      32.995  13.397  -2.116  0.00  0.00    +0.242 C 
ATOM     19  C   UNL     1      32.898  12.279  -3.122  0.00  0.00    +0.096 C 
ATOM     20  O   UNL     1      33.268  14.549  -2.446  0.00  0.00    -0.273 OA
ENDBRANCH  16  17
BRANCH  12  21
ATOM     21  C   UNL     1      32.657  12.867   4.070  0.00  0.00    +0.391 C 
ATOM     22  O   UNL     1      31.311  12.828   4.007  0.00  0.00    -0.243 OA
ATOM     23  O   UNL     1      33.785  12.161   4.214  0.00  0.00    -0.243 OA
ENDBRANCH  12  21
ENDBRANCH   8  10
ENDBRANCH   6   8
ENDBRANCH   5   6
ENDBRANCH   2   5
BRANCH   1  24
ATOM     24  O   UNL     1      26.584  17.136  -2.448  0.00  0.00    -0.450 OA
BRANCH  24  25
ATOM     25  C   UNL     1      26.458  16.926  -3.836  0.00  0.00    +0.240 C 
BRANCH  25  26
ATOM     26  C   UNL     1      26.362  15.470  -4.329  0.00  0.00    +0.100 C 
BRANCH  26  28
ATOM     27  N   UNL     1      24.887  13.506  -4.017  0.00  0.00    -0.134 NA
ATOM     28  C   UNL     1      25.110  14.849  -3.860  0.00  0.00    +0.086 A 
ATOM     29  C   UNL     1      24.030  15.415  -3.218  0.00  0.00    +0.134 A 
ATOM     30  N   UNL     1      23.224  14.350  -2.940  0.00  0.00    -0.247 N 
ATOM     31  N   UNL     1      23.713  13.215  -3.475  0.00  0.00    -0.065 NA
BRANCH  30  32
ATOM     32  C   UNL     1      22.023  14.327  -2.117  0.00  0.00    +0.181 C 
BRANCH  32  33
ATOM     33  C   UNL     1      20.789  13.866  -2.871  0.00  0.00    -0.012 A 
ATOM     34  C   UNL     1      20.373  12.518  -2.829  0.00  0.00    +0.006 A 
ATOM     35  C   UNL     1      19.242  12.080  -3.522  0.00  0.00    +0.000 A 
ATOM     36  C   UNL     1      18.512  12.973  -4.295  0.00  0.00    +0.001 A 
ATOM     37  C   UNL     1      18.924  14.300  -4.390  0.00  0.00    +0.015 A 
ATOM     38  C   UNL     1      20.058  14.742  -3.694  0.00  0.00    +0.023 A 
ATOM     39 BR   UNL     1      20.556  16.560  -3.947  0.00  0.00    -0.050 Br
ENDBRANCH  32  33
ENDBRANCH  30  32
ENDBRANCH  26  28
ENDBRANCH  25  26
ENDBRANCH  24  25
ENDBRANCH   1  24
TORSDOF 12
