REMARK VINA RESULT:    -7.161      2.226      3.892
REMARK INTER + INTRA:         -17.193
REMARK INTER:                 -13.729
REMARK INTRA:                  -3.464
REMARK UNBOUND:                -3.125
REMARK  Name = lig_assembled_47.pdb
REMARK  17 active torsions:
REMARK  status: ('A' for Active; 'I' for Inactive)
REMARK    1  A    between atoms: _2  and  _8
REMARK    2  A    between atoms: _5  and  _6
REMARK    3  A    between atoms: _5  and  _25
REMARK    4  A    between atoms: _8  and  _9
REMARK    5  A    between atoms: _9  and  _10
REMARK    6  A    between atoms: _9  and  _11
REMARK    7  A    between atoms: _10  and  _23
REMARK    8  A    between atoms: _11  and  _12
REMARK    9  A    between atoms: _11  and  _18
REMARK   10  A    between atoms: _25  and  _27
REMARK   11  A    between atoms: _26  and  _31
REMARK   12  A    between atoms: _27  and  _30
REMARK   13  A    between atoms: _35  and  _45
REMARK   14  A    between atoms: _37  and  _38
REMARK   15  A    between atoms: _39  and  _41
REMARK   16  A    between atoms: _41  and  _43
REMARK   17  A    between atoms: _43  and  _45
REMARK                            x       y       z     vdW  Elec       q    Type
REMARK                         _______ _______ _______ _____ _____    ______ ____
ROOT
ATOM      1  C   UNL     1      26.936  16.372  -3.305  0.00  0.00    +0.100 C 
ENDROOT
BRANCH   1   3
ATOM      2  N   UNL     1      24.553  16.053  -2.682  0.00  0.00    -0.134 NA
ATOM      3  C   UNL     1      25.683  15.592  -3.308  0.00  0.00    +0.086 A 
ATOM      4  C   UNL     1      25.416  14.354  -3.851  0.00  0.00    +0.133 A 
ATOM      5  N   UNL     1      24.127  14.100  -3.481  0.00  0.00    -0.251 N 
ATOM      6  N   UNL     1      23.606  15.131  -2.796  0.00  0.00    -0.065 NA
BRANCH   5   7
ATOM      7  C   UNL     1      23.388  12.853  -3.607  0.00  0.00    +0.160 C 
BRANCH   7   8
ATOM      8  C   UNL     1      23.279  12.061  -2.300  0.00  0.00    +0.131 C 
BRANCH   8   9
ATOM      9  C   UNL     1      24.595  12.226  -1.554  0.00  0.00    +0.311 C 
ATOM     10  O   UNL     1      25.563  11.508  -1.750  0.00  0.00    -0.251 OA
BRANCH   9  11
ATOM     11  O   UNL     1      24.696  13.286  -0.725  0.00  0.00    -0.480 OA
ATOM     12  H   UNL     1      24.113  14.049  -0.868  0.00  0.00    +0.295 HD
ENDBRANCH   9  11
ENDBRANCH   8   9
BRANCH   8  13
ATOM     13  C   UNL     1      22.052  12.439  -1.410  0.00  0.00    +0.064 C 
BRANCH  13  14
ATOM     14  C   UNL     1      20.732  12.651  -2.153  0.00  0.00    -0.039 A 
ATOM     15  C   UNL     1      20.268  11.665  -3.046  0.00  0.00    +0.004 A 
ATOM     16  C   UNL     1      19.065  11.828  -3.741  0.00  0.00    +0.000 A 
ATOM     17  C   UNL     1      18.311  12.985  -3.572  0.00  0.00    +0.000 A 
ATOM     18  C   UNL     1      18.763  13.979  -2.709  0.00  0.00    +0.000 A 
ATOM     19  C   UNL     1      19.957  13.809  -1.999  0.00  0.00    +0.004 A 
ENDBRANCH  13  14
BRANCH  13  20
ATOM     20  C   UNL     1      21.928  11.458  -0.237  0.00  0.00    -0.039 A 
ATOM     21  C   UNL     1      21.757  11.935   1.073  0.00  0.00    +0.004 A 
ATOM     22  C   UNL     1      21.815  11.059   2.161  0.00  0.00    +0.000 A 
ATOM     23  C   UNL     1      22.018   9.696   1.956  0.00  0.00    +0.000 A 
ATOM     24  C   UNL     1      22.148   9.203   0.664  0.00  0.00    +0.000 A 
ATOM     25  C   UNL     1      22.104  10.076  -0.422  0.00  0.00    +0.004 A 
ENDBRANCH  13  20
ENDBRANCH   8  13
ENDBRANCH   7   8
ENDBRANCH   5   7
ENDBRANCH   1   3
BRANCH   1  26
ATOM     26  C   UNL     1      27.463  16.566  -1.870  0.00  0.00    +0.240 C 
BRANCH  26  27
ATOM     27  O   UNL     1      28.011  15.442  -1.221  0.00  0.00    -0.450 OA
BRANCH  27  28
ATOM     28  C   UNL     1      28.171  14.176  -1.423  0.00  0.00    +0.400 C 
ATOM     29  N   UNL     1      27.808  13.356  -0.380  0.00  0.00    -0.278 N 
ATOM     30  H   UNL     1      27.830  12.380  -0.813  0.00  0.00    +0.152 HD
ATOM     31  O   UNL     1      28.582  13.652  -2.455  0.00  0.00    -0.226 OA
BRANCH  29  32
ATOM     32  C   UNL     1      27.430  13.224   1.025  0.00  0.00    +0.152 C 
BRANCH  32  33
ATOM     33  C   UNL     1      28.438  13.775   2.055  0.00  0.00    +0.193 C 
ATOM     34  O   UNL     1      27.764  13.781   3.333  0.00  0.00    -0.219 OA
BRANCH  33  35
ATOM     35  C   UNL     1      29.726  12.958   2.303  0.00  0.00    +0.212 C 
ATOM     36  O   UNL     1      29.568  11.614   1.822  0.00  0.00    -0.218 OA
BRANCH  35  37
ATOM     37  C   UNL     1      31.004  13.588   1.628  0.00  0.00    +0.171 C 
ATOM     38  O   UNL     1      30.963  13.516   0.206  0.00  0.00    -0.343 OA
ATOM     39  C   UNL     1      32.055  13.772  -0.627  0.00  0.00    +0.220 C 
ATOM     40  C   UNL     1      33.301  12.981  -0.193  0.00  0.00    +0.076 C 
ATOM     41  C   UNL     1      33.541  13.276   1.297  0.00  0.00    +0.177 C 
ATOM     42  O   UNL     1      34.709  12.599   1.740  0.00  0.00    -0.221 OA
ATOM     43  C   UNL     1      32.292  12.861   2.135  0.00  0.00    +0.155 C 
BRANCH  43  44
ATOM     44  N   UNL     1      32.519  13.133   3.552  0.00  0.00    -0.202 NA
ATOM     45  C   UNL     1      32.475  12.291   4.615  0.00  0.00    +0.242 C 
ATOM     46  C   UNL     1      33.038  12.767   5.929  0.00  0.00    +0.096 C 
ATOM     47  O   UNL     1      31.985  11.171   4.483  0.00  0.00    -0.273 OA
ENDBRANCH  43  44
BRANCH  39  48
ATOM     48  C   UNL     1      32.381  15.354  -0.798  0.00  0.00    +0.391 C 
ATOM     49  O   UNL     1      33.518  15.399  -1.521  0.00  0.00    -0.243 OA
ATOM     50  O   UNL     1      31.269  16.003  -0.432  0.00  0.00    -0.243 OA
ENDBRANCH  39  48
ENDBRANCH  35  37
ENDBRANCH  33  35
ENDBRANCH  32  33
ENDBRANCH  29  32
ENDBRANCH  27  28
ENDBRANCH  26  27
ENDBRANCH   1  26
TORSDOF 17
