REMARK VINA RESULT:    -6.318      3.571      9.002
REMARK INTER + INTRA:         -12.644
REMARK INTER:                 -11.096
REMARK INTRA:                  -1.548
REMARK UNBOUND:                -2.263
REMARK  Name = lig_assembled_52.pdb
REMARK  11 active torsions:
REMARK  status: ('A' for Active; 'I' for Inactive)
REMARK    1  A    between atoms: _2  and  _9
REMARK    2  A    between atoms: _6  and  _7
REMARK    3  A    between atoms: _6  and  _13
REMARK    4  A    between atoms: _13  and  _15
REMARK    5  A    between atoms: _14  and  _19
REMARK    6  A    between atoms: _15  and  _18
REMARK    7  A    between atoms: _23  and  _33
REMARK    8  A    between atoms: _25  and  _26
REMARK    9  A    between atoms: _27  and  _29
REMARK   10  A    between atoms: _29  and  _31
REMARK   11  A    between atoms: _31  and  _33
REMARK                            x       y       z     vdW  Elec       q    Type
REMARK                         _______ _______ _______ _____ _____    ______ ____
ROOT
ATOM      1  C   UNL     1      27.073  15.591  -2.492  0.00  0.00    +0.152 C 
ENDROOT
BRANCH   1   3
ATOM      2  C   UNL     1      28.073  17.490  -0.807  0.00  0.00    +0.400 C 
ATOM      3  N   UNL     1      27.231  16.667  -1.517  0.00  0.00    -0.278 N 
ATOM      4  H   UNL     1      26.258  16.983  -1.208  0.00  0.00    +0.152 HD
ATOM      5  O   UNL     1      27.580  18.431  -0.190  0.00  0.00    -0.226 OA
BRANCH   2   6
ATOM      6  O   UNL     1      29.325  17.167  -0.833  0.00  0.00    -0.450 OA
BRANCH   6   7
ATOM      7  C   UNL     1      30.379  16.903   0.063  0.00  0.00    +0.240 C 
BRANCH   7   8
ATOM      8  C   UNL     1      30.975  15.482   0.060  0.00  0.00    +0.100 C 
BRANCH   8  10
ATOM      9  N   UNL     1      28.948  14.417   0.995  0.00  0.00    -0.134 NA
ATOM     10  C   UNL     1      30.293  14.639   1.060  0.00  0.00    +0.086 A 
ATOM     11  C   UNL     1      30.807  13.968   2.145  0.00  0.00    +0.140 A 
ATOM     12  N   UNL     1      29.728  13.325   2.709  0.00  0.00    -0.218 N 
ATOM     13  N   UNL     1      28.611  13.623   2.001  0.00  0.00    -0.060 NA
BRANCH  12  14
ATOM     14  C   UNL     1      29.699  12.467   3.828  0.00  0.00    +0.085 A 
ATOM     15  C   UNL     1      28.555  11.745   4.180  0.00  0.00    +0.031 A 
ATOM     16  C   UNL     1      28.584  10.931   5.310  0.00  0.00    +0.022 A 
ATOM     17  C   UNL     1      29.754  10.865   6.048  0.00  0.00    +0.111 A 
ATOM     18  N   UNL     1      30.876  11.544   5.731  0.00  0.00    -0.261 NA
ATOM     19  C   UNL     1      30.829  12.331   4.628  0.00  0.00    +0.138 A 
ENDBRANCH  12  14
ENDBRANCH   8  10
ENDBRANCH   7   8
ENDBRANCH   6   7
ENDBRANCH   2   6
ENDBRANCH   1   3
BRANCH   1  20
ATOM     20  C   UNL     1      25.755  15.587  -3.293  0.00  0.00    +0.193 C 
ATOM     21  O   UNL     1      26.061  16.118  -4.601  0.00  0.00    -0.219 OA
BRANCH  20  22
ATOM     22  C   UNL     1      25.095  14.220  -3.577  0.00  0.00    +0.212 C 
ATOM     23  O   UNL     1      26.073  13.279  -4.049  0.00  0.00    -0.218 OA
BRANCH  22  24
ATOM     24  C   UNL     1      24.368  13.604  -2.321  0.00  0.00    +0.171 C 
ATOM     25  O   UNL     1      24.902  12.339  -1.945  0.00  0.00    -0.343 OA
ATOM     26  C   UNL     1      24.299  11.469  -1.033  0.00  0.00    +0.220 C 
ATOM     27  C   UNL     1      22.818  11.226  -1.371  0.00  0.00    +0.076 C 
ATOM     28  C   UNL     1      22.141  12.600  -1.498  0.00  0.00    +0.177 C 
ATOM     29  O   UNL     1      20.757  12.432  -1.771  0.00  0.00    -0.221 OA
ATOM     30  C   UNL     1      22.840  13.443  -2.610  0.00  0.00    +0.155 C 
BRANCH  30  31
ATOM     31  N   UNL     1      22.195  14.747  -2.739  0.00  0.00    -0.202 NA
ATOM     32  C   UNL     1      21.652  15.343  -3.831  0.00  0.00    +0.242 C 
ATOM     33  C   UNL     1      20.790  16.561  -3.627  0.00  0.00    +0.096 C 
ATOM     34  O   UNL     1      21.872  14.879  -4.948  0.00  0.00    -0.273 OA
ENDBRANCH  30  31
BRANCH  26  35
ATOM     35  C   UNL     1      24.493  11.918   0.516  0.00  0.00    +0.391 C 
ATOM     36  O   UNL     1      23.451  11.368   1.170  0.00  0.00    -0.243 OA
ATOM     37  O   UNL     1      25.740  12.394   0.610  0.00  0.00    -0.243 OA
ENDBRANCH  26  35
ENDBRANCH  22  24
ENDBRANCH  20  22
ENDBRANCH   1  20
TORSDOF 11
