REMARK VINA RESULT:    -7.034      1.817      3.126
REMARK INTER + INTRA:         -14.565
REMARK INTER:                 -12.298
REMARK INTRA:                  -2.267
REMARK UNBOUND:                -2.596
REMARK  Name = lig_assembled_4.pdb
REMARK  14 active torsions:
REMARK  status: ('A' for Active; 'I' for Inactive)
REMARK    1  A    between atoms: _2  and  _8
REMARK    2  A    between atoms: _5  and  _6
REMARK    3  A    between atoms: _5  and  _16
REMARK    4  A    between atoms: _9  and  _10
REMARK    5  A    between atoms: _10  and  _11
REMARK    6  A    between atoms: _10  and  _12
REMARK    7  A    between atoms: _16  and  _18
REMARK    8  A    between atoms: _17  and  _22
REMARK    9  A    between atoms: _18  and  _21
REMARK   10  A    between atoms: _26  and  _36
REMARK   11  A    between atoms: _28  and  _29
REMARK   12  A    between atoms: _30  and  _32
REMARK   13  A    between atoms: _32  and  _34
REMARK   14  A    between atoms: _34  and  _36
REMARK                            x       y       z     vdW  Elec       q    Type
REMARK                         _______ _______ _______ _____ _____    ______ ____
ROOT
ATOM      1  C   UNL     1      28.215  16.736  -0.814  0.00  0.00    +0.400 C 
ATOM      2  N   UNL     1      28.376  15.481  -0.274  0.00  0.00    -0.278 N 
ATOM      3  H   UNL     1      28.834  15.676   0.672  0.00  0.00    +0.152 HD
ATOM      4  O   UNL     1      28.430  17.708  -0.094  0.00  0.00    -0.226 OA
ENDROOT
BRANCH   2   5
ATOM      5  C   UNL     1      28.192  14.038  -0.404  0.00  0.00    +0.152 C 
BRANCH   5   6
ATOM      6  C   UNL     1      27.907  13.269   0.903  0.00  0.00    +0.193 C 
ATOM      7  O   UNL     1      28.410  11.928   0.714  0.00  0.00    -0.219 OA
BRANCH   6   8
ATOM      8  C   UNL     1      28.603  13.764   2.190  0.00  0.00    +0.212 C 
ATOM      9  O   UNL     1      27.642  13.944   3.243  0.00  0.00    -0.218 OA
BRANCH   8  10
ATOM     10  C   UNL     1      29.733  12.792   2.701  0.00  0.00    +0.171 C 
ATOM     11  O   UNL     1      29.510  12.344   4.035  0.00  0.00    -0.343 OA
ATOM     12  C   UNL     1      30.461  11.681   4.813  0.00  0.00    +0.220 C 
ATOM     13  C   UNL     1      31.805  12.429   4.832  0.00  0.00    +0.076 C 
ATOM     14  C   UNL     1      32.220  12.672   3.372  0.00  0.00    +0.177 C 
ATOM     15  O   UNL     1      33.479  13.327   3.331  0.00  0.00    -0.221 OA
ATOM     16  C   UNL     1      31.125  13.502   2.633  0.00  0.00    +0.155 C 
BRANCH  16  17
ATOM     17  N   UNL     1      31.518  13.741   1.247  0.00  0.00    -0.202 NA
ATOM     18  C   UNL     1      31.633  14.910   0.566  0.00  0.00    +0.242 C 
ATOM     19  C   UNL     1      32.341  14.897  -0.764  0.00  0.00    +0.096 C 
ATOM     20  O   UNL     1      31.164  15.941   1.045  0.00  0.00    -0.273 OA
ENDBRANCH  16  17
BRANCH  12  21
ATOM     21  C   UNL     1      30.652  10.119   4.410  0.00  0.00    +0.391 C 
ATOM     22  O   UNL     1      31.783   9.735   5.034  0.00  0.00    -0.243 OA
ATOM     23  O   UNL     1      29.489   9.730   3.875  0.00  0.00    -0.243 OA
ENDBRANCH  12  21
ENDBRANCH   8  10
ENDBRANCH   6   8
ENDBRANCH   5   6
ENDBRANCH   2   5
BRANCH   1  24
ATOM     24  O   UNL     1      27.877  16.769  -2.061  0.00  0.00    -0.450 OA
BRANCH  24  25
ATOM     25  C   UNL     1      26.920  17.384  -2.892  0.00  0.00    +0.240 C 
BRANCH  25  26
ATOM     26  C   UNL     1      26.432  16.592  -4.120  0.00  0.00    +0.100 C 
BRANCH  26  28
ATOM     27  N   UNL     1      25.446  14.355  -4.457  0.00  0.00    -0.134 NA
ATOM     28  C   UNL     1      25.548  15.485  -3.708  0.00  0.00    +0.086 A 
ATOM     29  C   UNL     1      24.702  15.388  -2.627  0.00  0.00    +0.139 A 
ATOM     30  N   UNL     1      23.998  14.218  -2.831  0.00  0.00    -0.220 N 
ATOM     31  N   UNL     1      24.521  13.581  -3.901  0.00  0.00    -0.061 NA
BRANCH  30  32
ATOM     32  C   UNL     1      22.882  13.733  -2.085  0.00  0.00    +0.070 A 
ATOM     33  C   UNL     1      21.533  14.047  -2.404  0.00  0.00    -0.019 A 
ATOM     34  C   UNL     1      20.525  13.526  -1.562  0.00  0.00    +0.006 A 
ATOM     35  C   UNL     1      20.823  12.742  -0.445  0.00  0.00    +0.000 A 
ATOM     36  C   UNL     1      22.142  12.437  -0.148  0.00  0.00    +0.002 A 
ATOM     37  C   UNL     1      23.164  12.928  -0.958  0.00  0.00    +0.028 A 
BRANCH  33  38
ATOM     38  C   UNL     1      21.108  14.917  -3.589  0.00  0.00    +0.015 C 
ATOM     39  C   UNL     1      21.161  16.432  -3.337  0.00  0.00    +0.012 C 
ATOM     40  C   UNL     1      19.705  14.517  -4.054  0.00  0.00    +0.012 C 
ENDBRANCH  33  38
ENDBRANCH  30  32
ENDBRANCH  26  28
ENDBRANCH  25  26
ENDBRANCH  24  25
ENDBRANCH   1  24
TORSDOF 12
