REMARK VINA RESULT:    -6.340      1.664      1.968
REMARK INTER + INTRA:         -12.865
REMARK INTER:                 -11.512
REMARK INTRA:                  -1.353
REMARK UNBOUND:                -1.336
REMARK  Name = lig_assembled_19.pdb
REMARK  15 active torsions:
REMARK  status: ('A' for Active; 'I' for Inactive)
REMARK    1  A    between atoms: _2  and  _8
REMARK    2  A    between atoms: _4  and  _10
REMARK    3  A    between atoms: _5  and  _6
REMARK    4  A    between atoms: _5  and  _13
REMARK    5  A    between atoms: _8  and  _9
REMARK    6  A    between atoms: _9  and  _12
REMARK    7  A    between atoms: _10  and  _12
REMARK    8  A    between atoms: _13  and  _15
REMARK    9  A    between atoms: _14  and  _19
REMARK   10  A    between atoms: _15  and  _18
REMARK   11  A    between atoms: _23  and  _33
REMARK   12  A    between atoms: _25  and  _26
REMARK   13  A    between atoms: _27  and  _29
REMARK   14  A    between atoms: _29  and  _31
REMARK   15  A    between atoms: _31  and  _33
REMARK                            x       y       z     vdW  Elec       q    Type
REMARK                         _______ _______ _______ _____ _____    ______ ____
ROOT
ATOM      1  C   UNL     1      29.110  15.135   0.094  0.00  0.00    +0.152 C 
ENDROOT
BRANCH   1   3
ATOM      2  C   UNL     1      27.889  17.366  -0.895  0.00  0.00    +0.400 C 
ATOM      3  N   UNL     1      28.555  16.473  -0.087  0.00  0.00    -0.278 N 
ATOM      4  H   UNL     1      28.720  17.028   0.811  0.00  0.00    +0.152 HD
ATOM      5  O   UNL     1      27.502  18.420  -0.397  0.00  0.00    -0.226 OA
BRANCH   2   6
ATOM      6  O   UNL     1      27.762  17.014  -2.132  0.00  0.00    -0.450 OA
BRANCH   6   7
ATOM      7  C   UNL     1      27.085  17.428  -3.296  0.00  0.00    +0.240 C 
BRANCH   7   8
ATOM      8  C   UNL     1      26.517  16.331  -4.216  0.00  0.00    +0.100 C 
BRANCH   8  10
ATOM      9  N   UNL     1      26.340  14.021  -3.338  0.00  0.00    -0.134 NA
ATOM     10  C   UNL     1      25.838  15.293  -3.420  0.00  0.00    +0.086 A 
ATOM     11  C   UNL     1      24.683  15.368  -2.674  0.00  0.00    +0.133 A 
ATOM     12  N   UNL     1      24.534  14.110  -2.175  0.00  0.00    -0.248 N 
ATOM     13  N   UNL     1      25.532  13.303  -2.570  0.00  0.00    -0.065 NA
BRANCH  12  14
ATOM     14  C   UNL     1      23.483  13.615  -1.314  0.00  0.00    +0.186 C 
BRANCH  14  15
ATOM     15  C   UNL     1      22.441  12.819  -2.093  0.00  0.00    +0.255 C 
BRANCH  15  16
ATOM     16  O   UNL     1      21.812  13.605  -3.125  0.00  0.00    -0.463 OA
BRANCH  16  17
ATOM     17  C   UNL     1      20.882  14.502  -2.706  0.00  0.00    +0.304 C 
ATOM     18  O   UNL     1      20.893  15.696  -2.970  0.00  0.00    -0.251 OA
ATOM     19  C   UNL     1      19.813  13.828  -1.901  0.00  0.00    +0.136 C 
ENDBRANCH  16  17
ENDBRANCH  15  16
ENDBRANCH  14  15
ENDBRANCH  12  14
ENDBRANCH   8  10
ENDBRANCH   7   8
ENDBRANCH   6   7
ENDBRANCH   2   6
ENDBRANCH   1   3
BRANCH   1  20
ATOM     20  C   UNL     1      30.520  15.063   0.716  0.00  0.00    +0.193 C 
ATOM     21  O   UNL     1      31.019  16.417   0.772  0.00  0.00    -0.219 OA
BRANCH  20  22
ATOM     22  C   UNL     1      30.635  14.550   2.169  0.00  0.00    +0.212 C 
ATOM     23  O   UNL     1      29.518  13.707   2.493  0.00  0.00    -0.218 OA
BRANCH  22  24
ATOM     24  C   UNL     1      31.966  13.751   2.445  0.00  0.00    +0.171 C 
ATOM     25  O   UNL     1      32.981  14.563   3.026  0.00  0.00    -0.343 OA
ATOM     26  C   UNL     1      34.320  14.183   3.149  0.00  0.00    +0.220 C 
ATOM     27  C   UNL     1      34.892  13.671   1.816  0.00  0.00    +0.076 C 
ATOM     28  C   UNL     1      33.951  12.568   1.302  0.00  0.00    +0.177 C 
ATOM     29  O   UNL     1      34.456  12.031   0.088  0.00  0.00    -0.221 OA
ATOM     30  C   UNL     1      32.510  13.136   1.114  0.00  0.00    +0.155 C 
BRANCH  30  31
ATOM     31  N   UNL     1      31.614  12.094   0.619  0.00  0.00    -0.202 NA
ATOM     32  C   UNL     1      31.222  11.817  -0.650  0.00  0.00    +0.242 C 
ATOM     33  C   UNL     1      30.528  10.507  -0.915  0.00  0.00    +0.096 C 
ATOM     34  O   UNL     1      31.441  12.632  -1.545  0.00  0.00    -0.273 OA
ENDBRANCH  30  31
BRANCH  26  35
ATOM     35  C   UNL     1      34.586  13.130   4.357  0.00  0.00    +0.391 C 
ATOM     36  O   UNL     1      35.738  12.513   4.033  0.00  0.00    -0.243 OA
ATOM     37  O   UNL     1      33.748  13.478   5.342  0.00  0.00    -0.243 OA
ENDBRANCH  26  35
ENDBRANCH  22  24
ENDBRANCH  20  22
ENDBRANCH   1  20
TORSDOF 14
