REMARK VINA RESULT:    -6.929      2.231      2.865
REMARK INTER + INTRA:         -14.303
REMARK INTER:                 -12.852
REMARK INTRA:                  -1.451
REMARK UNBOUND:                -2.513
REMARK  Name = lig_assembled_28.pdb
REMARK  12 active torsions:
REMARK  status: ('A' for Active; 'I' for Inactive)
REMARK    1  A    between atoms: _2  and  _8
REMARK    2  A    between atoms: _5  and  _6
REMARK    3  A    between atoms: _5  and  _17
REMARK    4  A    between atoms: _8  and  _9
REMARK    5  A    between atoms: _17  and  _19
REMARK    6  A    between atoms: _18  and  _23
REMARK    7  A    between atoms: _19  and  _22
REMARK    8  A    between atoms: _27  and  _37
REMARK    9  A    between atoms: _29  and  _30
REMARK   10  A    between atoms: _31  and  _33
REMARK   11  A    between atoms: _33  and  _35
REMARK   12  A    between atoms: _35  and  _37
REMARK                            x       y       z     vdW  Elec       q    Type
REMARK                         _______ _______ _______ _____ _____    ______ ____
ROOT
ATOM      1  C   UNL     1      28.318  17.628  -0.618  0.00  0.00    +0.400 C 
ATOM      2  N   UNL     1      29.490  17.565   0.098  0.00  0.00    -0.278 N 
ATOM      3  H   UNL     1      29.442  18.428   0.727  0.00  0.00    +0.152 HD
ATOM      4  O   UNL     1      27.476  18.458  -0.281  0.00  0.00    -0.226 OA
ENDROOT
BRANCH   2   5
ATOM      5  C   UNL     1      30.734  16.858   0.388  0.00  0.00    +0.152 C 
BRANCH   5   6
ATOM      6  C   UNL     1      30.708  15.328   0.189  0.00  0.00    +0.193 C 
ATOM      7  O   UNL     1      31.601  15.037  -0.909  0.00  0.00    -0.219 OA
BRANCH   6   8
ATOM      8  C   UNL     1      31.224  14.448   1.349  0.00  0.00    +0.212 C 
ATOM      9  O   UNL     1      31.570  15.262   2.481  0.00  0.00    -0.218 OA
BRANCH   8  10
ATOM     10  C   UNL     1      30.186  13.355   1.812  0.00  0.00    +0.171 C 
ATOM     11  O   UNL     1      30.050  13.295   3.228  0.00  0.00    -0.343 OA
ATOM     12  C   UNL     1      29.393  12.270   3.914  0.00  0.00    +0.220 C 
ATOM     13  C   UNL     1      29.886  10.881   3.471  0.00  0.00    +0.076 C 
ATOM     14  C   UNL     1      29.767  10.814   1.939  0.00  0.00    +0.177 C 
ATOM     15  O   UNL     1      30.173   9.533   1.480  0.00  0.00    -0.221 OA
ATOM     16  C   UNL     1      30.618  11.947   1.285  0.00  0.00    +0.155 C 
BRANCH  16  17
ATOM     17  N   UNL     1      30.513  11.883  -0.171  0.00  0.00    -0.202 NA
ATOM     18  C   UNL     1      31.455  11.567  -1.095  0.00  0.00    +0.242 C 
ATOM     19  C   UNL     1      31.008  11.289  -2.507  0.00  0.00    +0.096 C 
ATOM     20  O   UNL     1      32.638  11.512  -0.764  0.00  0.00    -0.273 OA
ENDBRANCH  16  17
BRANCH  12  21
ATOM     21  C   UNL     1      27.774  12.379   3.845  0.00  0.00    +0.391 C 
ATOM     22  O   UNL     1      27.524  13.674   3.570  0.00  0.00    -0.243 OA
ATOM     23  O   UNL     1      27.321  11.121   3.785  0.00  0.00    -0.243 OA
ENDBRANCH  12  21
ENDBRANCH   8  10
ENDBRANCH   6   8
ENDBRANCH   5   6
ENDBRANCH   2   5
BRANCH   1  24
ATOM     24  O   UNL     1      28.227  16.812  -1.617  0.00  0.00    -0.450 OA
BRANCH  24  25
ATOM     25  C   UNL     1      27.290  15.935  -2.198  0.00  0.00    +0.240 C 
BRANCH  25  26
ATOM     26  C   UNL     1      26.597  16.394  -3.495  0.00  0.00    +0.100 C 
BRANCH  26  28
ATOM     27  N   UNL     1      24.866  15.037  -4.637  0.00  0.00    -0.134 NA
ATOM     28  C   UNL     1      25.241  15.822  -3.582  0.00  0.00    +0.086 A 
ATOM     29  C   UNL     1      24.190  15.919  -2.698  0.00  0.00    +0.134 A 
ATOM     30  N   UNL     1      23.238  15.091  -3.220  0.00  0.00    -0.247 N 
ATOM     31  N   UNL     1      23.632  14.603  -4.413  0.00  0.00    -0.065 NA
BRANCH  30  32
ATOM     32  C   UNL     1      21.980  14.622  -2.654  0.00  0.00    +0.180 C 
BRANCH  32  33
ATOM     33  C   UNL     1      22.154  13.567  -1.585  0.00  0.00    -0.022 A 
ATOM     34  C   UNL     1      23.440  13.120  -1.235  0.00  0.00    +0.055 A 
ATOM     35  C   UNL     1      23.555  12.243  -0.177  0.00  0.00    +0.167 A 
ATOM     36  O   UNL     1      24.722  11.759   0.326  0.00  0.00    -0.453 OA
ATOM     37  C   UNL     1      24.235  11.021   1.468  0.00  0.00    +0.466 C 
ATOM     38  O   UNL     1      22.795  10.957   1.535  0.00  0.00    -0.453 OA
ATOM     39  C   UNL     1      22.459  11.786   0.511  0.00  0.00    +0.166 A 
ATOM     40  C   UNL     1      21.179  12.173   0.174  0.00  0.00    +0.050 A 
ATOM     41  C   UNL     1      21.028  13.080  -0.880  0.00  0.00    +0.009 A 
ENDBRANCH  32  33
ENDBRANCH  30  32
ENDBRANCH  26  28
ENDBRANCH  25  26
ENDBRANCH  24  25
ENDBRANCH   1  24
TORSDOF 12
