REMARK VINA RESULT:    -6.674      2.924      9.364
REMARK INTER + INTRA:         -13.749
REMARK INTER:                 -11.830
REMARK INTRA:                  -1.919
REMARK UNBOUND:                -1.807
REMARK  Name = lig_assembled_75.pdb
REMARK  14 active torsions:
REMARK  status: ('A' for Active; 'I' for Inactive)
REMARK    1  A    between atoms: _2  and  _8
REMARK    2  A    between atoms: _5  and  _6
REMARK    3  A    between atoms: _5  and  _18
REMARK    4  A    between atoms: _10  and  _11
REMARK    5  A    between atoms: _12  and  _13
REMARK    6  A    between atoms: _13  and  _16
REMARK    7  A    between atoms: _18  and  _20
REMARK    8  A    between atoms: _19  and  _24
REMARK    9  A    between atoms: _20  and  _23
REMARK   10  A    between atoms: _28  and  _38
REMARK   11  A    between atoms: _30  and  _31
REMARK   12  A    between atoms: _32  and  _34
REMARK   13  A    between atoms: _34  and  _36
REMARK   14  A    between atoms: _36  and  _38
REMARK                            x       y       z     vdW  Elec       q    Type
REMARK                         _______ _______ _______ _____ _____    ______ ____
ROOT
ATOM      1  C   UNL     1      28.341  17.287  -0.837  0.00  0.00    +0.400 C 
ATOM      2  N   UNL     1      27.538  16.328  -1.407  0.00  0.00    -0.278 N 
ATOM      3  H   UNL     1      26.552  16.716  -1.268  0.00  0.00    +0.152 HD
ATOM      4  O   UNL     1      27.825  18.351  -0.503  0.00  0.00    -0.226 OA
ENDROOT
BRANCH   2   5
ATOM      5  C   UNL     1      27.431  15.054  -2.114  0.00  0.00    +0.152 C 
BRANCH   5   6
ATOM      6  C   UNL     1      26.001  14.528  -2.354  0.00  0.00    +0.193 C 
ATOM      7  O   UNL     1      25.777  14.572  -3.781  0.00  0.00    -0.219 OA
BRANCH   6   8
ATOM      8  C   UNL     1      25.703  13.065  -1.962  0.00  0.00    +0.212 C 
ATOM      9  O   UNL     1      26.591  12.169  -2.650  0.00  0.00    -0.218 OA
BRANCH   8  10
ATOM     10  C   UNL     1      25.819  12.797  -0.412  0.00  0.00    +0.171 C 
ATOM     11  O   UNL     1      27.101  12.306  -0.036  0.00  0.00    -0.343 OA
ATOM     12  C   UNL     1      27.400  11.761   1.215  0.00  0.00    +0.220 C 
ATOM     13  C   UNL     1      26.388  10.676   1.622  0.00  0.00    +0.076 C 
ATOM     14  C   UNL     1      24.982  11.286   1.501  0.00  0.00    +0.177 C 
ATOM     15  O   UNL     1      24.008  10.334   1.904  0.00  0.00    -0.221 OA
ATOM     16  C   UNL     1      24.730  11.770   0.039  0.00  0.00    +0.155 C 
BRANCH  16  17
ATOM     17  N   UNL     1      23.392  12.343  -0.082  0.00  0.00    -0.202 NA
ATOM     18  C   UNL     1      22.362  11.980  -0.887  0.00  0.00    +0.242 C 
ATOM     19  C   UNL     1      20.996  12.549  -0.603  0.00  0.00    +0.096 C 
ATOM     20  O   UNL     1      22.563  11.202  -1.818  0.00  0.00    -0.273 OA
ENDBRANCH  16  17
BRANCH  12  21
ATOM     21  C   UNL     1      27.578  12.879   2.381  0.00  0.00    +0.391 C 
ATOM     22  O   UNL     1      27.455  12.197   3.537  0.00  0.00    -0.243 OA
ATOM     23  O   UNL     1      28.069  13.968   1.778  0.00  0.00    -0.243 OA
ENDBRANCH  12  21
ENDBRANCH   8  10
ENDBRANCH   6   8
ENDBRANCH   5   6
ENDBRANCH   2   5
BRANCH   1  24
ATOM     24  O   UNL     1      29.580  16.957  -0.676  0.00  0.00    -0.450 OA
BRANCH  24  25
ATOM     25  C   UNL     1      30.372  16.162   0.176  0.00  0.00    +0.240 C 
BRANCH  25  26
ATOM     26  C   UNL     1      30.835  14.792  -0.356  0.00  0.00    +0.100 C 
BRANCH  26  28
ATOM     27  N   UNL     1      33.147  14.041   0.100  0.00  0.00    -0.134 NA
ATOM     28  C   UNL     1      31.865  14.220   0.531  0.00  0.00    +0.086 A 
ATOM     29  C   UNL     1      31.763  13.788   1.833  0.00  0.00    +0.139 A 
ATOM     30  N   UNL     1      33.025  13.347   2.162  0.00  0.00    -0.220 N 
ATOM     31  N   UNL     1      33.846  13.509   1.094  0.00  0.00    -0.061 NA
BRANCH  30  32
ATOM     32  C   UNL     1      33.479  12.773   3.376  0.00  0.00    +0.068 A 
ATOM     33  C   UNL     1      32.677  12.871   4.527  0.00  0.00    +0.035 A 
ATOM     34  C   UNL     1      33.125  12.372   5.759  0.00  0.00    -0.023 A 
ATOM     35  C   UNL     1      34.361  11.716   5.811  0.00  0.00    +0.008 A 
ATOM     36  C   UNL     1      35.152  11.597   4.665  0.00  0.00    +0.003 A 
ATOM     37  C   UNL     1      34.720  12.130   3.452  0.00  0.00    +0.028 A 
BRANCH  34  38
ATOM     38  C   UNL     1      32.336  12.496   6.994  0.00  0.00    +0.015 C 
ATOM     39  C   UNL     1      31.301  11.698   7.301  0.00  0.00    +0.092 C 
BRANCH  39  40
ATOM     40  C   UNL     1      30.538  11.935   8.543  0.00  0.00    +0.330 C 
ATOM     41  O   UNL     1      29.532  11.329   8.865  0.00  0.00    -0.246 OA
BRANCH  40  42
ATOM     42  O   UNL     1      31.094  12.903   9.298  0.00  0.00    -0.478 OA
ATOM     43  H   UNL     1      32.038  13.079   9.132  0.00  0.00    +0.295 HD
ENDBRANCH  40  42
ENDBRANCH  39  40
ENDBRANCH  34  38
ENDBRANCH  30  32
ENDBRANCH  26  28
ENDBRANCH  25  26
ENDBRANCH  24  25
ENDBRANCH   1  24
TORSDOF 14
