REMARK VINA RESULT:    -5.959      1.618      2.471
REMARK INTER + INTRA:         -12.796
REMARK INTER:                 -11.211
REMARK INTRA:                  -1.585
REMARK UNBOUND:                -2.657
REMARK  Name = lig_assembled_46.pdb
REMARK  12 active torsions:
REMARK  status: ('A' for Active; 'I' for Inactive)
REMARK    1  A    between atoms: _2  and  _8
REMARK    2  A    between atoms: _5  and  _6
REMARK    3  A    between atoms: _5  and  _14
REMARK    4  A    between atoms: _8  and  _9
REMARK    5  A    between atoms: _14  and  _16
REMARK    6  A    between atoms: _15  and  _20
REMARK    7  A    between atoms: _16  and  _19
REMARK    8  A    between atoms: _24  and  _34
REMARK    9  A    between atoms: _26  and  _27
REMARK   10  A    between atoms: _28  and  _30
REMARK   11  A    between atoms: _30  and  _32
REMARK   12  A    between atoms: _32  and  _34
REMARK                            x       y       z     vdW  Elec       q    Type
REMARK                         _______ _______ _______ _____ _____    ______ ____
ROOT
ATOM      1  C   UNL     1      27.761  14.051  -1.747  0.00  0.00    +0.400 C 
ATOM      2  N   UNL     1      28.527  13.347  -0.848  0.00  0.00    -0.278 N 
ATOM      3  H   UNL     1      28.001  12.422  -0.746  0.00  0.00    +0.152 HD
ATOM      4  O   UNL     1      26.849  13.459  -2.320  0.00  0.00    -0.226 OA
ENDROOT
BRANCH   2   5
ATOM      5  C   UNL     1      29.717  13.291  -0.003  0.00  0.00    +0.152 C 
BRANCH   5   6
ATOM      6  C   UNL     1      29.894  14.451   0.998  0.00  0.00    +0.193 C 
ATOM      7  O   UNL     1      29.613  13.916   2.310  0.00  0.00    -0.219 OA
BRANCH   6   8
ATOM      8  C   UNL     1      31.303  15.072   1.129  0.00  0.00    +0.212 C 
ATOM      9  O   UNL     1      31.244  16.293   1.885  0.00  0.00    -0.218 OA
BRANCH   8  10
ATOM     10  C   UNL     1      32.349  14.109   1.809  0.00  0.00    +0.171 C 
ATOM     11  O   UNL     1      32.800  14.593   3.070  0.00  0.00    -0.343 OA
ATOM     12  C   UNL     1      33.892  14.073   3.769  0.00  0.00    +0.220 C 
ATOM     13  C   UNL     1      35.142  13.969   2.877  0.00  0.00    +0.076 C 
ATOM     14  C   UNL     1      34.747  13.183   1.616  0.00  0.00    +0.177 C 
ATOM     15  O   UNL     1      35.879  13.023   0.774  0.00  0.00    -0.221 OA
ATOM     16  C   UNL     1      33.585  13.911   0.872  0.00  0.00    +0.155 C 
BRANCH  16  17
ATOM     17  N   UNL     1      33.211  13.171  -0.331  0.00  0.00    -0.202 NA
ATOM     18  C   UNL     1      33.143  13.588  -1.621  0.00  0.00    +0.242 C 
ATOM     19  C   UNL     1      33.016  12.548  -2.703  0.00  0.00    +0.096 C 
ATOM     20  O   UNL     1      33.188  14.790  -1.873  0.00  0.00    -0.273 OA
ENDBRANCH  16  17
BRANCH  12  21
ATOM     21  C   UNL     1      33.573  12.666   4.516  0.00  0.00    +0.391 C 
ATOM     22  O   UNL     1      34.777  12.189   4.888  0.00  0.00    -0.243 OA
ATOM     23  O   UNL     1      32.254  12.660   4.744  0.00  0.00    -0.243 OA
ENDBRANCH  12  21
ENDBRANCH   8  10
ENDBRANCH   6   8
ENDBRANCH   5   6
ENDBRANCH   2   5
BRANCH   1  24
ATOM     24  O   UNL     1      28.063  15.301  -1.881  0.00  0.00    -0.450 OA
BRANCH  24  25
ATOM     25  C   UNL     1      27.463  16.566  -1.731  0.00  0.00    +0.240 C 
BRANCH  25  26
ATOM     26  C   UNL     1      27.005  17.292  -3.010  0.00  0.00    +0.100 C 
BRANCH  26  28
ATOM     27  N   UNL     1      26.514  15.898  -4.996  0.00  0.00    -0.134 NA
ATOM     28  C   UNL     1      26.109  16.426  -3.799  0.00  0.00    +0.086 A 
ATOM     29  C   UNL     1      24.837  15.977  -3.516  0.00  0.00    +0.134 A 
ATOM     30  N   UNL     1      24.546  15.134  -4.550  0.00  0.00    -0.247 N 
ATOM     31  N   UNL     1      25.554  15.101  -5.444  0.00  0.00    -0.065 NA
BRANCH  30  32
ATOM     32  C   UNL     1      23.470  14.161  -4.622  0.00  0.00    +0.180 C 
BRANCH  32  33
ATOM     33  C   UNL     1      22.711  13.996  -3.329  0.00  0.00    -0.026 A 
ATOM     34  C   UNL     1      21.471  14.624  -3.135  0.00  0.00    +0.005 A 
ATOM     35  C   UNL     1      20.732  14.388  -1.972  0.00  0.00    +0.000 A 
ATOM     36  C   UNL     1      21.222  13.524  -0.995  0.00  0.00    +0.000 A 
ATOM     37  C   UNL     1      22.455  12.902  -1.172  0.00  0.00    +0.000 A 
ATOM     38  C   UNL     1      23.196  13.136  -2.332  0.00  0.00    +0.005 A 
ENDBRANCH  32  33
ENDBRANCH  30  32
ENDBRANCH  26  28
ENDBRANCH  25  26
ENDBRANCH  24  25
ENDBRANCH   1  24
TORSDOF 12
