REMARK VINA RESULT:    -7.084      3.160      7.309
REMARK INTER + INTRA:         -13.480
REMARK INTER:                 -11.131
REMARK INTRA:                  -2.349
REMARK UNBOUND:                -1.427
REMARK  Name = lig_assembled_6.pdb
REMARK  12 active torsions:
REMARK  status: ('A' for Active; 'I' for Inactive)
REMARK    1  A    between atoms: _2  and  _9
REMARK    2  A    between atoms: _3  and  _12
REMARK    3  A    between atoms: _6  and  _7
REMARK    4  A    between atoms: _6  and  _16
REMARK    5  A    between atoms: _16  and  _18
REMARK    6  A    between atoms: _17  and  _22
REMARK    7  A    between atoms: _18  and  _21
REMARK    8  A    between atoms: _26  and  _36
REMARK    9  A    between atoms: _28  and  _29
REMARK   10  A    between atoms: _30  and  _32
REMARK   11  A    between atoms: _32  and  _34
REMARK   12  A    between atoms: _34  and  _36
REMARK                            x       y       z     vdW  Elec       q    Type
REMARK                         _______ _______ _______ _____ _____    ______ ____
ROOT
ATOM      1  C   UNL     1      29.079  17.066  -0.485  0.00  0.00    +0.400 C 
ATOM      2  N   UNL     1      27.928  16.615  -1.087  0.00  0.00    -0.278 N 
ATOM      3  H   UNL     1      27.167  17.232  -0.660  0.00  0.00    +0.152 HD
ATOM      4  O   UNL     1      29.017  18.091   0.189  0.00  0.00    -0.226 OA
ENDROOT
BRANCH   2   5
ATOM      5  C   UNL     1      27.296  15.703  -2.037  0.00  0.00    +0.152 C 
BRANCH   5   6
ATOM      6  C   UNL     1      26.192  16.307  -2.928  0.00  0.00    +0.193 C 
ATOM      7  O   UNL     1      26.772  17.454  -3.588  0.00  0.00    -0.219 OA
BRANCH   6   8
ATOM      8  C   UNL     1      25.645  15.435  -4.079  0.00  0.00    +0.212 C 
ATOM      9  O   UNL     1      26.269  15.796  -5.322  0.00  0.00    -0.218 OA
BRANCH   8  10
ATOM     10  C   UNL     1      25.847  13.890  -3.843  0.00  0.00    +0.171 C 
ATOM     11  O   UNL     1      26.754  13.308  -4.773  0.00  0.00    -0.343 OA
ATOM     12  C   UNL     1      26.929  11.933  -4.949  0.00  0.00    +0.220 C 
ATOM     13  C   UNL     1      25.587  11.208  -5.147  0.00  0.00    +0.076 C 
ATOM     14  C   UNL     1      24.672  11.600  -3.975  0.00  0.00    +0.177 C 
ATOM     15  O   UNL     1      23.428  10.923  -4.089  0.00  0.00    -0.221 OA
ATOM     16  C   UNL     1      24.475  13.147  -3.941  0.00  0.00    +0.155 C 
BRANCH  16  17
ATOM     17  N   UNL     1      23.600  13.523  -2.834  0.00  0.00    -0.202 NA
ATOM     18  C   UNL     1      22.395  14.147  -2.853  0.00  0.00    +0.242 C 
ATOM     19  C   UNL     1      21.570  14.149  -1.592  0.00  0.00    +0.096 C 
ATOM     20  O   UNL     1      22.007  14.688  -3.886  0.00  0.00    -0.273 OA
ENDBRANCH  16  17
BRANCH  12  21
ATOM     21  C   UNL     1      27.815  11.239  -3.777  0.00  0.00    +0.391 C 
ATOM     22  O   UNL     1      28.264  12.265  -3.027  0.00  0.00    -0.243 OA
ATOM     23  O   UNL     1      27.523   9.933  -3.817  0.00  0.00    -0.243 OA
ENDBRANCH  12  21
ENDBRANCH   8  10
ENDBRANCH   6   8
ENDBRANCH   5   6
ENDBRANCH   2   5
BRANCH   1  24
ATOM     24  O   UNL     1      30.130  16.335  -0.667  0.00  0.00    -0.450 OA
BRANCH  24  25
ATOM     25  C   UNL     1      30.846  15.313  -0.013  0.00  0.00    +0.240 C 
BRANCH  25  26
ATOM     26  C   UNL     1      30.504  15.038   1.463  0.00  0.00    +0.100 C 
BRANCH  26  28
ATOM     27  N   UNL     1      29.828  12.745   2.107  0.00  0.00    -0.134 NA
ATOM     28  C   UNL     1      29.507  13.956   1.566  0.00  0.00    +0.086 A 
ATOM     29  C   UNL     1      28.184  13.943   1.189  0.00  0.00    +0.139 A 
ATOM     30  N   UNL     1      27.723  12.699   1.554  0.00  0.00    -0.220 N 
ATOM     31  N   UNL     1      28.742  11.984   2.089  0.00  0.00    -0.061 NA
BRANCH  30  32
ATOM     32  C   UNL     1      26.404  12.178   1.463  0.00  0.00    +0.067 A 
ATOM     33  C   UNL     1      25.667  12.300   0.275  0.00  0.00    +0.034 A 
ATOM     34  C   UNL     1      24.348  11.839   0.217  0.00  0.00    +0.086 A 
ATOM     35  C   UNL     1      23.765  11.251   1.346  0.00  0.00    +0.273 A 
ATOM     36  C   UNL     1      24.501  11.100   2.527  0.00  0.00    +0.086 A 
ATOM     37  C   UNL     1      25.820  11.562   2.583  0.00  0.00    +0.034 A 
BRANCH  35  38
ATOM     38  N   UNL     1      22.366  10.807   1.292  0.00  0.00    +0.080 N 
ATOM     39  O   UNL     1      21.751  10.715   2.365  0.00  0.00    +0.041 OA
ATOM     40  O   UNL     1      21.886  10.545   0.182  0.00  0.00    -0.576 OA
ENDBRANCH  35  38
ENDBRANCH  30  32
ENDBRANCH  26  28
ENDBRANCH  25  26
ENDBRANCH  24  25
ENDBRANCH   1  24
TORSDOF 12
