REMARK VINA RESULT:    -6.283      1.756      2.426
REMARK INTER + INTRA:         -13.711
REMARK INTER:                 -11.848
REMARK INTRA:                  -1.863
REMARK UNBOUND:                -2.286
REMARK  Name = lig_assembled_62.pdb
REMARK  15 active torsions:
REMARK  status: ('A' for Active; 'I' for Inactive)
REMARK    1  A    between atoms: _2  and  _9
REMARK    2  A    between atoms: _5  and  _9
REMARK    3  A    between atoms: _6  and  _7
REMARK    4  A    between atoms: _6  and  _14
REMARK    5  A    between atoms: _9  and  _10
REMARK    6  A    between atoms: _10  and  _13
REMARK    7  A    between atoms: _11  and  _13
REMARK    8  A    between atoms: _14  and  _16
REMARK    9  A    between atoms: _15  and  _20
REMARK   10  A    between atoms: _16  and  _19
REMARK   11  A    between atoms: _24  and  _34
REMARK   12  A    between atoms: _26  and  _27
REMARK   13  A    between atoms: _28  and  _30
REMARK   14  A    between atoms: _30  and  _32
REMARK   15  A    between atoms: _32  and  _34
REMARK                            x       y       z     vdW  Elec       q    Type
REMARK                         _______ _______ _______ _____ _____    ______ ____
ROOT
ATOM      1  C   UNL     1      27.868  17.282  -1.099  0.00  0.00    +0.400 C 
ATOM      2  N   UNL     1      28.307  16.225  -0.338  0.00  0.00    -0.278 N 
ATOM      3  H   UNL     1      28.524  16.673   0.608  0.00  0.00    +0.152 HD
ATOM      4  O   UNL     1      27.658  18.353  -0.535  0.00  0.00    -0.226 OA
ENDROOT
BRANCH   2   5
ATOM      5  C   UNL     1      28.590  14.795  -0.240  0.00  0.00    +0.152 C 
BRANCH   5   6
ATOM      6  C   UNL     1      29.597  14.374   0.850  0.00  0.00    +0.193 C 
ATOM      7  O   UNL     1      29.762  12.944   0.733  0.00  0.00    -0.219 OA
BRANCH   6   8
ATOM      8  C   UNL     1      31.032  14.937   0.754  0.00  0.00    +0.212 C 
ATOM      9  O   UNL     1      31.080  16.279   1.265  0.00  0.00    -0.218 OA
BRANCH   8  10
ATOM     10  C   UNL     1      32.097  14.067   1.523  0.00  0.00    +0.171 C 
ATOM     11  O   UNL     1      32.471  14.636   2.774  0.00  0.00    -0.343 OA
ATOM     12  C   UNL     1      33.559  14.211   3.540  0.00  0.00    +0.220 C 
ATOM     13  C   UNL     1      34.848  14.129   2.704  0.00  0.00    +0.076 C 
ATOM     14  C   UNL     1      34.546  13.261   1.472  0.00  0.00    +0.177 C 
ATOM     15  O   UNL     1      35.719  13.119   0.683  0.00  0.00    -0.221 OA
ATOM     16  C   UNL     1      33.379  13.887   0.646  0.00  0.00    +0.155 C 
BRANCH  16  17
ATOM     17  N   UNL     1      33.094  13.069  -0.530  0.00  0.00    -0.202 NA
ATOM     18  C   UNL     1      33.088  13.410  -1.844  0.00  0.00    +0.242 C 
ATOM     19  C   UNL     1      33.050  12.306  -2.869  0.00  0.00    +0.096 C 
ATOM     20  O   UNL     1      33.115  14.597  -2.164  0.00  0.00    -0.273 OA
ENDBRANCH  16  17
BRANCH  12  21
ATOM     21  C   UNL     1      33.281  12.829   4.347  0.00  0.00    +0.391 C 
ATOM     22  O   UNL     1      34.487  12.449   4.811  0.00  0.00    -0.243 OA
ATOM     23  O   UNL     1      31.953  12.751   4.502  0.00  0.00    -0.243 OA
ENDBRANCH  12  21
ENDBRANCH   8  10
ENDBRANCH   6   8
ENDBRANCH   5   6
ENDBRANCH   2   5
BRANCH   1  24
ATOM     24  O   UNL     1      27.745  17.049  -2.364  0.00  0.00    -0.450 OA
BRANCH  24  25
ATOM     25  C   UNL     1      26.872  17.352  -3.427  0.00  0.00    +0.240 C 
BRANCH  25  26
ATOM     26  C   UNL     1      26.230  16.171  -4.178  0.00  0.00    +0.100 C 
BRANCH  26  28
ATOM     27  N   UNL     1      23.965  15.823  -3.237  0.00  0.00    -0.134 NA
ATOM     28  C   UNL     1      25.284  15.458  -3.300  0.00  0.00    +0.086 A 
ATOM     29  C   UNL     1      25.493  14.392  -2.454  0.00  0.00    +0.134 A 
ATOM     30  N   UNL     1      24.270  14.165  -1.892  0.00  0.00    -0.237 N 
ATOM     31  N   UNL     1      23.353  15.026  -2.374  0.00  0.00    -0.065 NA
BRANCH  30  32
ATOM     32  C   UNL     1      23.868  13.153  -0.932  0.00  0.00    +0.219 C 
BRANCH  32  33
ATOM     33  C   UNL     1      25.035  12.237  -0.607  0.00  0.00    +0.237 C 
ATOM     34  O   UNL     1      25.859  12.452   0.279  0.00  0.00    -0.274 OA
ATOM     35  N   UNL     1      25.107  11.075  -1.328  0.00  0.00    -0.328 N 
ATOM     36  H   UNL     1      24.412  10.791  -2.007  0.00  0.00    +0.145 HD
ATOM     37  H   UNL     1      25.870  10.441  -1.126  0.00  0.00    +0.145 HD
ENDBRANCH  32  33
BRANCH  32  38
ATOM     38  C   UNL     1      22.675  12.355  -1.455  0.00  0.00    +0.195 C 
BRANCH  38  39
ATOM     39  O   UNL     1      21.541  12.581  -0.607  0.00  0.00    -0.380 OA
ATOM     40  C   UNL     1      21.499  11.657   0.474  0.00  0.00    +0.194 C 
ENDBRANCH  38  39
ENDBRANCH  32  38
ENDBRANCH  30  32
ENDBRANCH  26  28
ENDBRANCH  25  26
ENDBRANCH  24  25
ENDBRANCH   1  24
TORSDOF 14
