REMARK VINA RESULT:    -7.193      2.038      3.636
REMARK INTER + INTRA:         -12.865
REMARK INTER:                 -11.342
REMARK INTRA:                  -1.524
REMARK UNBOUND:                -0.626
REMARK  Name = lig_assembled_5.pdb
REMARK  13 active torsions:
REMARK  status: ('A' for Active; 'I' for Inactive)
REMARK    1  A    between atoms: _2  and  _8
REMARK    2  A    between atoms: _5  and  _6
REMARK    3  A    between atoms: _5  and  _15
REMARK    4  A    between atoms: _11  and  _14
REMARK    5  A    between atoms: _12  and  _14
REMARK    6  A    between atoms: _15  and  _17
REMARK    7  A    between atoms: _16  and  _21
REMARK    8  A    between atoms: _17  and  _20
REMARK    9  A    between atoms: _25  and  _35
REMARK   10  A    between atoms: _27  and  _28
REMARK   11  A    between atoms: _29  and  _31
REMARK   12  A    between atoms: _31  and  _33
REMARK   13  A    between atoms: _33  and  _35
REMARK                            x       y       z     vdW  Elec       q    Type
REMARK                         _______ _______ _______ _____ _____    ______ ____
ROOT
ATOM      1  C   UNL     1      27.148  16.347  -2.314  0.00  0.00    +0.400 C 
ATOM      2  N   UNL     1      27.506  15.217  -1.618  0.00  0.00    -0.278 N 
ATOM      3  H   UNL     1      28.505  15.426  -1.302  0.00  0.00    +0.152 HD
ATOM      4  O   UNL     1      27.897  17.320  -2.263  0.00  0.00    -0.226 OA
ENDROOT
BRANCH   2   5
ATOM      5  C   UNL     1      27.136  13.896  -1.115  0.00  0.00    +0.152 C 
BRANCH   5   6
ATOM      6  C   UNL     1      27.838  12.695  -1.781  0.00  0.00    +0.193 C 
ATOM      7  O   UNL     1      28.053  13.054  -3.164  0.00  0.00    -0.219 OA
BRANCH   6   8
ATOM      8  C   UNL     1      29.239  12.308  -1.260  0.00  0.00    +0.212 C 
ATOM      9  O   UNL     1      30.182  12.263  -2.344  0.00  0.00    -0.218 OA
BRANCH   8  10
ATOM     10  C   UNL     1      29.788  13.289  -0.155  0.00  0.00    +0.171 C 
ATOM     11  O   UNL     1      30.985  13.949  -0.554  0.00  0.00    -0.343 OA
ATOM     12  C   UNL     1      31.809  14.676   0.308  0.00  0.00    +0.220 C 
ATOM     13  C   UNL     1      32.163  13.872   1.571  0.00  0.00    +0.076 C 
ATOM     14  C   UNL     1      30.845  13.385   2.194  0.00  0.00    +0.177 C 
ATOM     15  O   UNL     1      31.114  12.668   3.391  0.00  0.00    -0.221 OA
ATOM     16  C   UNL     1      30.060  12.506   1.171  0.00  0.00    +0.155 C 
BRANCH  16  17
ATOM     17  N   UNL     1      28.810  12.035   1.762  0.00  0.00    -0.202 NA
ATOM     18  C   UNL     1      27.780  12.742   2.294  0.00  0.00    +0.242 C 
ATOM     19  C   UNL     1      26.484  12.024   2.564  0.00  0.00    +0.096 C 
ATOM     20  O   UNL     1      27.927  13.938   2.538  0.00  0.00    -0.273 OA
ENDBRANCH  16  17
BRANCH  12  21
ATOM     21  C   UNL     1      31.221  16.144   0.680  0.00  0.00    +0.391 C 
ATOM     22  O   UNL     1      30.576  16.551  -0.431  0.00  0.00    -0.243 OA
ATOM     23  O   UNL     1      31.334  16.262   2.008  0.00  0.00    -0.243 OA
ENDBRANCH  12  21
ENDBRANCH   8  10
ENDBRANCH   6   8
ENDBRANCH   5   6
ENDBRANCH   2   5
BRANCH   1  24
ATOM     24  O   UNL     1      26.052  16.263  -2.993  0.00  0.00    -0.450 OA
BRANCH  24  25
ATOM     25  C   UNL     1      25.632  16.113  -4.329  0.00  0.00    +0.240 C 
BRANCH  25  26
ATOM     26  C   UNL     1      24.896  14.811  -4.701  0.00  0.00    +0.100 C 
BRANCH  26  28
ATOM     27  N   UNL     1      22.842  14.942  -3.327  0.00  0.00    -0.134 NA
ATOM     28  C   UNL     1      24.052  14.362  -3.578  0.00  0.00    +0.086 A 
ATOM     29  C   UNL     1      24.274  13.369  -2.653  0.00  0.00    +0.139 A 
ATOM     30  N   UNL     1      23.145  13.359  -1.863  0.00  0.00    -0.220 N 
ATOM     31  N   UNL     1      22.301  14.335  -2.280  0.00  0.00    -0.061 NA
BRANCH  30  32
ATOM     32  C   UNL     1      22.821  12.489  -0.789  0.00  0.00    +0.067 A 
ATOM     33  C   UNL     1      21.601  12.608  -0.113  0.00  0.00    +0.031 A 
ATOM     34  C   UNL     1      21.327  11.783   0.981  0.00  0.00    +0.048 A 
ATOM     35  C   UNL     1      22.246  10.820   1.399  0.00  0.00    +0.120 A 
ATOM     36  C   UNL     1      23.454  10.686   0.716  0.00  0.00    +0.048 A 
ATOM     37  C   UNL     1      23.743  11.517  -0.375  0.00  0.00    +0.031 A 
BRANCH  35  38
ATOM     38  O   UNL     1      21.879  10.123   2.516  0.00  0.00    -0.495 OA
ATOM     39  C   UNL     1      22.915   9.418   3.189  0.00  0.00    +0.277 C 
ENDBRANCH  35  38
ENDBRANCH  30  32
ENDBRANCH  26  28
ENDBRANCH  25  26
ENDBRANCH  24  25
ENDBRANCH   1  24
TORSDOF 12
