REMARK VINA RESULT:    -7.167      3.985      8.750
REMARK INTER + INTRA:         -12.840
REMARK INTER:                 -10.816
REMARK INTRA:                  -2.023
REMARK UNBOUND:                -1.064
REMARK  Name = lig_assembled_27.pdb
REMARK  11 active torsions:
REMARK  status: ('A' for Active; 'I' for Inactive)
REMARK    1  A    between atoms: _2  and  _8
REMARK    2  A    between atoms: _5  and  _6
REMARK    3  A    between atoms: _5  and  _13
REMARK    4  A    between atoms: _13  and  _15
REMARK    5  A    between atoms: _14  and  _19
REMARK    6  A    between atoms: _15  and  _18
REMARK    7  A    between atoms: _23  and  _33
REMARK    8  A    between atoms: _25  and  _26
REMARK    9  A    between atoms: _27  and  _29
REMARK   10  A    between atoms: _29  and  _31
REMARK   11  A    between atoms: _31  and  _33
REMARK                            x       y       z     vdW  Elec       q    Type
REMARK                         _______ _______ _______ _____ _____    ______ ____
ROOT
ATOM      1  C   UNL     1      27.724  17.689  -1.425  0.00  0.00    +0.400 C 
ATOM      2  N   UNL     1      26.787  16.905  -2.055  0.00  0.00    -0.278 N 
ATOM      3  H   UNL     1      25.933  17.545  -2.119  0.00  0.00    +0.152 HD
ATOM      4  O   UNL     1      27.471  18.880  -1.264  0.00  0.00    -0.226 OA
ENDROOT
BRANCH   1   5
ATOM      5  O   UNL     1      28.790  17.075  -1.027  0.00  0.00    -0.450 OA
BRANCH   5   6
ATOM      6  C   UNL     1      29.878  17.280  -0.156  0.00  0.00    +0.240 C 
BRANCH   6   7
ATOM      7  C   UNL     1      30.883  16.124   0.011  0.00  0.00    +0.100 C 
BRANCH   7   9
ATOM      8  N   UNL     1      30.729  14.709   2.036  0.00  0.00    -0.134 NA
ATOM      9  C   UNL     1      30.278  15.026   0.787  0.00  0.00    +0.086 A 
ATOM     10  C   UNL     1      29.242  14.183   0.457  0.00  0.00    +0.139 A 
ATOM     11  N   UNL     1      29.088  13.362   1.551  0.00  0.00    -0.220 N 
ATOM     12  N   UNL     1      30.003  13.698   2.492  0.00  0.00    -0.061 NA
BRANCH  11  13
ATOM     13  C   UNL     1      28.152  12.313   1.750  0.00  0.00    +0.068 A 
ATOM     14  C   UNL     1      27.180  12.432   2.756  0.00  0.00    +0.028 A 
ATOM     15  C   UNL     1      26.256  11.405   2.965  0.00  0.00    +0.003 A 
ATOM     16  C   UNL     1      26.296  10.257   2.174  0.00  0.00    +0.020 A 
ATOM     17  C   UNL     1      27.259  10.141   1.174  0.00  0.00    +0.043 A 
ATOM     18 CL   UNL     1      27.307   8.725   0.196  0.00  0.00    -0.083 Cl
ATOM     19  C   UNL     1      28.187  11.160   0.954  0.00  0.00    +0.047 A 
ENDBRANCH  11  13
ENDBRANCH   7   9
ENDBRANCH   6   7
ENDBRANCH   5   6
ENDBRANCH   1   5
BRANCH   2  20
ATOM     20  C   UNL     1      26.448  15.627  -2.676  0.00  0.00    +0.152 C 
BRANCH  20  21
ATOM     21  C   UNL     1      25.530  15.695  -3.914  0.00  0.00    +0.193 C 
ATOM     22  O   UNL     1      26.390  15.899  -5.057  0.00  0.00    -0.219 OA
BRANCH  21  23
ATOM     23  C   UNL     1      24.712  14.434  -4.268  0.00  0.00    +0.212 C 
ATOM     24  O   UNL     1      25.556  13.441  -4.872  0.00  0.00    -0.218 OA
BRANCH  23  25
ATOM     25  C   UNL     1      23.988  13.791  -3.024  0.00  0.00    +0.171 C 
ATOM     26  O   UNL     1      24.516  12.514  -2.683  0.00  0.00    -0.343 OA
ATOM     27  C   UNL     1      23.913  11.624  -1.791  0.00  0.00    +0.220 C 
ATOM     28  C   UNL     1      22.429  11.398  -2.127  0.00  0.00    +0.076 C 
ATOM     29  C   UNL     1      21.759  12.779  -2.216  0.00  0.00    +0.177 C 
ATOM     30  O   UNL     1      20.373  12.625  -2.486  0.00  0.00    -0.221 OA
ATOM     31  C   UNL     1      22.457  13.645  -3.310  0.00  0.00    +0.155 C 
BRANCH  31  32
ATOM     32  N   UNL     1      21.819  14.956  -3.402  0.00  0.00    -0.202 NA
ATOM     33  C   UNL     1      21.102  15.503  -4.417  0.00  0.00    +0.242 C 
ATOM     34  C   UNL     1      20.307  16.752  -4.139  0.00  0.00    +0.096 C 
ATOM     35  O   UNL     1      21.116  14.972  -5.525  0.00  0.00    -0.273 OA
ENDBRANCH  31  32
BRANCH  27  36
ATOM     36  C   UNL     1      24.117  12.033  -0.232  0.00  0.00    +0.391 C 
ATOM     37  O   UNL     1      23.275  11.232   0.450  0.00  0.00    -0.243 OA
ATOM     38  O   UNL     1      25.231  12.773  -0.186  0.00  0.00    -0.243 OA
ENDBRANCH  27  36
ENDBRANCH  23  25
ENDBRANCH  21  23
ENDBRANCH  20  21
ENDBRANCH   2  20
TORSDOF 11
