REMARK VINA RESULT:    -7.271      1.959      3.620
REMARK INTER + INTRA:         -14.137
REMARK INTER:                 -12.414
REMARK INTRA:                  -1.723
REMARK UNBOUND:                -2.191
REMARK  Name = lig_assembled_93.pdb
REMARK  11 active torsions:
REMARK  status: ('A' for Active; 'I' for Inactive)
REMARK    1  A    between atoms: _2  and  _8
REMARK    2  A    between atoms: _5  and  _6
REMARK    3  A    between atoms: _5  and  _13
REMARK    4  A    between atoms: _13  and  _15
REMARK    5  A    between atoms: _14  and  _19
REMARK    6  A    between atoms: _15  and  _18
REMARK    7  A    between atoms: _23  and  _33
REMARK    8  A    between atoms: _25  and  _26
REMARK    9  A    between atoms: _27  and  _29
REMARK   10  A    between atoms: _29  and  _31
REMARK   11  A    between atoms: _31  and  _33
REMARK                            x       y       z     vdW  Elec       q    Type
REMARK                         _______ _______ _______ _____ _____    ______ ____
ROOT
ATOM      1  C   UNL     1      28.725  17.052  -0.559  0.00  0.00    +0.400 C 
ATOM      2  N   UNL     1      28.745  15.897   0.186  0.00  0.00    -0.278 N 
ATOM      3  H   UNL     1      29.402  16.135   0.994  0.00  0.00    +0.152 HD
ATOM      4  O   UNL     1      29.251  18.056  -0.085  0.00  0.00    -0.226 OA
ENDROOT
BRANCH   1   5
ATOM      5  O   UNL     1      28.170  16.959  -1.723  0.00  0.00    -0.450 OA
BRANCH   5   6
ATOM      6  C   UNL     1      27.055  17.465  -2.418  0.00  0.00    +0.240 C 
BRANCH   6   7
ATOM      7  C   UNL     1      26.673  16.780  -3.745  0.00  0.00    +0.100 C 
BRANCH   7   9
ATOM      8  N   UNL     1      25.013  15.152  -4.570  0.00  0.00    -0.134 NA
ATOM      9  C   UNL     1      25.529  15.874  -3.541  0.00  0.00    +0.086 A 
ATOM     10  C   UNL     1      24.819  15.587  -2.397  0.00  0.00    +0.139 A 
ATOM     11  N   UNL     1      23.868  14.652  -2.775  0.00  0.00    -0.219 N 
ATOM     12  N   UNL     1      24.012  14.425  -4.099  0.00  0.00    -0.061 NA
BRANCH  11  13
ATOM     13  C   UNL     1      22.896  14.000  -1.953  0.00  0.00    +0.080 A 
ATOM     14  C   UNL     1      21.557  14.451  -2.041  0.00  0.00    +0.029 A 
ATOM     15  C   UNL     1      20.538  13.890  -1.264  0.00  0.00    +0.002 A 
ATOM     16  C   UNL     1      20.828  12.865  -0.379  0.00  0.00    +0.001 A 
ATOM     17  C   UNL     1      22.136  12.398  -0.276  0.00  0.00    +0.016 A 
ATOM     18  C   UNL     1      23.176  12.950  -1.053  0.00  0.00    +0.039 A 
ATOM     19  I   UNL     1      25.042  12.025  -0.675  0.00  0.00    -0.042 I 
ENDBRANCH  11  13
ENDBRANCH   7   9
ENDBRANCH   6   7
ENDBRANCH   5   6
ENDBRANCH   1   5
BRANCH   2  20
ATOM     20  C   UNL     1      28.270  14.528   0.371  0.00  0.00    +0.152 C 
BRANCH  20  21
ATOM     21  C   UNL     1      28.510  13.908   1.764  0.00  0.00    +0.193 C 
ATOM     22  O   UNL     1      27.277  13.261   2.148  0.00  0.00    -0.219 OA
BRANCH  21  23
ATOM     23  C   UNL     1      29.580  12.800   1.878  0.00  0.00    +0.212 C 
ATOM     24  O   UNL     1      29.188  11.644   1.119  0.00  0.00    -0.218 OA
BRANCH  23  25
ATOM     25  C   UNL     1      31.009  13.258   1.397  0.00  0.00    +0.171 C 
ATOM     26  O   UNL     1      31.174  13.145  -0.013  0.00  0.00    -0.343 OA
ATOM     27  C   UNL     1      32.401  13.248  -0.674  0.00  0.00    +0.220 C 
ATOM     28  C   UNL     1      33.468  12.337  -0.042  0.00  0.00    +0.076 C 
ATOM     29  C   UNL     1      33.514  12.653   1.462  0.00  0.00    +0.177 C 
ATOM     30  O   UNL     1      34.515  11.864   2.090  0.00  0.00    -0.221 OA
ATOM     31  C   UNL     1      32.113  12.408   2.106  0.00  0.00    +0.155 C 
BRANCH  31  32
ATOM     32  N   UNL     1      32.155  12.701   3.537  0.00  0.00    -0.202 NA
ATOM     33  C   UNL     1      31.843  11.908   4.593  0.00  0.00    +0.242 C 
ATOM     34  C   UNL     1      32.255  12.357   5.971  0.00  0.00    +0.096 C 
ATOM     35  O   UNL     1      31.240  10.853   4.405  0.00  0.00    -0.273 OA
ENDBRANCH  31  32
BRANCH  27  36
ATOM     36  C   UNL     1      32.931  14.777  -0.818  0.00  0.00    +0.391 C 
ATOM     37  O   UNL     1      34.209  14.664  -1.228  0.00  0.00    -0.243 OA
ATOM     38  O   UNL     1      31.841  15.553  -0.772  0.00  0.00    -0.243 OA
ENDBRANCH  27  36
ENDBRANCH  23  25
ENDBRANCH  21  23
ENDBRANCH  20  21
ENDBRANCH   2  20
TORSDOF 11
