REMARK VINA RESULT:    -6.440      2.338     10.035
REMARK INTER + INTRA:         -12.877
REMARK INTER:                 -10.958
REMARK INTRA:                  -1.919
REMARK UNBOUND:                -1.919
REMARK  Name = lig_assembled_41.pdb
REMARK  13 active torsions:
REMARK  status: ('A' for Active; 'I' for Inactive)
REMARK    1  A    between atoms: _2  and  _8
REMARK    2  A    between atoms: _5  and  _6
REMARK    3  A    between atoms: _5  and  _16
REMARK    4  A    between atoms: _9  and  _10
REMARK    5  A    between atoms: _10  and  _11
REMARK    6  A    between atoms: _16  and  _18
REMARK    7  A    between atoms: _17  and  _22
REMARK    8  A    between atoms: _18  and  _21
REMARK    9  A    between atoms: _26  and  _36
REMARK   10  A    between atoms: _28  and  _29
REMARK   11  A    between atoms: _30  and  _32
REMARK   12  A    between atoms: _32  and  _34
REMARK   13  A    between atoms: _34  and  _36
REMARK                            x       y       z     vdW  Elec       q    Type
REMARK                         _______ _______ _______ _____ _____    ______ ____
ROOT
ATOM      1  C   UNL     1      27.936  17.815  -1.058  0.00  0.00    +0.400 C 
ATOM      2  N   UNL     1      27.170  17.559  -2.171  0.00  0.00    -0.278 N 
ATOM      3  H   UNL     1      26.178  17.791  -1.847  0.00  0.00    +0.152 HD
ATOM      4  O   UNL     1      27.403  18.375  -0.104  0.00  0.00    -0.226 OA
ENDROOT
BRANCH   2   5
ATOM      5  C   UNL     1      27.107  17.138  -3.568  0.00  0.00    +0.152 C 
BRANCH   5   6
ATOM      6  C   UNL     1      25.984  16.143  -3.928  0.00  0.00    +0.193 C 
ATOM      7  O   UNL     1      26.077  15.908  -5.350  0.00  0.00    -0.219 OA
BRANCH   6   8
ATOM      8  C   UNL     1      26.049  14.734  -3.299  0.00  0.00    +0.212 C 
ATOM      9  O   UNL     1      26.777  14.769  -2.061  0.00  0.00    -0.218 OA
BRANCH   8  10
ATOM     10  C   UNL     1      24.629  14.103  -3.031  0.00  0.00    +0.171 C 
ATOM     11  O   UNL     1      23.914  14.782  -2.005  0.00  0.00    -0.343 OA
ATOM     12  C   UNL     1      22.751  14.297  -1.402  0.00  0.00    +0.220 C 
ATOM     13  C   UNL     1      22.921  12.847  -0.918  0.00  0.00    +0.076 C 
ATOM     14  C   UNL     1      23.426  12.018  -2.111  0.00  0.00    +0.177 C 
ATOM     15  O   UNL     1      23.563  10.656  -1.727  0.00  0.00    -0.221 OA
ATOM     16  C   UNL     1      24.776  12.597  -2.635  0.00  0.00    +0.155 C 
BRANCH  16  17
ATOM     17  N   UNL     1      25.263  11.808  -3.764  0.00  0.00    -0.202 NA
ATOM     18  C   UNL     1      26.423  11.118  -3.904  0.00  0.00    +0.242 C 
ATOM     19  C   UNL     1      26.545  10.150  -5.052  0.00  0.00    +0.096 C 
ATOM     20  O   UNL     1      27.337  11.296  -3.100  0.00  0.00    -0.273 OA
ENDBRANCH  16  17
BRANCH  12  21
ATOM     21  C   UNL     1      21.424  14.467  -2.324  0.00  0.00    +0.391 C 
ATOM     22  O   UNL     1      20.479  13.726  -1.714  0.00  0.00    -0.243 OA
ATOM     23  O   UNL     1      21.676  15.491  -3.148  0.00  0.00    -0.243 OA
ENDBRANCH  12  21
ENDBRANCH   8  10
ENDBRANCH   6   8
ENDBRANCH   5   6
ENDBRANCH   2   5
BRANCH   1  24
ATOM     24  O   UNL     1      29.160  17.404  -1.115  0.00  0.00    -0.450 OA
BRANCH  24  25
ATOM     25  C   UNL     1      30.063  16.628  -0.362  0.00  0.00    +0.240 C 
BRANCH  25  26
ATOM     26  C   UNL     1      29.551  15.289   0.203  0.00  0.00    +0.100 C 
BRANCH  26  28
ATOM     27  N   UNL     1      30.429  12.988   0.328  0.00  0.00    -0.134 NA
ATOM     28  C   UNL     1      30.661  14.330   0.339  0.00  0.00    +0.086 A 
ATOM     29  C   UNL     1      32.015  14.552   0.467  0.00  0.00    +0.139 A 
ATOM     30  N   UNL     1      32.568  13.304   0.643  0.00  0.00    -0.219 N 
ATOM     31  N   UNL     1      31.593  12.369   0.459  0.00  0.00    -0.061 NA
BRANCH  30  32
ATOM     32  C   UNL     1      33.919  12.905   0.854  0.00  0.00    +0.077 A 
ATOM     33  C   UNL     1      34.619  13.049   2.070  0.00  0.00    +0.043 A 
ATOM     34  C   UNL     1      35.973  12.657   2.125  0.00  0.00    +0.013 A 
ATOM     35  C   UNL     1      36.625  12.140   1.003  0.00  0.00    +0.001 A 
ATOM     36  C   UNL     1      35.930  11.975  -0.186  0.00  0.00    +0.002 A 
ATOM     37  C   UNL     1      34.587  12.343  -0.257  0.00  0.00    +0.028 A 
BRANCH  33  38
ATOM     38  C   UNL     1      33.968  13.396   3.371  0.00  0.00    +0.162 C 
ATOM     39  O   UNL     1      33.400  12.516   4.013  0.00  0.00    -0.292 OA
ATOM     40  C   UNL     1      34.011  14.813   3.889  0.00  0.00    +0.091 C 
ENDBRANCH  33  38
ENDBRANCH  30  32
ENDBRANCH  26  28
ENDBRANCH  25  26
ENDBRANCH  24  25
ENDBRANCH   1  24
TORSDOF 12
