REMARK VINA RESULT:    -6.849      1.857      3.313
REMARK INTER + INTRA:         -12.862
REMARK INTER:                 -11.380
REMARK INTRA:                  -1.482
REMARK UNBOUND:                -1.609
REMARK  Name = lig_assembled_87.pdb
REMARK  12 active torsions:
REMARK  status: ('A' for Active; 'I' for Inactive)
REMARK    1  A    between atoms: _2  and  _9
REMARK    2  A    between atoms: _3  and  _12
REMARK    3  A    between atoms: _6  and  _7
REMARK    4  A    between atoms: _6  and  _16
REMARK    5  A    between atoms: _16  and  _18
REMARK    6  A    between atoms: _17  and  _22
REMARK    7  A    between atoms: _18  and  _21
REMARK    8  A    between atoms: _26  and  _36
REMARK    9  A    between atoms: _28  and  _29
REMARK   10  A    between atoms: _30  and  _32
REMARK   11  A    between atoms: _32  and  _34
REMARK   12  A    between atoms: _34  and  _36
REMARK                            x       y       z     vdW  Elec       q    Type
REMARK                         _______ _______ _______ _____ _____    ______ ____
ROOT
ATOM      1  C   UNL     1      27.928  17.456  -0.721  0.00  0.00    +0.400 C 
ATOM      2  N   UNL     1      28.671  16.571   0.023  0.00  0.00    -0.278 N 
ATOM      3  H   UNL     1      28.833  17.094   0.941  0.00  0.00    +0.152 HD
ATOM      4  O   UNL     1      27.495  18.462  -0.164  0.00  0.00    -0.226 OA
ENDROOT
BRANCH   1   5
ATOM      5  O   UNL     1      27.781  17.153  -1.969  0.00  0.00    -0.450 OA
BRANCH   5   6
ATOM      6  C   UNL     1      26.751  16.848  -2.880  0.00  0.00    +0.240 C 
BRANCH   6   7
ATOM      7  C   UNL     1      26.517  15.363  -3.217  0.00  0.00    +0.100 C 
BRANCH   7   9
ATOM      8  N   UNL     1      24.927  13.942  -1.969  0.00  0.00    -0.134 NA
ATOM      9  C   UNL     1      25.147  14.969  -2.843  0.00  0.00    +0.086 A 
ATOM     10  C   UNL     1      23.935  15.497  -3.231  0.00  0.00    +0.134 A 
ATOM     11  N   UNL     1      23.016  14.832  -2.465  0.00  0.00    -0.248 N 
ATOM     12  N   UNL     1      23.621  13.825  -1.803  0.00  0.00    -0.065 NA
BRANCH  11  13
ATOM     13  C   UNL     1      21.566  15.043  -2.291  0.00  0.00    +0.112 C 
ATOM     14  C   UNL     1      20.767  13.773  -1.888  0.00  0.00    +0.045 C 
ATOM     15  C   UNL     1      19.657  13.346  -2.862  0.00  0.00    +0.059 C 
ATOM     16  C   UNL     1      18.392  14.204  -2.706  0.00  0.00    +0.020 C 
ATOM     17  C   UNL     1      18.523  15.283  -3.780  0.00  0.00    +0.020 C 
ATOM     18  C   UNL     1      19.927  15.072  -4.345  0.00  0.00    +0.059 C 
ATOM     19  N   UNL     1      19.996  13.616  -4.253  0.00  0.00    -0.299 NA
ATOM     20  C   UNL     1      21.169  12.965  -4.795  0.00  0.00    +0.105 C 
ATOM     21  C   UNL     1      20.964  15.817  -3.502  0.00  0.00    +0.045 C 
ENDBRANCH  11  13
ENDBRANCH   7   9
ENDBRANCH   6   7
ENDBRANCH   5   6
ENDBRANCH   1   5
BRANCH   2  22
ATOM     22  C   UNL     1      29.310  15.262   0.126  0.00  0.00    +0.152 C 
BRANCH  22  23
ATOM     23  C   UNL     1      30.849  15.263   0.227  0.00  0.00    +0.193 C 
ATOM     24  O   UNL     1      31.181  15.846   1.506  0.00  0.00    -0.219 OA
BRANCH  23  25
ATOM     25  C   UNL     1      31.567  13.895   0.229  0.00  0.00    +0.212 C 
ATOM     26  O   UNL     1      32.617  13.878  -0.751  0.00  0.00    -0.218 OA
BRANCH  25  27
ATOM     27  C   UNL     1      32.179  13.514   1.631  0.00  0.00    +0.171 C 
ATOM     28  O   UNL     1      33.535  13.089   1.539  0.00  0.00    -0.343 OA
ATOM     29  C   UNL     1      34.239  12.469   2.575  0.00  0.00    +0.220 C 
ATOM     30  C   UNL     1      33.457  11.283   3.166  0.00  0.00    +0.076 C 
ATOM     31  C   UNL     1      32.059  11.796   3.550  0.00  0.00    +0.177 C 
ATOM     32  O   UNL     1      31.306  10.746   4.140  0.00  0.00    -0.221 OA
ATOM     33  C   UNL     1      31.336  12.376   2.294  0.00  0.00    +0.155 C 
BRANCH  33  34
ATOM     34  N   UNL     1      30.005  12.858   2.653  0.00  0.00    -0.202 NA
ATOM     35  C   UNL     1      28.784  12.396   2.280  0.00  0.00    +0.242 C 
ATOM     36  C   UNL     1      27.573  12.889   3.027  0.00  0.00    +0.096 C 
ATOM     37  O   UNL     1      28.696  11.593   1.353  0.00  0.00    -0.273 OA
ENDBRANCH  33  34
BRANCH  29  38
ATOM     38  C   UNL     1      34.727  13.499   3.732  0.00  0.00    +0.391 C 
ATOM     39  O   UNL     1      34.952  12.727   4.813  0.00  0.00    -0.243 OA
ATOM     40  O   UNL     1      35.008  14.650   3.109  0.00  0.00    -0.243 OA
ENDBRANCH  29  38
ENDBRANCH  25  27
ENDBRANCH  23  25
ENDBRANCH  22  23
ENDBRANCH   2  22
TORSDOF 11
