REMARK VINA RESULT:    -6.742      1.822      3.817
REMARK INTER + INTRA:         -13.985
REMARK INTER:                 -12.051
REMARK INTRA:                  -1.934
REMARK UNBOUND:                -2.513
REMARK  Name = lig_assembled_28.pdb
REMARK  12 active torsions:
REMARK  status: ('A' for Active; 'I' for Inactive)
REMARK    1  A    between atoms: _2  and  _8
REMARK    2  A    between atoms: _5  and  _6
REMARK    3  A    between atoms: _5  and  _17
REMARK    4  A    between atoms: _8  and  _9
REMARK    5  A    between atoms: _17  and  _19
REMARK    6  A    between atoms: _18  and  _23
REMARK    7  A    between atoms: _19  and  _22
REMARK    8  A    between atoms: _27  and  _37
REMARK    9  A    between atoms: _29  and  _30
REMARK   10  A    between atoms: _31  and  _33
REMARK   11  A    between atoms: _33  and  _35
REMARK   12  A    between atoms: _35  and  _37
REMARK                            x       y       z     vdW  Elec       q    Type
REMARK                         _______ _______ _______ _____ _____    ______ ____
ROOT
ATOM      1  C   UNL     1      27.779  13.832  -1.738  0.00  0.00    +0.400 C 
ATOM      2  N   UNL     1      28.359  14.694  -0.837  0.00  0.00    -0.278 N 
ATOM      3  H   UNL     1      28.805  14.039  -0.120  0.00  0.00    +0.152 HD
ATOM      4  O   UNL     1      28.034  12.635  -1.641  0.00  0.00    -0.226 OA
ENDROOT
BRANCH   2   5
ATOM      5  C   UNL     1      28.646  16.070  -0.439  0.00  0.00    +0.152 C 
BRANCH   5   6
ATOM      6  C   UNL     1      30.130  16.412  -0.194  0.00  0.00    +0.193 C 
ATOM      7  O   UNL     1      30.161  17.729   0.397  0.00  0.00    -0.219 OA
BRANCH   6   8
ATOM      8  C   UNL     1      30.913  15.525   0.799  0.00  0.00    +0.212 C 
ATOM      9  O   UNL     1      30.010  14.724   1.578  0.00  0.00    -0.218 OA
BRANCH   8  10
ATOM     10  C   UNL     1      31.954  14.572   0.097  0.00  0.00    +0.171 C 
ATOM     11  O   UNL     1      31.446  13.992  -1.100  0.00  0.00    -0.343 OA
ATOM     12  C   UNL     1      32.053  12.936  -1.784  0.00  0.00    +0.220 C 
ATOM     13  C   UNL     1      32.382  11.762  -0.845  0.00  0.00    +0.076 C 
ATOM     14  C   UNL     1      33.196  12.325   0.332  0.00  0.00    +0.177 C 
ATOM     15  O   UNL     1      33.561  11.271   1.213  0.00  0.00    -0.221 OA
ATOM     16  C   UNL     1      32.377  13.426   1.074  0.00  0.00    +0.155 C 
BRANCH  16  17
ATOM     17  N   UNL     1      33.145  13.958   2.197  0.00  0.00    -0.202 NA
ATOM     18  C   UNL     1      33.045  13.686   3.523  0.00  0.00    +0.242 C 
ATOM     19  C   UNL     1      34.152  14.149   4.434  0.00  0.00    +0.096 C 
ATOM     20  O   UNL     1      32.066  13.074   3.946  0.00  0.00    -0.273 OA
ENDBRANCH  16  17
BRANCH  12  21
ATOM     21  C   UNL     1      33.351  13.388  -2.651  0.00  0.00    +0.391 C 
ATOM     22  O   UNL     1      33.985  12.238  -2.952  0.00  0.00    -0.243 OA
ATOM     23  O   UNL     1      33.142  14.666  -2.991  0.00  0.00    -0.243 OA
ENDBRANCH  12  21
ENDBRANCH   8  10
ENDBRANCH   6   8
ENDBRANCH   5   6
ENDBRANCH   2   5
BRANCH   1  24
ATOM     24  O   UNL     1      26.980  14.375  -2.597  0.00  0.00    -0.450 OA
BRANCH  24  25
ATOM     25  C   UNL     1      25.679  14.197  -3.107  0.00  0.00    +0.240 C 
BRANCH  25  26
ATOM     26  C   UNL     1      24.777  15.442  -3.204  0.00  0.00    +0.100 C 
BRANCH  26  28
ATOM     27  N   UNL     1      22.312  15.482  -3.461  0.00  0.00    -0.134 NA
ATOM     28  C   UNL     1      23.416  15.127  -2.734  0.00  0.00    +0.086 A 
ATOM     29  C   UNL     1      23.012  14.451  -1.605  0.00  0.00    +0.134 A 
ATOM     30  N   UNL     1      21.659  14.339  -1.750  0.00  0.00    -0.247 N 
ATOM     31  N   UNL     1      21.239  15.006  -2.843  0.00  0.00    -0.065 NA
BRANCH  30  32
ATOM     32  C   UNL     1      20.687  13.568  -0.985  0.00  0.00    +0.180 C 
BRANCH  32  33
ATOM     33  C   UNL     1      21.230  12.257  -0.464  0.00  0.00    -0.022 A 
ATOM     34  C   UNL     1      21.432  12.075   0.915  0.00  0.00    +0.055 A 
ATOM     35  C   UNL     1      21.819  10.826   1.354  0.00  0.00    +0.167 A 
ATOM     36  O   UNL     1      22.003  10.465   2.652  0.00  0.00    -0.453 OA
ATOM     37  C   UNL     1      22.263   9.052   2.502  0.00  0.00    +0.466 C 
ATOM     38  O   UNL     1      22.377   8.635   1.124  0.00  0.00    -0.453 OA
ATOM     39  C   UNL     1      22.034   9.785   0.485  0.00  0.00    +0.166 A 
ATOM     40  C   UNL     1      21.880   9.935  -0.877  0.00  0.00    +0.050 A 
ATOM     41  C   UNL     1      21.467  11.183  -1.353  0.00  0.00    +0.009 A 
ENDBRANCH  32  33
ENDBRANCH  30  32
ENDBRANCH  26  28
ENDBRANCH  25  26
ENDBRANCH  24  25
ENDBRANCH   1  24
TORSDOF 12
