REMARK VINA RESULT:    -6.950      1.556      2.940
REMARK INTER + INTRA:         -12.805
REMARK INTER:                 -11.373
REMARK INTRA:                  -1.431
REMARK UNBOUND:                -1.385
REMARK  Name = lig_assembled_56.pdb
REMARK  11 active torsions:
REMARK  status: ('A' for Active; 'I' for Inactive)
REMARK    1  A    between atoms: _2  and  _9
REMARK    2  A    between atoms: _6  and  _7
REMARK    3  A    between atoms: _6  and  _13
REMARK    4  A    between atoms: _13  and  _15
REMARK    5  A    between atoms: _14  and  _19
REMARK    6  A    between atoms: _15  and  _18
REMARK    7  A    between atoms: _23  and  _33
REMARK    8  A    between atoms: _25  and  _26
REMARK    9  A    between atoms: _27  and  _29
REMARK   10  A    between atoms: _29  and  _31
REMARK   11  A    between atoms: _31  and  _33
REMARK                            x       y       z     vdW  Elec       q    Type
REMARK                         _______ _______ _______ _____ _____    ______ ____
ROOT
ATOM      1  C   UNL     1      29.154  15.123   0.113  0.00  0.00    +0.152 C 
ENDROOT
BRANCH   1   3
ATOM      2  C   UNL     1      27.834  17.341  -0.773  0.00  0.00    +0.400 C 
ATOM      3  N   UNL     1      28.628  16.475  -0.059  0.00  0.00    -0.278 N 
ATOM      4  H   UNL     1      29.018  17.087   0.725  0.00  0.00    +0.152 HD
ATOM      5  O   UNL     1      27.615  18.452  -0.298  0.00  0.00    -0.226 OA
BRANCH   2   6
ATOM      6  O   UNL     1      27.412  16.902  -1.914  0.00  0.00    -0.450 OA
BRANCH   6   7
ATOM      7  C   UNL     1      26.807  17.390  -3.088  0.00  0.00    +0.240 C 
BRANCH   7   8
ATOM      8  C   UNL     1      26.478  16.370  -4.195  0.00  0.00    +0.100 C 
BRANCH   8  10
ATOM      9  N   UNL     1      25.694  14.028  -4.052  0.00  0.00    -0.134 NA
ATOM     10  C   UNL     1      25.561  15.334  -3.682  0.00  0.00    +0.086 A 
ATOM     11  C   UNL     1      24.498  15.451  -2.815  0.00  0.00    +0.139 A 
ATOM     12  N   UNL     1      24.017  14.170  -2.670  0.00  0.00    -0.220 N 
ATOM     13  N   UNL     1      24.751  13.327  -3.436  0.00  0.00    -0.061 NA
BRANCH  12  14
ATOM     14  C   UNL     1      22.945  13.710  -1.866  0.00  0.00    +0.070 A 
ATOM     15  C   UNL     1      21.684  14.306  -1.937  0.00  0.00    +0.047 A 
ATOM     16  C   UNL     1      20.686  13.816  -1.109  0.00  0.00    +0.113 A 
ATOM     17  N   UNL     1      20.860  12.798  -0.243  0.00  0.00    -0.263 NA
ATOM     18  C   UNL     1      22.087  12.238  -0.196  0.00  0.00    +0.113 A 
ATOM     19  C   UNL     1      23.152  12.651  -0.977  0.00  0.00    +0.047 A 
ENDBRANCH  12  14
ENDBRANCH   8  10
ENDBRANCH   7   8
ENDBRANCH   6   7
ENDBRANCH   2   6
ENDBRANCH   1   3
BRANCH   1  20
ATOM     20  C   UNL     1      30.687  15.001   0.235  0.00  0.00    +0.193 C 
ATOM     21  O   UNL     1      31.059  15.659   1.466  0.00  0.00    -0.219 OA
BRANCH  20  22
ATOM     22  C   UNL     1      31.283  13.581   0.362  0.00  0.00    +0.212 C 
ATOM     23  O   UNL     1      32.208  13.328  -0.708  0.00  0.00    -0.218 OA
BRANCH  22  24
ATOM     24  C   UNL     1      32.019  13.333   1.734  0.00  0.00    +0.171 C 
ATOM     25  O   UNL     1      33.347  12.850   1.563  0.00  0.00    -0.343 OA
ATOM     26  C   UNL     1      34.132  12.322   2.591  0.00  0.00    +0.220 C 
ATOM     27  C   UNL     1      33.380  11.238   3.384  0.00  0.00    +0.076 C 
ATOM     28  C   UNL     1      32.040  11.843   3.837  0.00  0.00    +0.177 C 
ATOM     29  O   UNL     1      31.321  10.893   4.610  0.00  0.00    -0.221 OA
ATOM     30  C   UNL     1      31.214  12.308   2.598  0.00  0.00    +0.155 C 
BRANCH  30  31
ATOM     31  N   UNL     1      29.938  12.876   3.023  0.00  0.00    -0.202 NA
ATOM     32  C   UNL     1      28.672  12.471   2.748  0.00  0.00    +0.242 C 
ATOM     33  C   UNL     1      27.542  13.057   3.553  0.00  0.00    +0.096 C 
ATOM     34  O   UNL     1      28.479  11.642   1.860  0.00  0.00    -0.273 OA
ENDBRANCH  30  31
BRANCH  26  35
ATOM     35  C   UNL     1      34.758  13.454   3.574  0.00  0.00    +0.391 C 
ATOM     36  O   UNL     1      35.022  12.806   4.726  0.00  0.00    -0.243 OA
ATOM     37  O   UNL     1      35.052  14.500   2.792  0.00  0.00    -0.243 OA
ENDBRANCH  26  35
ENDBRANCH  22  24
ENDBRANCH  20  22
ENDBRANCH   1  20
TORSDOF 11
