REMARK VINA RESULT:    -6.816      3.217      5.615
REMARK INTER + INTRA:         -15.969
REMARK INTER:                 -13.322
REMARK INTRA:                  -2.647
REMARK UNBOUND:                -2.580
REMARK  Name = lig_assembled_90.pdb
REMARK  17 active torsions:
REMARK  status: ('A' for Active; 'I' for Inactive)
REMARK    1  A    between atoms: _2  and  _12
REMARK    2  A    between atoms: _3  and  _14
REMARK    3  A    between atoms: _4  and  _16
REMARK    4  A    between atoms: _9  and  _10
REMARK    5  A    between atoms: _9  and  _23
REMARK    6  A    between atoms: _12  and  _13
REMARK    7  A    between atoms: _14  and  _15
REMARK    8  A    between atoms: _15  and  _16
REMARK    9  A    between atoms: _15  and  _21
REMARK   10  A    between atoms: _23  and  _25
REMARK   11  A    between atoms: _24  and  _29
REMARK   12  A    between atoms: _25  and  _28
REMARK   13  A    between atoms: _33  and  _43
REMARK   14  A    between atoms: _35  and  _36
REMARK   15  A    between atoms: _37  and  _39
REMARK   16  A    between atoms: _39  and  _41
REMARK   17  A    between atoms: _41  and  _43
REMARK                            x       y       z     vdW  Elec       q    Type
REMARK                         _______ _______ _______ _____ _____    ______ ____
ROOT
ATOM      1  C   UNL     1      27.101  17.502  -3.314  0.00  0.00    +0.240 C 
ENDROOT
BRANCH   1   2
ATOM      2  O   UNL     1      26.091  16.771  -3.969  0.00  0.00    -0.450 OA
BRANCH   2   3
ATOM      3  C   UNL     1      25.975  15.818  -4.834  0.00  0.00    +0.400 C 
ATOM      4  N   UNL     1      24.759  15.176  -4.854  0.00  0.00    -0.278 N 
ATOM      5  H   UNL     1      24.807  14.583  -5.742  0.00  0.00    +0.152 HD
ATOM      6  O   UNL     1      26.831  15.463  -5.642  0.00  0.00    -0.226 OA
BRANCH   4   7
ATOM      7  C   UNL     1      23.469  14.936  -4.213  0.00  0.00    +0.152 C 
BRANCH   7   8
ATOM      8  C   UNL     1      23.501  14.122  -2.904  0.00  0.00    +0.193 C 
ATOM      9  O   UNL     1      23.232  15.052  -1.831  0.00  0.00    -0.219 OA
BRANCH   8  10
ATOM     10  C   UNL     1      22.442  13.012  -2.726  0.00  0.00    +0.212 C 
ATOM     11  O   UNL     1      22.167  12.374  -3.983  0.00  0.00    -0.218 OA
BRANCH  10  12
ATOM     12  C   UNL     1      22.864  11.908  -1.683  0.00  0.00    +0.171 C 
ATOM     13  O   UNL     1      22.463  12.227  -0.354  0.00  0.00    -0.343 OA
ATOM     14  C   UNL     1      22.911  11.558   0.787  0.00  0.00    +0.220 C 
ATOM     15  C   UNL     1      24.446  11.447   0.817  0.00  0.00    +0.076 C 
ATOM     16  C   UNL     1      24.891  10.823  -0.516  0.00  0.00    +0.177 C 
ATOM     17  O   UNL     1      26.302  10.660  -0.525  0.00  0.00    -0.221 OA
ATOM     18  C   UNL     1      24.415  11.709  -1.709  0.00  0.00    +0.155 C 
BRANCH  18  19
ATOM     19  N   UNL     1      24.842  11.123  -2.977  0.00  0.00    -0.202 NA
ATOM     20  C   UNL     1      25.828  11.512  -3.824  0.00  0.00    +0.242 C 
ATOM     21  C   UNL     1      26.252  10.561  -4.914  0.00  0.00    +0.096 C 
ATOM     22  O   UNL     1      26.349  12.617  -3.684  0.00  0.00    -0.273 OA
ENDBRANCH  18  19
BRANCH  14  23
ATOM     23  C   UNL     1      22.203  10.113   1.009  0.00  0.00    +0.391 C 
ATOM     24  O   UNL     1      21.918  10.064   2.325  0.00  0.00    -0.243 OA
ATOM     25  O   UNL     1      21.902   9.657  -0.213  0.00  0.00    -0.243 OA
ENDBRANCH  14  23
ENDBRANCH  10  12
ENDBRANCH   8  10
ENDBRANCH   7   8
ENDBRANCH   4   7
ENDBRANCH   2   3
ENDBRANCH   1   2
BRANCH   1  26
ATOM     26  C   UNL     1      27.079  17.522  -1.773  0.00  0.00    +0.100 C 
BRANCH  26  28
ATOM     27  N   UNL     1      29.384  17.374  -0.872  0.00  0.00    -0.134 NA
ATOM     28  C   UNL     1      28.215  16.753  -1.232  0.00  0.00    +0.086 A 
ATOM     29  C   UNL     1      28.335  15.402  -1.000  0.00  0.00    +0.134 A 
ATOM     30  N   UNL     1      29.587  15.266  -0.480  0.00  0.00    -0.243 N 
ATOM     31  N   UNL     1      30.223  16.450  -0.421  0.00  0.00    -0.065 NA
BRANCH  30  32
ATOM     32  C   UNL     1      30.280  14.051  -0.121  0.00  0.00    +0.240 C 
BRANCH  32  33
ATOM     33  C   UNL     1      31.747  14.310   0.139  0.00  0.00    +0.235 C 
ATOM     34  O   UNL     1      32.218  14.370   1.273  0.00  0.00    -0.274 OA
ATOM     35  N   UNL     1      32.535  14.420  -0.991  0.00  0.00    -0.311 N 
ATOM     36  H   UNL     1      32.086  14.639  -1.878  0.00  0.00    +0.149 HD
BRANCH  35  37
ATOM     37  C   UNL     1      33.948  14.752  -0.876  0.00  0.00    +0.137 C 
BRANCH  37  38
ATOM     38  C   UNL     1      34.815  13.485  -0.849  0.00  0.00    +0.151 C 
BRANCH  38  39
ATOM     39  O   UNL     1      34.807  12.953   0.482  0.00  0.00    -0.388 OA
ATOM     40  H   UNL     1      33.989  12.433   0.612  0.00  0.00    +0.210 HD
ENDBRANCH  38  39
BRANCH  38  41
ATOM     41  C   UNL     1      34.330  12.444  -1.866  0.00  0.00    +0.162 C 
BRANCH  41  42
ATOM     42  N   UNL     1      34.874  12.670  -3.197  0.00  0.00    -0.269 N 
ATOM     43  C   UNL     1      36.220  12.584  -3.482  0.00  0.00    +0.113 A 
ATOM     44  C   UNL     1      36.341  12.902  -4.814  0.00  0.00    +0.137 A 
ATOM     45  N   UNL     1      35.114  13.183  -5.356  0.00  0.00    -0.172 NA
ATOM     46  C   UNL     1      34.249  13.024  -4.367  0.00  0.00    +0.450 A 
ATOM     47  N   UNL     1      32.830  13.221  -4.542  0.00  0.00    +0.120 N 
ATOM     48  O   UNL     1      32.088  12.945  -3.590  0.00  0.00    +0.045 OA
ATOM     49  O   UNL     1      32.449  13.666  -5.634  0.00  0.00    -0.573 OA
ENDBRANCH  41  42
ENDBRANCH  38  41
ENDBRANCH  37  38
ENDBRANCH  35  37
ENDBRANCH  32  33
ENDBRANCH  30  32
ENDBRANCH  26  28
ENDBRANCH   1  26
TORSDOF 17
