REMARK VINA RESULT:    -7.005      2.055      3.199
REMARK INTER + INTRA:         -15.008
REMARK INTER:                 -12.517
REMARK INTRA:                  -2.491
REMARK UNBOUND:                -1.860
REMARK  Name = lig_assembled_37.pdb
REMARK  16 active torsions:
REMARK  status: ('A' for Active; 'I' for Inactive)
REMARK    1  A    between atoms: _2  and  _8
REMARK    2  A    between atoms: _5  and  _6
REMARK    3  A    between atoms: _5  and  _19
REMARK    4  A    between atoms: _8  and  _9
REMARK    5  A    between atoms: _8  and  _10
REMARK    6  A    between atoms: _10  and  _17
REMARK    7  A    between atoms: _11  and  _12
REMARK    8  A    between atoms: _11  and  _17
REMARK    9  A    between atoms: _19  and  _21
REMARK   10  A    between atoms: _20  and  _25
REMARK   11  A    between atoms: _21  and  _24
REMARK   12  A    between atoms: _29  and  _39
REMARK   13  A    between atoms: _31  and  _32
REMARK   14  A    between atoms: _33  and  _35
REMARK   15  A    between atoms: _35  and  _37
REMARK   16  A    between atoms: _37  and  _39
REMARK                            x       y       z     vdW  Elec       q    Type
REMARK                         _______ _______ _______ _____ _____    ______ ____
ROOT
ATOM      1  C   UNL     1      27.725  17.386  -1.132  0.00  0.00    +0.400 C 
ATOM      2  N   UNL     1      28.260  16.531  -0.198  0.00  0.00    -0.278 N 
ATOM      3  H   UNL     1      28.825  17.180   0.436  0.00  0.00    +0.152 HD
ATOM      4  O   UNL     1      27.840  18.595  -0.944  0.00  0.00    -0.226 OA
ENDROOT
BRANCH   2   5
ATOM      5  C   UNL     1      28.388  15.169   0.312  0.00  0.00    +0.152 C 
BRANCH   5   6
ATOM      6  C   UNL     1      29.418  14.269  -0.402  0.00  0.00    +0.193 C 
ATOM      7  O   UNL     1      29.064  14.265  -1.803  0.00  0.00    -0.219 OA
BRANCH   6   8
ATOM      8  C   UNL     1      30.896  14.716  -0.379  0.00  0.00    +0.212 C 
ATOM      9  O   UNL     1      30.992  16.116  -0.069  0.00  0.00    -0.218 OA
BRANCH   8  10
ATOM     10  C   UNL     1      31.776  13.910   0.652  0.00  0.00    +0.171 C 
ATOM     11  O   UNL     1      31.780  14.500   1.947  0.00  0.00    -0.343 OA
ATOM     12  C   UNL     1      32.656  14.141   2.974  0.00  0.00    +0.220 C 
ATOM     13  C   UNL     1      34.120  14.137   2.500  0.00  0.00    +0.076 C 
ATOM     14  C   UNL     1      34.197  13.254   1.244  0.00  0.00    +0.177 C 
ATOM     15  O   UNL     1      35.540  13.184   0.787  0.00  0.00    -0.221 OA
ATOM     16  C   UNL     1      33.249  13.810   0.137  0.00  0.00    +0.155 C 
BRANCH  16  17
ATOM     17  N   UNL     1      33.325  12.977  -1.061  0.00  0.00    -0.202 NA
ATOM     18  C   UNL     1      33.526  13.334  -2.355  0.00  0.00    +0.242 C 
ATOM     19  C   UNL     1      33.855  12.254  -3.352  0.00  0.00    +0.096 C 
ATOM     20  O   UNL     1      33.438  14.516  -2.680  0.00  0.00    -0.273 OA
ENDBRANCH  16  17
BRANCH  12  21
ATOM     21  C   UNL     1      32.261  12.743   3.702  0.00  0.00    +0.391 C 
ATOM     22  O   UNL     1      33.433  12.222   4.113  0.00  0.00    -0.243 OA
ATOM     23  O   UNL     1      30.935  12.783   3.885  0.00  0.00    -0.243 OA
ENDBRANCH  12  21
ENDBRANCH   8  10
ENDBRANCH   6   8
ENDBRANCH   5   6
ENDBRANCH   2   5
BRANCH   1  24
ATOM     24  O   UNL     1      27.170  16.822  -2.154  0.00  0.00    -0.450 OA
BRANCH  24  25
ATOM     25  C   UNL     1      26.972  17.059  -3.529  0.00  0.00    +0.240 C 
BRANCH  25  26
ATOM     26  C   UNL     1      25.956  16.166  -4.265  0.00  0.00    +0.100 C 
BRANCH  26  28
ATOM     27  N   UNL     1      27.109  14.017  -4.700  0.00  0.00    -0.134 NA
ATOM     28  C   UNL     1      26.210  14.745  -3.968  0.00  0.00    +0.086 A 
ATOM     29  C   UNL     1      25.660  13.936  -2.998  0.00  0.00    +0.134 A 
ATOM     30  N   UNL     1      26.244  12.722  -3.208  0.00  0.00    -0.238 N 
ATOM     31  N   UNL     1      27.129  12.780  -4.221  0.00  0.00    -0.065 NA
BRANCH  30  32
ATOM     32  C   UNL     1      26.082  11.484  -2.470  0.00  0.00    +0.214 C 
ATOM     33  C   UNL     1      26.959  10.372  -3.045  0.00  0.00    +0.045 C 
BRANCH  32  34
ATOM     34  C   UNL     1      26.383  11.680  -1.001  0.00  0.00    +0.332 C 
ATOM     35  O   UNL     1      27.472  11.449  -0.487  0.00  0.00    -0.248 OA
BRANCH  34  36
ATOM     36  O   UNL     1      25.290  12.138  -0.333  0.00  0.00    -0.458 OA
BRANCH  36  37
ATOM     37  C   UNL     1      24.157  11.256  -0.295  0.00  0.00    +0.267 C 
BRANCH  37  38
ATOM     38  C   UNL     1      22.882  12.054  -0.390  0.00  0.00    -0.010 A 
ATOM     39  C   UNL     1      21.880  11.912   0.580  0.00  0.00    +0.007 A 
ATOM     40  C   UNL     1      20.711  12.671   0.507  0.00  0.00    +0.000 A 
ATOM     41  C   UNL     1      20.530  13.578  -0.535  0.00  0.00    +0.000 A 
ATOM     42  C   UNL     1      21.516  13.724  -1.509  0.00  0.00    +0.000 A 
ATOM     43  C   UNL     1      22.687  12.965  -1.439  0.00  0.00    +0.007 A 
ENDBRANCH  37  38
ENDBRANCH  36  37
ENDBRANCH  34  36
ENDBRANCH  32  34
ENDBRANCH  30  32
ENDBRANCH  26  28
ENDBRANCH  25  26
ENDBRANCH  24  25
ENDBRANCH   1  24
TORSDOF 15
