REMARK VINA RESULT:    -6.431      3.503      9.697
REMARK INTER + INTRA:         -12.784
REMARK INTER:                 -10.943
REMARK INTRA:                  -1.841
REMARK UNBOUND:                -1.841
REMARK  Name = lig_assembled_39.pdb
REMARK  12 active torsions:
REMARK  status: ('A' for Active; 'I' for Inactive)
REMARK    1  A    between atoms: _2  and  _8
REMARK    2  A    between atoms: _5  and  _6
REMARK    3  A    between atoms: _5  and  _14
REMARK    4  A    between atoms: _8  and  _9
REMARK    5  A    between atoms: _14  and  _16
REMARK    6  A    between atoms: _15  and  _20
REMARK    7  A    between atoms: _16  and  _19
REMARK    8  A    between atoms: _24  and  _34
REMARK    9  A    between atoms: _26  and  _27
REMARK   10  A    between atoms: _28  and  _30
REMARK   11  A    between atoms: _30  and  _32
REMARK   12  A    between atoms: _32  and  _34
REMARK                            x       y       z     vdW  Elec       q    Type
REMARK                         _______ _______ _______ _____ _____    ______ ____
ROOT
ATOM      1  C   UNL     1      28.821  16.457  -0.493  0.00  0.00    +0.400 C 
ATOM      2  N   UNL     1      27.974  15.374  -0.486  0.00  0.00    -0.278 N 
ATOM      3  H   UNL     1      27.018  15.809  -0.288  0.00  0.00    +0.152 HD
ATOM      4  O   UNL     1      28.325  17.581  -0.467  0.00  0.00    -0.226 OA
ENDROOT
BRANCH   2   5
ATOM      5  C   UNL     1      27.797  13.932  -0.638  0.00  0.00    +0.152 C 
BRANCH   5   6
ATOM      6  C   UNL     1      28.113  13.353  -2.033  0.00  0.00    +0.193 C 
ATOM      7  O   UNL     1      28.945  12.191  -1.820  0.00  0.00    -0.219 OA
BRANCH   6   8
ATOM      8  C   UNL     1      26.928  12.829  -2.875  0.00  0.00    +0.212 C 
ATOM      9  O   UNL     1      27.026  11.406  -3.048  0.00  0.00    -0.218 OA
BRANCH   8  10
ATOM     10  C   UNL     1      25.521  13.166  -2.249  0.00  0.00    +0.171 C 
ATOM     11  O   UNL     1      24.648  12.041  -2.229  0.00  0.00    -0.343 OA
ATOM     12  C   UNL     1      23.279  12.111  -1.960  0.00  0.00    +0.220 C 
ATOM     13  C   UNL     1      22.582  13.179  -2.820  0.00  0.00    +0.076 C 
ATOM     14  C   UNL     1      23.348  14.499  -2.629  0.00  0.00    +0.177 C 
ATOM     15  O   UNL     1      22.719  15.533  -3.373  0.00  0.00    -0.221 OA
ATOM     16  C   UNL     1      24.839  14.322  -3.052  0.00  0.00    +0.155 C 
BRANCH  16  17
ATOM     17  N   UNL     1      25.568  15.575  -2.878  0.00  0.00    -0.202 NA
ATOM     18  C   UNL     1      26.189  16.353  -3.801  0.00  0.00    +0.242 C 
ATOM     19  C   UNL     1      26.611  17.742  -3.398  0.00  0.00    +0.096 C 
ATOM     20  O   UNL     1      26.390  15.912  -4.931  0.00  0.00    -0.273 OA
ENDBRANCH  16  17
BRANCH  12  21
ATOM     21  C   UNL     1      22.939  12.299  -0.382  0.00  0.00    +0.391 C 
ATOM     22  O   UNL     1      21.636  12.641  -0.346  0.00  0.00    -0.243 OA
ATOM     23  O   UNL     1      23.967  11.761   0.285  0.00  0.00    -0.243 OA
ENDBRANCH  12  21
ENDBRANCH   8  10
ENDBRANCH   6   8
ENDBRANCH   5   6
ENDBRANCH   2   5
BRANCH   1  24
ATOM     24  O   UNL     1      30.084  16.180  -0.495  0.00  0.00    -0.450 OA
BRANCH  24  25
ATOM     25  C   UNL     1      31.044  15.564   0.332  0.00  0.00    +0.240 C 
BRANCH  25  26
ATOM     26  C   UNL     1      31.702  14.271  -0.186  0.00  0.00    +0.100 C 
BRANCH  26  28
ATOM     27  N   UNL     1      34.086  13.609  -0.102  0.00  0.00    -0.134 NA
ATOM     28  C   UNL     1      32.947  13.996   0.555  0.00  0.00    +0.086 A 
ATOM     29  C   UNL     1      33.209  14.080   1.904  0.00  0.00    +0.134 A 
ATOM     30  N   UNL     1      34.544  13.813   1.992  0.00  0.00    -0.247 N 
ATOM     31  N   UNL     1      35.054  13.471   0.793  0.00  0.00    -0.065 NA
BRANCH  30  32
ATOM     32  C   UNL     1      35.406  13.932   3.160  0.00  0.00    +0.181 C 
BRANCH  32  33
ATOM     33  C   UNL     1      35.394  12.697   4.042  0.00  0.00    -0.012 A 
ATOM     34  C   UNL     1      34.404  12.520   5.031  0.00  0.00    +0.006 A 
ATOM     35  C   UNL     1      34.385  11.390   5.853  0.00  0.00    +0.000 A 
ATOM     36  C   UNL     1      35.370  10.420   5.723  0.00  0.00    +0.001 A 
ATOM     37  C   UNL     1      36.384  10.589   4.783  0.00  0.00    +0.015 A 
ATOM     38  C   UNL     1      36.404  11.721   3.957  0.00  0.00    +0.023 A 
ATOM     39 BR   UNL     1      37.870  11.871   2.754  0.00  0.00    -0.050 Br
ENDBRANCH  32  33
ENDBRANCH  30  32
ENDBRANCH  26  28
ENDBRANCH  25  26
ENDBRANCH  24  25
ENDBRANCH   1  24
TORSDOF 12
