REMARK VINA RESULT:    -6.693      1.567      1.851
REMARK INTER + INTRA:         -13.279
REMARK INTER:                 -11.388
REMARK INTRA:                  -1.892
REMARK UNBOUND:                -1.696
REMARK  Name = lig_assembled_72.pdb
REMARK  15 active torsions:
REMARK  status: ('A' for Active; 'I' for Inactive)
REMARK    1  A    between atoms: _2  and  _8
REMARK    2  A    between atoms: _4  and  _8
REMARK    3  A    between atoms: _4  and  _11
REMARK    4  A    between atoms: _5  and  _6
REMARK    5  A    between atoms: _5  and  _12
REMARK    6  A    between atoms: _8  and  _9
REMARK    7  A    between atoms: _8  and  _10
REMARK    8  A    between atoms: _12  and  _14
REMARK    9  A    between atoms: _13  and  _18
REMARK   10  A    between atoms: _14  and  _17
REMARK   11  A    between atoms: _22  and  _32
REMARK   12  A    between atoms: _24  and  _25
REMARK   13  A    between atoms: _26  and  _28
REMARK   14  A    between atoms: _28  and  _30
REMARK   15  A    between atoms: _30  and  _32
REMARK                            x       y       z     vdW  Elec       q    Type
REMARK                         _______ _______ _______ _____ _____    ______ ____
ROOT
ATOM      1  C   UNL     1      28.648  14.665   0.255  0.00  0.00    +0.152 C 
ENDROOT
BRANCH   1   3
ATOM      2  C   UNL     1      27.928  17.152  -0.606  0.00  0.00    +0.400 C 
ATOM      3  N   UNL     1      28.428  16.103   0.130  0.00  0.00    -0.278 N 
ATOM      4  H   UNL     1      28.818  16.578   1.004  0.00  0.00    +0.152 HD
ATOM      5  O   UNL     1      27.869  18.257  -0.072  0.00  0.00    -0.226 OA
BRANCH   2   6
ATOM      6  O   UNL     1      27.590  16.872  -1.822  0.00  0.00    -0.450 OA
BRANCH   6   7
ATOM      7  C   UNL     1      27.091  17.521  -2.968  0.00  0.00    +0.240 C 
BRANCH   7   8
ATOM      8  C   UNL     1      26.454  16.643  -4.062  0.00  0.00    +0.100 C 
BRANCH   8  10
ATOM      9  N   UNL     1      26.634  14.240  -3.501  0.00  0.00    -0.134 NA
ATOM     10  C   UNL     1      25.914  15.403  -3.474  0.00  0.00    +0.086 A 
ATOM     11  C   UNL     1      24.712  15.172  -2.843  0.00  0.00    +0.134 A 
ATOM     12  N   UNL     1      24.756  13.847  -2.507  0.00  0.00    -0.244 N 
ATOM     13  N   UNL     1      25.920  13.296  -2.909  0.00  0.00    -0.065 NA
BRANCH  12  14
ATOM     14  C   UNL     1      23.739  13.051  -1.805  0.00  0.00    +0.083 C 
ATOM     15  C   UNL     1      23.276  11.901  -2.719  0.00  0.00    +0.038 C 
ATOM     16  C   UNL     1      22.533  13.946  -1.455  0.00  0.00    +0.038 C 
BRANCH  14  17
ATOM     17  C   UNL     1      24.302  12.423  -0.501  0.00  0.00    +0.185 C 
BRANCH  17  18
ATOM     18  O   UNL     1      25.574  12.957  -0.136  0.00  0.00    -0.393 OA
ATOM     19  H   UNL     1      26.201  12.203  -0.170  0.00  0.00    +0.209 HD
ENDBRANCH  17  18
ENDBRANCH  14  17
ENDBRANCH  12  14
ENDBRANCH   8  10
ENDBRANCH   7   8
ENDBRANCH   6   7
ENDBRANCH   2   6
ENDBRANCH   1   3
BRANCH   1  20
ATOM     20  C   UNL     1      29.743  14.229   1.250  0.00  0.00    +0.193 C 
ATOM     21  O   UNL     1      29.920  12.806   1.076  0.00  0.00    -0.219 OA
BRANCH  20  22
ATOM     22  C   UNL     1      31.158  14.819   1.060  0.00  0.00    +0.212 C 
ATOM     23  O   UNL     1      31.212  16.165   1.561  0.00  0.00    -0.218 OA
BRANCH  22  24
ATOM     24  C   UNL     1      32.287  13.974   1.764  0.00  0.00    +0.171 C 
ATOM     25  O   UNL     1      32.712  14.546   2.996  0.00  0.00    -0.343 OA
ATOM     26  C   UNL     1      33.851  14.147   3.699  0.00  0.00    +0.220 C 
ATOM     27  C   UNL     1      35.095  14.106   2.794  0.00  0.00    +0.076 C 
ATOM     28  C   UNL     1      34.750  13.236   1.573  0.00  0.00    +0.177 C 
ATOM     29  O   UNL     1      35.882  13.132   0.721  0.00  0.00    -0.221 OA
ATOM     30  C   UNL     1      33.524  13.835   0.817  0.00  0.00    +0.155 C 
BRANCH  30  31
ATOM     31  N   UNL     1      33.197  13.016  -0.348  0.00  0.00    -0.202 NA
ATOM     32  C   UNL     1      33.123  13.362  -1.658  0.00  0.00    +0.242 C 
ATOM     33  C   UNL     1      33.056  12.261  -2.685  0.00  0.00    +0.096 C 
ATOM     34  O   UNL     1      33.115  14.550  -1.974  0.00  0.00    -0.273 OA
ENDBRANCH  30  31
BRANCH  26  35
ATOM     35  C   UNL     1      33.656  12.753   4.510  0.00  0.00    +0.391 C 
ATOM     36  O   UNL     1      34.901  12.380   4.866  0.00  0.00    -0.243 OA
ATOM     37  O   UNL     1      32.347  12.660   4.776  0.00  0.00    -0.243 OA
ENDBRANCH  26  35
ENDBRANCH  22  24
ENDBRANCH  20  22
ENDBRANCH   1  20
TORSDOF 13
