REMARK VINA RESULT:    -6.866      2.129      2.966
REMARK INTER + INTRA:         -14.196
REMARK INTER:                 -11.369
REMARK INTRA:                  -2.828
REMARK UNBOUND:                -2.513
REMARK  Name = lig_assembled_28.pdb
REMARK  12 active torsions:
REMARK  status: ('A' for Active; 'I' for Inactive)
REMARK    1  A    between atoms: _2  and  _8
REMARK    2  A    between atoms: _5  and  _6
REMARK    3  A    between atoms: _5  and  _17
REMARK    4  A    between atoms: _8  and  _9
REMARK    5  A    between atoms: _17  and  _19
REMARK    6  A    between atoms: _18  and  _23
REMARK    7  A    between atoms: _19  and  _22
REMARK    8  A    between atoms: _27  and  _37
REMARK    9  A    between atoms: _29  and  _30
REMARK   10  A    between atoms: _31  and  _33
REMARK   11  A    between atoms: _33  and  _35
REMARK   12  A    between atoms: _35  and  _37
REMARK                            x       y       z     vdW  Elec       q    Type
REMARK                         _______ _______ _______ _____ _____    ______ ____
ROOT
ATOM      1  C   UNL     1      27.942  17.231  -0.862  0.00  0.00    +0.400 C 
ATOM      2  N   UNL     1      28.446  16.391   0.103  0.00  0.00    -0.278 N 
ATOM      3  H   UNL     1      28.892  17.061   0.806  0.00  0.00    +0.152 HD
ATOM      4  O   UNL     1      27.942  18.439  -0.636  0.00  0.00    -0.226 OA
ENDROOT
BRANCH   2   5
ATOM      5  C   UNL     1      28.629  15.027   0.593  0.00  0.00    +0.152 C 
BRANCH   5   6
ATOM      6  C   UNL     1      29.959  14.343   0.218  0.00  0.00    +0.193 C 
ATOM      7  O   UNL     1      30.004  14.283  -1.225  0.00  0.00    -0.219 OA
BRANCH   6   8
ATOM      8  C   UNL     1      31.269  15.059   0.615  0.00  0.00    +0.212 C 
ATOM      9  O   UNL     1      30.983  16.232   1.394  0.00  0.00    -0.218 OA
BRANCH   8  10
ATOM     10  C   UNL     1      32.260  14.143   1.428  0.00  0.00    +0.171 C 
ATOM     11  O   UNL     1      32.571  14.676   2.712  0.00  0.00    -0.343 OA
ATOM     12  C   UNL     1      33.597  14.205   3.534  0.00  0.00    +0.220 C 
ATOM     13  C   UNL     1      34.933  14.103   2.777  0.00  0.00    +0.076 C 
ATOM     14  C   UNL     1      34.684  13.269   1.509  0.00  0.00    +0.177 C 
ATOM     15  O   UNL     1      35.899  13.109   0.791  0.00  0.00    -0.221 OA
ATOM     16  C   UNL     1      33.589  13.945   0.627  0.00  0.00    +0.155 C 
BRANCH  16  17
ATOM     17  N   UNL     1      33.354  13.159  -0.581  0.00  0.00    -0.202 NA
ATOM     18  C   UNL     1      33.378  13.542  -1.884  0.00  0.00    +0.242 C 
ATOM     19  C   UNL     1      33.393  12.471  -2.944  0.00  0.00    +0.096 C 
ATOM     20  O   UNL     1      33.389  14.739  -2.165  0.00  0.00    -0.273 OA
ENDBRANCH  16  17
BRANCH  12  21
ATOM     21  C   UNL     1      33.233  12.814   4.291  0.00  0.00    +0.391 C 
ATOM     22  O   UNL     1      34.397  12.392   4.821  0.00  0.00    -0.243 OA
ATOM     23  O   UNL     1      31.896  12.771   4.362  0.00  0.00    -0.243 OA
ENDBRANCH  12  21
ENDBRANCH   8  10
ENDBRANCH   6   8
ENDBRANCH   5   6
ENDBRANCH   2   5
BRANCH   1  24
ATOM     24  O   UNL     1      27.538  16.658  -1.948  0.00  0.00    -0.450 OA
BRANCH  24  25
ATOM     25  C   UNL     1      27.006  17.006  -3.205  0.00  0.00    +0.240 C 
BRANCH  25  26
ATOM     26  C   UNL     1      25.811  16.184  -3.723  0.00  0.00    +0.100 C 
BRANCH  26  28
ATOM     27  N   UNL     1      26.975  14.001  -3.869  0.00  0.00    -0.134 NA
ATOM     28  C   UNL     1      25.965  14.765  -3.352  0.00  0.00    +0.086 A 
ATOM     29  C   UNL     1      25.227  14.002  -2.476  0.00  0.00    +0.134 A 
ATOM     30  N   UNL     1      25.895  12.812  -2.427  0.00  0.00    -0.247 N 
ATOM     31  N   UNL     1      26.917  12.801  -3.305  0.00  0.00    -0.065 NA
BRANCH  30  32
ATOM     32  C   UNL     1      25.721  11.667  -1.542  0.00  0.00    +0.180 C 
BRANCH  32  33
ATOM     33  C   UNL     1      26.613  11.704  -0.322  0.00  0.00    -0.022 A 
ATOM     34  C   UNL     1      26.188  12.363   0.844  0.00  0.00    +0.055 A 
ATOM     35  C   UNL     1      26.984  12.271   1.967  0.00  0.00    +0.167 A 
ATOM     36  O   UNL     1      26.695  12.799   3.187  0.00  0.00    -0.453 OA
ATOM     37  C   UNL     1      27.795  12.283   3.968  0.00  0.00    +0.466 C 
ATOM     38  O   UNL     1      28.785  11.592   3.175  0.00  0.00    -0.453 OA
ATOM     39  C   UNL     1      28.173  11.586   1.961  0.00  0.00    +0.166 A 
ATOM     40  C   UNL     1      28.641  10.957   0.826  0.00  0.00    +0.050 A 
ATOM     41  C   UNL     1      27.847  11.012  -0.324  0.00  0.00    +0.009 A 
ENDBRANCH  32  33
ENDBRANCH  30  32
ENDBRANCH  26  28
ENDBRANCH  25  26
ENDBRANCH  24  25
ENDBRANCH   1  24
TORSDOF 12
