REMARK VINA RESULT:    -6.516      3.548      5.948
REMARK INTER + INTRA:         -12.897
REMARK INTER:                 -10.663
REMARK INTRA:                  -2.234
REMARK UNBOUND:                -2.191
REMARK  Name = lig_assembled_93.pdb
REMARK  11 active torsions:
REMARK  status: ('A' for Active; 'I' for Inactive)
REMARK    1  A    between atoms: _2  and  _8
REMARK    2  A    between atoms: _5  and  _6
REMARK    3  A    between atoms: _5  and  _13
REMARK    4  A    between atoms: _13  and  _15
REMARK    5  A    between atoms: _14  and  _19
REMARK    6  A    between atoms: _15  and  _18
REMARK    7  A    between atoms: _23  and  _33
REMARK    8  A    between atoms: _25  and  _26
REMARK    9  A    between atoms: _27  and  _29
REMARK   10  A    between atoms: _29  and  _31
REMARK   11  A    between atoms: _31  and  _33
REMARK                            x       y       z     vdW  Elec       q    Type
REMARK                         _______ _______ _______ _____ _____    ______ ____
ROOT
ATOM      1  C   UNL     1      28.240  17.085  -0.798  0.00  0.00    +0.400 C 
ATOM      2  N   UNL     1      28.891  16.011  -0.238  0.00  0.00    -0.278 N 
ATOM      3  H   UNL     1      29.243  16.395   0.695  0.00  0.00    +0.152 HD
ATOM      4  O   UNL     1      28.057  18.080  -0.101  0.00  0.00    -0.226 OA
ENDROOT
BRANCH   1   5
ATOM      5  O   UNL     1      27.904  16.951  -2.039  0.00  0.00    -0.450 OA
BRANCH   5   6
ATOM      6  C   UNL     1      26.938  17.434  -2.943  0.00  0.00    +0.240 C 
BRANCH   6   7
ATOM      7  C   UNL     1      26.633  16.575  -4.185  0.00  0.00    +0.100 C 
BRANCH   7   9
ATOM      8  N   UNL     1      25.035  14.825  -4.870  0.00  0.00    -0.134 NA
ATOM      9  C   UNL     1      25.468  15.708  -3.933  0.00  0.00    +0.086 A 
ATOM     10  C   UNL     1      24.661  15.610  -2.822  0.00  0.00    +0.139 A 
ATOM     11  N   UNL     1      23.738  14.620  -3.120  0.00  0.00    -0.219 N 
ATOM     12  N   UNL     1      23.991  14.179  -4.372  0.00  0.00    -0.061 NA
BRANCH  11  13
ATOM     13  C   UNL     1      22.694  14.107  -2.288  0.00  0.00    +0.080 A 
ATOM     14  C   UNL     1      23.052  13.169  -1.291  0.00  0.00    +0.029 A 
ATOM     15  C   UNL     1      22.101  12.597  -0.441  0.00  0.00    +0.002 A 
ATOM     16  C   UNL     1      20.766  12.944  -0.565  0.00  0.00    +0.001 A 
ATOM     17  C   UNL     1      20.385  13.869  -1.534  0.00  0.00    +0.016 A 
ATOM     18  C   UNL     1      21.332  14.458  -2.399  0.00  0.00    +0.039 A 
ATOM     19  I   UNL     1      20.446  15.823  -3.752  0.00  0.00    -0.042 I 
ENDBRANCH  11  13
ENDBRANCH   7   9
ENDBRANCH   6   7
ENDBRANCH   5   6
ENDBRANCH   1   5
BRANCH   2  20
ATOM     20  C   UNL     1      29.295  14.611  -0.337  0.00  0.00    +0.152 C 
BRANCH  20  21
ATOM     21  C   UNL     1      28.460  13.604   0.480  0.00  0.00    +0.193 C 
ATOM     22  O   UNL     1      28.256  14.193   1.783  0.00  0.00    -0.219 OA
BRANCH  21  23
ATOM     23  C   UNL     1      27.036  13.281  -0.024  0.00  0.00    +0.212 C 
ATOM     24  O   UNL     1      26.871  13.722  -1.381  0.00  0.00    -0.218 OA
BRANCH  23  25
ATOM     25  C   UNL     1      26.678  11.748   0.054  0.00  0.00    +0.171 C 
ATOM     26  O   UNL     1      26.146  11.246  -1.167  0.00  0.00    -0.343 OA
ATOM     27  C   UNL     1      25.526  10.002  -1.305  0.00  0.00    +0.220 C 
ATOM     28  C   UNL     1      24.435   9.787  -0.242  0.00  0.00    +0.076 C 
ATOM     29  C   UNL     1      25.073  10.044   1.134  0.00  0.00    +0.177 C 
ATOM     30  O   UNL     1      24.115   9.819   2.158  0.00  0.00    -0.221 OA
ATOM     31  C   UNL     1      25.644  11.495   1.199  0.00  0.00    +0.155 C 
BRANCH  31  32
ATOM     32  N   UNL     1      26.244  11.745   2.507  0.00  0.00    -0.202 NA
ATOM     33  C   UNL     1      27.307  11.146   3.103  0.00  0.00    +0.242 C 
ATOM     34  C   UNL     1      27.900  11.793   4.327  0.00  0.00    +0.096 C 
ATOM     35  O   UNL     1      27.757  10.102   2.635  0.00  0.00    -0.273 OA
ENDBRANCH  31  32
BRANCH  27  36
ATOM     36  C   UNL     1      26.571   8.760  -1.348  0.00  0.00    +0.391 C 
ATOM     37  O   UNL     1      25.819   7.665  -1.124  0.00  0.00    -0.243 OA
ATOM     38  O   UNL     1      27.701   9.245  -1.876  0.00  0.00    -0.243 OA
ENDBRANCH  27  36
ENDBRANCH  23  25
ENDBRANCH  21  23
ENDBRANCH  20  21
ENDBRANCH   2  20
TORSDOF 11
