REMARK VINA RESULT:    -7.937      1.805      3.617
REMARK INTER + INTRA:         -18.717
REMARK INTER:                 -16.575
REMARK INTRA:                  -2.143
REMARK UNBOUND:                -3.125
REMARK  Name = lig_assembled_47.pdb
REMARK  17 active torsions:
REMARK  status: ('A' for Active; 'I' for Inactive)
REMARK    1  A    between atoms: _2  and  _8
REMARK    2  A    between atoms: _5  and  _6
REMARK    3  A    between atoms: _5  and  _25
REMARK    4  A    between atoms: _8  and  _9
REMARK    5  A    between atoms: _9  and  _10
REMARK    6  A    between atoms: _9  and  _11
REMARK    7  A    between atoms: _10  and  _23
REMARK    8  A    between atoms: _11  and  _12
REMARK    9  A    between atoms: _11  and  _18
REMARK   10  A    between atoms: _25  and  _27
REMARK   11  A    between atoms: _26  and  _31
REMARK   12  A    between atoms: _27  and  _30
REMARK   13  A    between atoms: _35  and  _45
REMARK   14  A    between atoms: _37  and  _38
REMARK   15  A    between atoms: _39  and  _41
REMARK   16  A    between atoms: _41  and  _43
REMARK   17  A    between atoms: _43  and  _45
REMARK                            x       y       z     vdW  Elec       q    Type
REMARK                         _______ _______ _______ _____ _____    ______ ____
ROOT
ATOM      1  C   UNL     1      26.773  16.012  -4.224  0.00  0.00    +0.100 C 
ENDROOT
BRANCH   1   3
ATOM      2  N   UNL     1      25.231  14.753  -5.710  0.00  0.00    -0.134 NA
ATOM      3  C   UNL     1      25.469  15.383  -4.515  0.00  0.00    +0.086 A 
ATOM      4  C   UNL     1      24.326  15.326  -3.747  0.00  0.00    +0.133 A 
ATOM      5  N   UNL     1      23.419  14.695  -4.548  0.00  0.00    -0.251 N 
ATOM      6  N   UNL     1      23.972  14.335  -5.717  0.00  0.00    -0.065 NA
BRANCH   5   7
ATOM      7  C   UNL     1      21.989  14.540  -4.332  0.00  0.00    +0.160 C 
BRANCH   7   8
ATOM      8  C   UNL     1      21.479  15.206  -3.050  0.00  0.00    +0.131 C 
BRANCH   8   9
ATOM      9  C   UNL     1      20.854  16.537  -3.444  0.00  0.00    +0.311 C 
ATOM     10  O   UNL     1      19.710  16.636  -3.859  0.00  0.00    -0.251 OA
BRANCH   9  11
ATOM     11  O   UNL     1      21.588  17.646  -3.213  0.00  0.00    -0.480 OA
ATOM     12  H   UNL     1      22.300  17.606  -2.553  0.00  0.00    +0.295 HD
ENDBRANCH   9  11
ENDBRANCH   8   9
BRANCH   8  13
ATOM     13  C   UNL     1      20.501  14.330  -2.204  0.00  0.00    +0.064 C 
BRANCH  13  14
ATOM     14  C   UNL     1      19.511  13.481  -3.002  0.00  0.00    -0.039 A 
ATOM     15  C   UNL     1      18.181  13.921  -3.158  0.00  0.00    +0.004 A 
ATOM     16  C   UNL     1      17.250  13.168  -3.881  0.00  0.00    +0.000 A 
ATOM     17  C   UNL     1      17.623  11.953  -4.448  0.00  0.00    +0.000 A 
ATOM     18  C   UNL     1      18.926  11.492  -4.289  0.00  0.00    +0.000 A 
ATOM     19  C   UNL     1      19.863  12.253  -3.581  0.00  0.00    +0.004 A 
ENDBRANCH  13  14
BRANCH  13  20
ATOM     20  C   UNL     1      21.285  13.517  -1.165  0.00  0.00    -0.039 A 
ATOM     21  C   UNL     1      22.650  13.244  -1.357  0.00  0.00    +0.004 A 
ATOM     22  C   UNL     1      23.325  12.365  -0.506  0.00  0.00    +0.000 A 
ATOM     23  C   UNL     1      22.658  11.768   0.562  0.00  0.00    +0.000 A 
ATOM     24  C   UNL     1      21.318  12.059   0.789  0.00  0.00    +0.000 A 
ATOM     25  C   UNL     1      20.639  12.926  -0.065  0.00  0.00    +0.004 A 
ENDBRANCH  13  20
ENDBRANCH   8  13
ENDBRANCH   7   8
ENDBRANCH   5   7
ENDBRANCH   1   3
BRANCH   1  26
ATOM     26  C   UNL     1      26.743  16.743  -2.869  0.00  0.00    +0.240 C 
BRANCH  26  27
ATOM     27  O   UNL     1      27.774  16.455  -1.952  0.00  0.00    -0.450 OA
BRANCH  27  28
ATOM     28  C   UNL     1      28.356  16.993  -0.931  0.00  0.00    +0.400 C 
ATOM     29  N   UNL     1      28.744  16.122   0.060  0.00  0.00    -0.278 N 
ATOM     30  H   UNL     1      29.361  16.725   0.691  0.00  0.00    +0.152 HD
ATOM     31  O   UNL     1      28.613  18.186  -0.788  0.00  0.00    -0.226 OA
BRANCH  29  32
ATOM     32  C   UNL     1      28.682  14.779   0.631  0.00  0.00    +0.152 C 
BRANCH  32  33
ATOM     33  C   UNL     1      29.994  13.969   0.607  0.00  0.00    +0.193 C 
ATOM     34  O   UNL     1      30.120  13.423  -0.725  0.00  0.00    -0.219 OA
BRANCH  33  35
ATOM     35  C   UNL     1      31.314  14.738   0.835  0.00  0.00    +0.212 C 
ATOM     36  O   UNL     1      31.074  15.931   1.599  0.00  0.00    -0.218 OA
BRANCH  35  37
ATOM     37  C   UNL     1      32.416  13.882   1.569  0.00  0.00    +0.171 C 
ATOM     38  O   UNL     1      32.752  14.406   2.850  0.00  0.00    -0.343 OA
ATOM     39  C   UNL     1      33.854  13.996   3.604  0.00  0.00    +0.220 C 
ATOM     40  C   UNL     1      35.151  14.020   2.778  0.00  0.00    +0.076 C 
ATOM     41  C   UNL     1      34.901  13.202   1.500  0.00  0.00    +0.177 C 
ATOM     42  O   UNL     1      36.085  13.158   0.717  0.00  0.00    -0.221 OA
ATOM     43  C   UNL     1      33.711  13.811   0.696  0.00  0.00    +0.155 C 
BRANCH  43  44
ATOM     44  N   UNL     1      33.474  13.040  -0.522  0.00  0.00    -0.202 NA
ATOM     45  C   UNL     1      33.415  13.455  -1.813  0.00  0.00    +0.242 C 
ATOM     46  C   UNL     1      33.453  12.413  -2.901  0.00  0.00    +0.096 C 
ATOM     47  O   UNL     1      33.336  14.656  -2.063  0.00  0.00    -0.273 OA
ENDBRANCH  43  44
BRANCH  39  48
ATOM     48  C   UNL     1      33.640  12.563   4.338  0.00  0.00    +0.391 C 
ATOM     49  O   UNL     1      34.851  12.240   4.830  0.00  0.00    -0.243 OA
ATOM     50  O   UNL     1      32.316  12.393   4.439  0.00  0.00    -0.243 OA
ENDBRANCH  39  48
ENDBRANCH  35  37
ENDBRANCH  33  35
ENDBRANCH  32  33
ENDBRANCH  29  32
ENDBRANCH  27  28
ENDBRANCH  26  27
ENDBRANCH   1  26
TORSDOF 17
