REMARK VINA RESULT:    -6.733      1.608      2.548
REMARK INTER + INTRA:         -14.729
REMARK INTER:                 -13.360
REMARK INTRA:                  -1.370
REMARK UNBOUND:                -2.486
REMARK  Name = lig_assembled_29.pdb
REMARK  16 active torsions:
REMARK  status: ('A' for Active; 'I' for Inactive)
REMARK    1  A    between atoms: _2  and  _8
REMARK    2  A    between atoms: _5  and  _6
REMARK    3  A    between atoms: _5  and  _18
REMARK    4  A    between atoms: _8  and  _9
REMARK    5  A    between atoms: _11  and  _17
REMARK    6  A    between atoms: _12  and  _17
REMARK    7  A    between atoms: _13  and  _16
REMARK    8  A    between atoms: _14  and  _16
REMARK    9  A    between atoms: _18  and  _20
REMARK   10  A    between atoms: _19  and  _24
REMARK   11  A    between atoms: _20  and  _23
REMARK   12  A    between atoms: _28  and  _38
REMARK   13  A    between atoms: _30  and  _31
REMARK   14  A    between atoms: _32  and  _34
REMARK   15  A    between atoms: _34  and  _36
REMARK   16  A    between atoms: _36  and  _38
REMARK                            x       y       z     vdW  Elec       q    Type
REMARK                         _______ _______ _______ _____ _____    ______ ____
ROOT
ATOM      1  C   UNL     1      27.852  17.376  -0.893  0.00  0.00    +0.400 C 
ATOM      2  N   UNL     1      28.554  16.526  -0.071  0.00  0.00    -0.278 N 
ATOM      3  H   UNL     1      28.763  17.127   0.787  0.00  0.00    +0.152 HD
ATOM      4  O   UNL     1      27.490  18.457  -0.434  0.00  0.00    -0.226 OA
ENDROOT
BRANCH   2   5
ATOM      5  C   UNL     1      29.116  15.197   0.155  0.00  0.00    +0.152 C 
BRANCH   5   6
ATOM      6  C   UNL     1      30.645  15.068  -0.011  0.00  0.00    +0.193 C 
ATOM      7  O   UNL     1      31.105  16.308  -0.591  0.00  0.00    -0.219 OA
BRANCH   6   8
ATOM      8  C   UNL     1      31.492  14.904   1.270  0.00  0.00    +0.212 C 
ATOM      9  O   UNL     1      31.232  15.981   2.185  0.00  0.00    -0.218 OA
BRANCH   8  10
ATOM     10  C   UNL     1      31.239  13.538   2.015  0.00  0.00    +0.171 C 
ATOM     11  O   UNL     1      30.062  13.561   2.817  0.00  0.00    -0.343 OA
ATOM     12  C   UNL     1      29.734  12.586   3.762  0.00  0.00    +0.220 C 
ATOM     13  C   UNL     1      30.902  12.307   4.723  0.00  0.00    +0.076 C 
ATOM     14  C   UNL     1      32.139  11.987   3.867  0.00  0.00    +0.177 C 
ATOM     15  O   UNL     1      33.241  11.681   4.709  0.00  0.00    -0.221 OA
ATOM     16  C   UNL     1      32.463  13.186   2.923  0.00  0.00    +0.155 C 
BRANCH  16  17
ATOM     17  N   UNL     1      33.641  12.889   2.112  0.00  0.00    -0.202 NA
ATOM     18  C   UNL     1      34.927  13.295   2.270  0.00  0.00    +0.242 C 
ATOM     19  C   UNL     1      35.998  12.606   1.465  0.00  0.00    +0.096 C 
ATOM     20  O   UNL     1      35.186  14.203   3.057  0.00  0.00    -0.273 OA
ENDBRANCH  16  17
BRANCH  12  21
ATOM     21  C   UNL     1      29.159  11.216   3.106  0.00  0.00    +0.391 C 
ATOM     22  O   UNL     1      29.230  10.301   4.093  0.00  0.00    -0.243 OA
ATOM     23  O   UNL     1      28.565  11.574   1.961  0.00  0.00    -0.243 OA
ENDBRANCH  12  21
ENDBRANCH   8  10
ENDBRANCH   6   8
ENDBRANCH   5   6
ENDBRANCH   2   5
BRANCH   1  24
ATOM     24  O   UNL     1      27.666  16.959  -2.102  0.00  0.00    -0.450 OA
BRANCH  24  25
ATOM     25  C   UNL     1      26.879  17.268  -3.229  0.00  0.00    +0.240 C 
BRANCH  25  26
ATOM     26  C   UNL     1      26.588  16.131  -4.226  0.00  0.00    +0.100 C 
BRANCH  26  28
ATOM     27  N   UNL     1      24.638  14.799  -4.982  0.00  0.00    -0.134 NA
ATOM     28  C   UNL     1      25.203  15.649  -4.068  0.00  0.00    +0.086 A 
ATOM     29  C   UNL     1      24.297  15.900  -3.065  0.00  0.00    +0.134 A 
ATOM     30  N   UNL     1      23.234  15.101  -3.376  0.00  0.00    -0.247 N 
ATOM     31  N   UNL     1      23.424  14.477  -4.552  0.00  0.00    -0.065 NA
BRANCH  30  32
ATOM     32  C   UNL     1      22.043  14.846  -2.587  0.00  0.00    +0.180 C 
BRANCH  32  33
ATOM     33  C   UNL     1      22.285  13.732  -1.595  0.00  0.00    -0.022 A 
ATOM     34  C   UNL     1      23.597  13.375  -1.238  0.00  0.00    +0.054 A 
ATOM     35  C   UNL     1      23.834  12.398  -0.261  0.00  0.00    +0.162 A 
ATOM     36  C   UNL     1      22.744  11.759   0.364  0.00  0.00    +0.162 A 
ATOM     37  C   UNL     1      21.440  12.115   0.007  0.00  0.00    +0.050 A 
ATOM     38  C   UNL     1      21.212  13.092  -0.966  0.00  0.00    +0.009 A 
BRANCH  36  39
ATOM     39  O   UNL     1      23.057  10.809   1.306  0.00  0.00    -0.491 OA
ATOM     40  C   UNL     1      22.105  10.553   2.328  0.00  0.00    +0.277 C 
ENDBRANCH  36  39
BRANCH  35  41
ATOM     41  O   UNL     1      25.083  12.009   0.158  0.00  0.00    -0.491 OA
ATOM     42  C   UNL     1      26.150  12.084  -0.778  0.00  0.00    +0.277 C 
ENDBRANCH  35  41
ENDBRANCH  32  33
ENDBRANCH  30  32
ENDBRANCH  26  28
ENDBRANCH  25  26
ENDBRANCH  24  25
ENDBRANCH   1  24
TORSDOF 14
