REMARK VINA RESULT:    -6.860      2.038      2.764
REMARK INTER + INTRA:         -14.269
REMARK INTER:                 -12.343
REMARK INTRA:                  -1.925
REMARK UNBOUND:                -2.596
REMARK  Name = lig_assembled_4.pdb
REMARK  14 active torsions:
REMARK  status: ('A' for Active; 'I' for Inactive)
REMARK    1  A    between atoms: _2  and  _8
REMARK    2  A    between atoms: _5  and  _6
REMARK    3  A    between atoms: _5  and  _16
REMARK    4  A    between atoms: _9  and  _10
REMARK    5  A    between atoms: _10  and  _11
REMARK    6  A    between atoms: _10  and  _12
REMARK    7  A    between atoms: _16  and  _18
REMARK    8  A    between atoms: _17  and  _22
REMARK    9  A    between atoms: _18  and  _21
REMARK   10  A    between atoms: _26  and  _36
REMARK   11  A    between atoms: _28  and  _29
REMARK   12  A    between atoms: _30  and  _32
REMARK   13  A    between atoms: _32  and  _34
REMARK   14  A    between atoms: _34  and  _36
REMARK                            x       y       z     vdW  Elec       q    Type
REMARK                         _______ _______ _______ _____ _____    ______ ____
ROOT
ATOM      1  C   UNL     1      28.158  17.158  -0.870  0.00  0.00    +0.400 C 
ATOM      2  N   UNL     1      28.914  16.115  -0.387  0.00  0.00    -0.278 N 
ATOM      3  H   UNL     1      29.232  16.464   0.572  0.00  0.00    +0.152 HD
ATOM      4  O   UNL     1      27.884  18.078  -0.104  0.00  0.00    -0.226 OA
ENDROOT
BRANCH   2   5
ATOM      5  C   UNL     1      29.451  14.772  -0.585  0.00  0.00    +0.152 C 
BRANCH   5   6
ATOM      6  C   UNL     1      30.951  14.587  -0.277  0.00  0.00    +0.193 C 
ATOM      7  O   UNL     1      31.588  15.856  -0.541  0.00  0.00    -0.219 OA
BRANCH   6   8
ATOM      8  C   UNL     1      31.346  14.253   1.178  0.00  0.00    +0.212 C 
ATOM      9  O   UNL     1      31.278  15.429   2.000  0.00  0.00    -0.218 OA
BRANCH   8  10
ATOM     10  C   UNL     1      30.448  13.132   1.827  0.00  0.00    +0.171 C 
ATOM     11  O   UNL     1      30.144  13.396   3.193  0.00  0.00    -0.343 OA
ATOM     12  C   UNL     1      29.579  12.466   4.069  0.00  0.00    +0.220 C 
ATOM     13  C   UNL     1      30.341  11.130   4.051  0.00  0.00    +0.076 C 
ATOM     14  C   UNL     1      30.430  10.668   2.587  0.00  0.00    +0.177 C 
ATOM     15  O   UNL     1      31.093   9.413   2.517  0.00  0.00    -0.221 OA
ATOM     16  C   UNL     1      31.164  11.745   1.728  0.00  0.00    +0.155 C 
BRANCH  16  17
ATOM     17  N   UNL     1      31.257  11.307   0.338  0.00  0.00    -0.202 NA
ATOM     18  C   UNL     1      32.354  11.089  -0.432  0.00  0.00    +0.242 C 
ATOM     19  C   UNL     1      32.178  10.358  -1.738  0.00  0.00    +0.096 C 
ATOM     20  O   UNL     1      33.453  11.486  -0.050  0.00  0.00    -0.273 OA
ENDBRANCH  16  17
BRANCH  12  21
ATOM     21  C   UNL     1      27.985  12.249   3.842  0.00  0.00    +0.391 C 
ATOM     22  O   UNL     1      27.735  11.008   4.304  0.00  0.00    -0.243 OA
ATOM     23  O   UNL     1      27.481  13.459   3.574  0.00  0.00    -0.243 OA
ENDBRANCH  12  21
ENDBRANCH   8  10
ENDBRANCH   6   8
ENDBRANCH   5   6
ENDBRANCH   2   5
BRANCH   1  24
ATOM     24  O   UNL     1      27.830  17.080  -2.118  0.00  0.00    -0.450 OA
BRANCH  24  25
ATOM     25  C   UNL     1      26.760  17.428  -2.964  0.00  0.00    +0.240 C 
BRANCH  25  26
ATOM     26  C   UNL     1      26.469  16.501  -4.160  0.00  0.00    +0.100 C 
BRANCH  26  28
ATOM     27  N   UNL     1      24.966  14.627  -4.722  0.00  0.00    -0.134 NA
ATOM     28  C   UNL     1      25.499  15.456  -3.785  0.00  0.00    +0.086 A 
ATOM     29  C   UNL     1      24.955  15.157  -2.557  0.00  0.00    +0.139 A 
ATOM     30  N   UNL     1      23.984  14.211  -2.819  0.00  0.00    -0.220 N 
ATOM     31  N   UNL     1      24.067  13.857  -4.120  0.00  0.00    -0.061 NA
BRANCH  30  32
ATOM     32  C   UNL     1      23.016  13.684  -1.912  0.00  0.00    +0.070 A 
ATOM     33  C   UNL     1      23.265  12.571  -1.063  0.00  0.00    -0.019 A 
ATOM     34  C   UNL     1      22.207  12.134  -0.234  0.00  0.00    +0.006 A 
ATOM     35  C   UNL     1      20.953  12.749  -0.245  0.00  0.00    +0.000 A 
ATOM     36  C   UNL     1      20.725  13.837  -1.071  0.00  0.00    +0.002 A 
ATOM     37  C   UNL     1      21.745  14.302  -1.899  0.00  0.00    +0.028 A 
BRANCH  33  38
ATOM     38  C   UNL     1      24.595  11.818  -0.998  0.00  0.00    +0.015 C 
ATOM     39  C   UNL     1      24.472  10.296  -0.822  0.00  0.00    +0.012 C 
ATOM     40  C   UNL     1      25.472  12.400   0.114  0.00  0.00    +0.012 C 
ENDBRANCH  33  38
ENDBRANCH  30  32
ENDBRANCH  26  28
ENDBRANCH  25  26
ENDBRANCH  24  25
ENDBRANCH   1  24
TORSDOF 12
