REMARK VINA RESULT:    -7.635      1.840      3.494
REMARK INTER + INTRA:         -14.192
REMARK INTER:                 -12.508
REMARK INTRA:                  -1.684
REMARK UNBOUND:                -1.202
REMARK  Name = lig_assembled_38.pdb
REMARK  12 active torsions:
REMARK  status: ('A' for Active; 'I' for Inactive)
REMARK    1  A    between atoms: _2  and  _8
REMARK    2  A    between atoms: _5  and  _6
REMARK    3  A    between atoms: _5  and  _14
REMARK    4  A    between atoms: _8  and  _9
REMARK    5  A    between atoms: _14  and  _16
REMARK    6  A    between atoms: _15  and  _20
REMARK    7  A    between atoms: _16  and  _19
REMARK    8  A    between atoms: _24  and  _34
REMARK    9  A    between atoms: _26  and  _27
REMARK   10  A    between atoms: _28  and  _30
REMARK   11  A    between atoms: _30  and  _32
REMARK   12  A    between atoms: _32  and  _34
REMARK                            x       y       z     vdW  Elec       q    Type
REMARK                         _______ _______ _______ _____ _____    ______ ____
ROOT
ATOM      1  C   UNL     1      28.297  17.651  -0.565  0.00  0.00    +0.400 C 
ATOM      2  N   UNL     1      29.502  17.533   0.088  0.00  0.00    -0.278 N 
ATOM      3  H   UNL     1      29.477  18.332   0.798  0.00  0.00    +0.152 HD
ATOM      4  O   UNL     1      27.467  18.434  -0.112  0.00  0.00    -0.226 OA
ENDROOT
BRANCH   2   5
ATOM      5  C   UNL     1      30.763  16.816   0.252  0.00  0.00    +0.152 C 
BRANCH   5   6
ATOM      6  C   UNL     1      30.657  15.289   0.444  0.00  0.00    +0.193 C 
ATOM      7  O   UNL     1      31.090  14.683  -0.794  0.00  0.00    -0.219 OA
BRANCH   6   8
ATOM      8  C   UNL     1      31.550  14.640   1.524  0.00  0.00    +0.212 C 
ATOM      9  O   UNL     1      31.745  15.544   2.623  0.00  0.00    -0.218 OA
BRANCH   8  10
ATOM     10  C   UNL     1      30.970  13.285   2.083  0.00  0.00    +0.171 C 
ATOM     11  O   UNL     1      29.552  13.310   2.217  0.00  0.00    -0.343 OA
ATOM     12  C   UNL     1      28.809  12.350   2.906  0.00  0.00    +0.220 C 
ATOM     13  C   UNL     1      29.368  12.101   4.318  0.00  0.00    +0.076 C 
ATOM     14  C   UNL     1      30.864  11.779   4.173  0.00  0.00    +0.177 C 
ATOM     15  O   UNL     1      31.423  11.501   5.449  0.00  0.00    -0.221 OA
ATOM     16  C   UNL     1      31.603  12.964   3.476  0.00  0.00    +0.155 C 
BRANCH  16  17
ATOM     17  N   UNL     1      33.027  12.665   3.343  0.00  0.00    -0.202 NA
ATOM     18  C   UNL     1      34.087  13.166   4.027  0.00  0.00    +0.242 C 
ATOM     19  C   UNL     1      35.417  12.471   3.894  0.00  0.00    +0.096 C 
ATOM     20  O   UNL     1      33.939  14.161   4.733  0.00  0.00    -0.273 OA
ENDBRANCH  16  17
BRANCH  12  21
ATOM     21  C   UNL     1      28.624  10.961   2.084  0.00  0.00    +0.391 C 
ATOM     22  O   UNL     1      28.189  10.071   2.997  0.00  0.00    -0.243 OA
ATOM     23  O   UNL     1      28.678  11.289   0.787  0.00  0.00    -0.243 OA
ENDBRANCH  12  21
ENDBRANCH   8  10
ENDBRANCH   6   8
ENDBRANCH   5   6
ENDBRANCH   2   5
BRANCH   1  24
ATOM     24  O   UNL     1      28.166  16.932  -1.632  0.00  0.00    -0.450 OA
BRANCH  24  25
ATOM     25  C   UNL     1      27.447  15.807  -2.080  0.00  0.00    +0.240 C 
BRANCH  25  26
ATOM     26  C   UNL     1      26.333  16.043  -3.118  0.00  0.00    +0.100 C 
BRANCH  26  28
ATOM     27  N   UNL     1      23.880  15.705  -3.057  0.00  0.00    -0.134 NA
ATOM     28  C   UNL     1      25.139  15.241  -2.783  0.00  0.00    +0.086 A 
ATOM     29  C   UNL     1      25.046  13.987  -2.224  0.00  0.00    +0.134 A 
ATOM     30  N   UNL     1      23.707  13.718  -2.237  0.00  0.00    -0.247 N 
ATOM     31  N   UNL     1      23.010  14.760  -2.726  0.00  0.00    -0.065 NA
BRANCH  30  32
ATOM     32  C   UNL     1      23.059  12.436  -2.028  0.00  0.00    +0.180 C 
BRANCH  32  33
ATOM     33  C   UNL     1      22.691  12.176  -0.588  0.00  0.00    -0.025 A 
ATOM     34  C   UNL     1      21.406  12.471  -0.107  0.00  0.00    +0.005 A 
ATOM     35  C   UNL     1      21.044  12.145   1.203  0.00  0.00    +0.001 A 
ATOM     36  C   UNL     1      21.960  11.521   2.048  0.00  0.00    +0.015 A 
ATOM     37  C   UNL     1      23.240  11.235   1.583  0.00  0.00    +0.018 A 
ATOM     38 BR   UNL     1      24.484  10.380   2.722  0.00  0.00    -0.050 Br
ATOM     39  C   UNL     1      23.610  11.556   0.275  0.00  0.00    +0.020 A 
ENDBRANCH  32  33
ENDBRANCH  30  32
ENDBRANCH  26  28
ENDBRANCH  25  26
ENDBRANCH  24  25
ENDBRANCH   1  24
TORSDOF 12
