REMARK VINA RESULT:    -6.122      1.871      4.084
REMARK INTER + INTRA:         -13.686
REMARK INTER:                 -11.733
REMARK INTRA:                  -1.953
REMARK UNBOUND:                -1.837
REMARK  Name = lig_assembled_45.pdb
REMARK  19 active torsions:
REMARK  status: ('A' for Active; 'I' for Inactive)
REMARK    1  A    between atoms: _2  and  _9
REMARK    2  A    between atoms: _3  and  _11
REMARK    3  A    between atoms: _3  and  _12
REMARK    4  A    between atoms: _3  and  _13
REMARK    5  A    between atoms: _3  and  _15
REMARK    6  A    between atoms: _5  and  _15
REMARK    7  A    between atoms: _6  and  _7
REMARK    8  A    between atoms: _6  and  _16
REMARK    9  A    between atoms: _9  and  _10
REMARK   10  A    between atoms: _10  and  _11
REMARK   11  A    between atoms: _13  and  _14
REMARK   12  A    between atoms: _16  and  _18
REMARK   13  A    between atoms: _17  and  _22
REMARK   14  A    between atoms: _18  and  _21
REMARK   15  A    between atoms: _26  and  _36
REMARK   16  A    between atoms: _28  and  _29
REMARK   17  A    between atoms: _30  and  _32
REMARK   18  A    between atoms: _32  and  _34
REMARK   19  A    between atoms: _34  and  _36
REMARK                            x       y       z     vdW  Elec       q    Type
REMARK                         _______ _______ _______ _____ _____    ______ ____
ROOT
ATOM      1  C   UNL     1      32.028  15.217  -0.498  0.00  0.00    +0.400 C 
ATOM      2  N   UNL     1      32.138  14.544   0.696  0.00  0.00    -0.278 N 
ATOM      3  H   UNL     1      32.608  13.624   0.419  0.00  0.00    +0.152 HD
ATOM      4  O   UNL     1      32.602  14.753  -1.480  0.00  0.00    -0.226 OA
ENDROOT
BRANCH   2   5
ATOM      5  C   UNL     1      31.921  14.528   2.140  0.00  0.00    +0.152 C 
BRANCH   5   6
ATOM      6  C   UNL     1      32.804  13.556   2.950  0.00  0.00    +0.193 C 
ATOM      7  O   UNL     1      33.407  14.329   4.010  0.00  0.00    -0.219 OA
BRANCH   6   8
ATOM      8  C   UNL     1      32.101  12.388   3.676  0.00  0.00    +0.212 C 
ATOM      9  O   UNL     1      32.043  12.639   5.090  0.00  0.00    -0.218 OA
BRANCH   8  10
ATOM     10  C   UNL     1      30.640  12.115   3.152  0.00  0.00    +0.171 C 
ATOM     11  O   UNL     1      29.657  12.256   4.172  0.00  0.00    -0.343 OA
ATOM     12  C   UNL     1      28.329  11.841   4.050  0.00  0.00    +0.220 C 
ATOM     13  C   UNL     1      28.228  10.387   3.556  0.00  0.00    +0.076 C 
ATOM     14  C   UNL     1      29.062  10.277   2.269  0.00  0.00    +0.177 C 
ATOM     15  O   UNL     1      28.972   8.959   1.747  0.00  0.00    -0.221 OA
ATOM     16  C   UNL     1      30.545  10.673   2.553  0.00  0.00    +0.155 C 
BRANCH  16  17
ATOM     17  N   UNL     1      31.342  10.563   1.335  0.00  0.00    -0.202 NA
ATOM     18  C   UNL     1      31.311  11.318   0.207  0.00  0.00    +0.242 C 
ATOM     19  C   UNL     1      32.441  11.175  -0.780  0.00  0.00    +0.096 C 
ATOM     20  O   UNL     1      30.375  12.092   0.019  0.00  0.00    -0.273 OA
ENDBRANCH  16  17
BRANCH  12  21
ATOM     21  C   UNL     1      27.419  12.841   3.149  0.00  0.00    +0.391 C 
ATOM     22  O   UNL     1      26.259  12.181   2.961  0.00  0.00    -0.243 OA
ATOM     23  O   UNL     1      28.027  14.033   3.191  0.00  0.00    -0.243 OA
ENDBRANCH  12  21
ENDBRANCH   8  10
ENDBRANCH   6   8
ENDBRANCH   5   6
ENDBRANCH   2   5
BRANCH   1  24
ATOM     24  O   UNL     1      31.290  16.278  -0.476  0.00  0.00    -0.450 OA
BRANCH  24  25
ATOM     25  C   UNL     1      30.195  16.802   0.238  0.00  0.00    +0.240 C 
BRANCH  25  26
ATOM     26  C   UNL     1      29.183  17.662  -0.544  0.00  0.00    +0.100 C 
BRANCH  26  28
ATOM     27  N   UNL     1      28.325  15.435  -1.218  0.00  0.00    -0.134 NA
ATOM     28  C   UNL     1      28.256  16.800  -1.300  0.00  0.00    +0.086 A 
ATOM     29  C   UNL     1      27.237  17.148  -2.157  0.00  0.00    +0.133 A 
ATOM     30  N   UNL     1      26.734  15.947  -2.554  0.00  0.00    -0.251 N 
ATOM     31  N   UNL     1      27.385  14.922  -2.001  0.00  0.00    -0.065 NA
BRANCH  30  32
ATOM     32  C   UNL     1      25.647  15.716  -3.483  0.00  0.00    +0.150 C 
BRANCH  32  33
ATOM     33  C   UNL     1      24.276  15.797  -2.823  0.00  0.00    +0.074 C 
BRANCH  33  34
ATOM     34  C   UNL     1      23.219  14.791  -3.296  0.00  0.00    +0.134 C 
BRANCH  34  35
ATOM     35  N   UNL     1      22.767  13.676  -2.296  0.00  0.00    +0.241 N 
ATOM     36  C   UNL     1      22.416  12.409  -3.095  0.00  0.00    +0.192 C 
BRANCH  35  37
ATOM     37  C   UNL     1      21.464  14.209  -1.614  0.00  0.00    +0.129 C 
ATOM     38  C   UNL     1      20.221  13.380  -1.918  0.00  0.00    +0.060 C 
ENDBRANCH  35  37
BRANCH  35  39
ATOM     39  C   UNL     1      23.807  13.314  -1.219  0.00  0.00    +0.129 C 
ATOM     40  C   UNL     1      23.412  12.138  -0.341  0.00  0.00    +0.060 C 
ENDBRANCH  35  39
ENDBRANCH  34  35
ENDBRANCH  33  34
ENDBRANCH  32  33
ENDBRANCH  30  32
ENDBRANCH  26  28
ENDBRANCH  25  26
ENDBRANCH  24  25
ENDBRANCH   1  24
TORSDOF 16
