REMARK VINA RESULT:    -7.721      3.013      9.561
REMARK INTER + INTRA:         -14.448
REMARK INTER:                 -12.686
REMARK INTRA:                  -1.762
REMARK UNBOUND:                -1.762
REMARK  Name = lig_assembled_25.pdb
REMARK  11 active torsions:
REMARK  status: ('A' for Active; 'I' for Inactive)
REMARK    1  A    between atoms: _2  and  _8
REMARK    2  A    between atoms: _5  and  _6
REMARK    3  A    between atoms: _5  and  _20
REMARK    4  A    between atoms: _20  and  _22
REMARK    5  A    between atoms: _21  and  _26
REMARK    6  A    between atoms: _22  and  _25
REMARK    7  A    between atoms: _30  and  _40
REMARK    8  A    between atoms: _32  and  _33
REMARK    9  A    between atoms: _34  and  _36
REMARK   10  A    between atoms: _36  and  _38
REMARK   11  A    between atoms: _38  and  _40
REMARK                            x       y       z     vdW  Elec       q    Type
REMARK                         _______ _______ _______ _____ _____    ______ ____
ROOT
ATOM      1  C   UNL     1      26.833  17.131  -2.595  0.00  0.00    +0.400 C 
ATOM      2  N   UNL     1      26.479  15.832  -2.318  0.00  0.00    -0.278 N 
ATOM      3  H   UNL     1      25.618  15.674  -2.931  0.00  0.00    +0.152 HD
ATOM      4  O   UNL     1      26.267  17.700  -3.525  0.00  0.00    -0.226 OA
ENDROOT
BRANCH   1   5
ATOM      5  O   UNL     1      27.725  17.648  -1.814  0.00  0.00    -0.450 OA
BRANCH   5   6
ATOM      6  C   UNL     1      28.094  17.627  -0.455  0.00  0.00    +0.240 C 
BRANCH   6   7
ATOM      7  C   UNL     1      29.598  17.692  -0.126  0.00  0.00    +0.100 C 
BRANCH   7   9
ATOM      8  N   UNL     1      29.561  15.336  -0.867  0.00  0.00    -0.134 NA
ATOM      9  C   UNL     1      30.200  16.348  -0.202  0.00  0.00    +0.086 A 
ATOM     10  C   UNL     1      31.376  15.867   0.330  0.00  0.00    +0.134 A 
ATOM     11  N   UNL     1      31.390  14.548  -0.030  0.00  0.00    -0.240 N 
ATOM     12  N   UNL     1      30.296  14.239  -0.761  0.00  0.00    -0.065 NA
BRANCH  11  13
ATOM     13  C   UNL     1      32.325  13.493   0.327  0.00  0.00    +0.170 C 
ATOM     14  C   UNL     1      33.004  13.746   1.666  0.00  0.00    -0.011 A 
ATOM     15  C   UNL     1      34.407  13.727   1.504  0.00  0.00    -0.012 A 
ATOM     16  C   UNL     1      34.719  13.491   0.109  0.00  0.00    -0.012 A 
ATOM     17  C   UNL     1      35.941  13.354  -0.526  0.00  0.00    +0.009 A 
ATOM     18  C   UNL     1      35.951  13.096  -1.900  0.00  0.00    +0.001 A 
ATOM     19  C   UNL     1      34.752  12.983  -2.621  0.00  0.00    +0.000 A 
ATOM     20  C   UNL     1      33.516  13.121  -1.984  0.00  0.00    +0.006 A 
ATOM     21  C   UNL     1      35.242  13.912   2.595  0.00  0.00    +0.009 A 
ATOM     22  C   UNL     1      34.660  14.114   3.850  0.00  0.00    +0.001 A 
ATOM     23  C   UNL     1      33.264  14.129   4.006  0.00  0.00    +0.000 A 
ATOM     24  C   UNL     1      32.421  13.940   2.910  0.00  0.00    +0.006 A 
ATOM     25  C   UNL     1      33.512  13.378  -0.620  0.00  0.00    -0.011 A 
ENDBRANCH  11  13
ENDBRANCH   7   9
ENDBRANCH   6   7
ENDBRANCH   5   6
ENDBRANCH   1   5
BRANCH   2  26
ATOM     26  C   UNL     1      26.754  14.596  -1.590  0.00  0.00    +0.152 C 
BRANCH  26  27
ATOM     27  C   UNL     1      26.520  13.284  -2.366  0.00  0.00    +0.193 C 
ATOM     28  O   UNL     1      27.812  12.847  -2.842  0.00  0.00    -0.219 OA
BRANCH  27  29
ATOM     29  C   UNL     1      25.971  12.074  -1.577  0.00  0.00    +0.212 C 
ATOM     30  O   UNL     1      26.709  10.885  -1.904  0.00  0.00    -0.218 OA
BRANCH  29  31
ATOM     31  C   UNL     1      26.012  12.278  -0.014  0.00  0.00    +0.171 C 
ATOM     32  O   UNL     1      27.247  11.863   0.561  0.00  0.00    -0.343 OA
ATOM     33  C   UNL     1      27.464  11.705   1.931  0.00  0.00    +0.220 C 
ATOM     34  C   UNL     1      26.374  10.839   2.586  0.00  0.00    +0.076 C 
ATOM     35  C   UNL     1      25.013  11.448   2.213  0.00  0.00    +0.177 C 
ATOM     36  O   UNL     1      23.968  10.705   2.827  0.00  0.00    -0.221 OA
ATOM     37  C   UNL     1      24.847  11.483   0.661  0.00  0.00    +0.155 C 
BRANCH  37  38
ATOM     38  N   UNL     1      23.551  12.054   0.303  0.00  0.00    -0.202 NA
ATOM     39  C   UNL     1      22.400  11.434  -0.062  0.00  0.00    +0.242 C 
ATOM     40  C   UNL     1      21.130  12.244  -0.092  0.00  0.00    +0.096 C 
ATOM     41  O   UNL     1      22.420  10.241  -0.355  0.00  0.00    -0.273 OA
ENDBRANCH  37  38
BRANCH  33  42
ATOM     42  C   UNL     1      27.663  13.111   2.721  0.00  0.00    +0.391 C 
ATOM     43  O   UNL     1      27.594  12.788   4.028  0.00  0.00    -0.243 OA
ATOM     44  O   UNL     1      28.114  13.985   1.813  0.00  0.00    -0.243 OA
ENDBRANCH  33  42
ENDBRANCH  29  31
ENDBRANCH  27  29
ENDBRANCH  26  27
ENDBRANCH   2  26
TORSDOF 11
