REMARK VINA RESULT:    -6.863      2.363      4.027
REMARK INTER + INTRA:         -13.510
REMARK INTER:                 -11.435
REMARK INTRA:                  -2.075
REMARK UNBOUND:                -1.431
REMARK  Name = lig_assembled_36.pdb
REMARK  13 active torsions:
REMARK  status: ('A' for Active; 'I' for Inactive)
REMARK    1  A    between atoms: _2  and  _9
REMARK    2  A    between atoms: _6  and  _7
REMARK    3  A    between atoms: _6  and  _16
REMARK    4  A    between atoms: _9  and  _10
REMARK    5  A    between atoms: _13  and  _14
REMARK    6  A    between atoms: _16  and  _18
REMARK    7  A    between atoms: _17  and  _22
REMARK    8  A    between atoms: _18  and  _21
REMARK    9  A    between atoms: _26  and  _36
REMARK   10  A    between atoms: _28  and  _29
REMARK   11  A    between atoms: _30  and  _32
REMARK   12  A    between atoms: _32  and  _34
REMARK   13  A    between atoms: _34  and  _36
REMARK                            x       y       z     vdW  Elec       q    Type
REMARK                         _______ _______ _______ _____ _____    ______ ____
ROOT
ATOM      1  C   UNL     1      26.141  12.580  -2.839  0.00  0.00    +0.400 C 
ATOM      2  N   UNL     1      26.484  11.752  -1.797  0.00  0.00    -0.278 N 
ATOM      3  H   UNL     1      26.062  10.811  -2.079  0.00  0.00    +0.152 HD
ATOM      4  O   UNL     1      25.648  12.073  -3.844  0.00  0.00    -0.226 OA
ENDROOT
BRANCH   1   5
ATOM      5  O   UNL     1      26.345  13.841  -2.643  0.00  0.00    -0.450 OA
BRANCH   5   6
ATOM      6  C   UNL     1      25.612  15.040  -2.548  0.00  0.00    +0.240 C 
BRANCH   6   7
ATOM      7  C   UNL     1      24.666  15.389  -3.712  0.00  0.00    +0.100 C 
BRANCH   7   9
ATOM      8  N   UNL     1      22.375  14.721  -4.376  0.00  0.00    -0.134 NA
ATOM      9  C   UNL     1      23.285  14.988  -3.387  0.00  0.00    +0.086 A 
ATOM     10  C   UNL     1      22.689  14.793  -2.161  0.00  0.00    +0.134 A 
ATOM     11  N   UNL     1      21.451  14.317  -2.474  0.00  0.00    -0.247 N 
ATOM     12  N   UNL     1      21.245  14.328  -3.804  0.00  0.00    -0.065 NA
BRANCH  11  13
ATOM     13  C   UNL     1      20.430  13.822  -1.572  0.00  0.00    +0.180 C 
BRANCH  13  14
ATOM     14  C   UNL     1      20.943  12.668  -0.742  0.00  0.00    -0.026 A 
ATOM     15  C   UNL     1      21.010  12.760   0.656  0.00  0.00    +0.007 A 
ATOM     16  C   UNL     1      21.482  11.685   1.417  0.00  0.00    +0.019 A 
ATOM     17  C   UNL     1      21.897  10.507   0.789  0.00  0.00    +0.052 A 
ATOM     18  C   UNL     1      21.856  10.416  -0.604  0.00  0.00    +0.019 A 
ATOM     19  C   UNL     1      21.387  11.490  -1.365  0.00  0.00    +0.007 A 
BRANCH  17  20
ATOM     20  C   UNL     1      22.360   9.397   1.573  0.00  0.00    +0.099 C 
ATOM     21  N   UNL     1      22.746   8.503   2.204  0.00  0.00    -0.191 NA
ENDBRANCH  17  20
ENDBRANCH  13  14
ENDBRANCH  11  13
ENDBRANCH   7   9
ENDBRANCH   6   7
ENDBRANCH   5   6
ENDBRANCH   1   5
BRANCH   2  22
ATOM     22  C   UNL     1      27.163  11.581  -0.515  0.00  0.00    +0.152 C 
BRANCH  22  23
ATOM     23  C   UNL     1      26.695  12.502   0.630  0.00  0.00    +0.193 C 
ATOM     24  O   UNL     1      26.566  11.670   1.805  0.00  0.00    -0.219 OA
BRANCH  23  25
ATOM     25  C   UNL     1      27.643  13.640   1.066  0.00  0.00    +0.212 C 
ATOM     26  O   UNL     1      27.858  13.598   2.486  0.00  0.00    -0.218 OA
BRANCH  25  27
ATOM     27  C   UNL     1      29.043  13.598   0.343  0.00  0.00    +0.171 C 
ATOM     28  O   UNL     1      30.013  12.851   1.070  0.00  0.00    -0.343 OA
ATOM     29  C   UNL     1      31.381  12.852   0.790  0.00  0.00    +0.220 C 
ATOM     30  C   UNL     1      31.939  14.282   0.676  0.00  0.00    +0.076 C 
ATOM     31  C   UNL     1      31.069  15.038  -0.342  0.00  0.00    +0.177 C 
ATOM     32  O   UNL     1      31.566  16.357  -0.515  0.00  0.00    -0.221 OA
ATOM     33  C   UNL     1      29.581  15.051   0.128  0.00  0.00    +0.155 C 
BRANCH  33  34
ATOM     34  N   UNL     1      28.752  15.774  -0.833  0.00  0.00    -0.202 NA
ATOM     35  C   UNL     1      28.351  17.071  -0.831  0.00  0.00    +0.242 C 
ATOM     36  C   UNL     1      27.748  17.636  -2.090  0.00  0.00    +0.096 C 
ATOM     37  O   UNL     1      28.490  17.747   0.186  0.00  0.00    -0.273 OA
ENDBRANCH  33  34
BRANCH  29  38
ATOM     38  C   UNL     1      31.778  11.952  -0.503  0.00  0.00    +0.391 C 
ATOM     39  O   UNL     1      33.041  12.313  -0.803  0.00  0.00    -0.243 OA
ATOM     40  O   UNL     1      30.841  11.000  -0.592  0.00  0.00    -0.243 OA
ENDBRANCH  29  38
ENDBRANCH  25  27
ENDBRANCH  23  25
ENDBRANCH  22  23
ENDBRANCH   2  22
TORSDOF 13
