REMARK VINA RESULT:    -7.019      1.968      3.200
REMARK INTER + INTRA:         -13.724
REMARK INTER:                 -12.227
REMARK INTRA:                  -1.496
REMARK UNBOUND:                -2.191
REMARK  Name = lig_assembled_93.pdb
REMARK  11 active torsions:
REMARK  status: ('A' for Active; 'I' for Inactive)
REMARK    1  A    between atoms: _2  and  _8
REMARK    2  A    between atoms: _5  and  _6
REMARK    3  A    between atoms: _5  and  _13
REMARK    4  A    between atoms: _13  and  _15
REMARK    5  A    between atoms: _14  and  _19
REMARK    6  A    between atoms: _15  and  _18
REMARK    7  A    between atoms: _23  and  _33
REMARK    8  A    between atoms: _25  and  _26
REMARK    9  A    between atoms: _27  and  _29
REMARK   10  A    between atoms: _29  and  _31
REMARK   11  A    between atoms: _31  and  _33
REMARK                            x       y       z     vdW  Elec       q    Type
REMARK                         _______ _______ _______ _____ _____    ______ ____
ROOT
ATOM      1  C   UNL     1      27.882  17.406  -0.787  0.00  0.00    +0.400 C 
ATOM      2  N   UNL     1      28.634  16.467  -0.121  0.00  0.00    -0.278 N 
ATOM      3  H   UNL     1      28.851  16.940   0.812  0.00  0.00    +0.152 HD
ATOM      4  O   UNL     1      27.501  18.392  -0.162  0.00  0.00    -0.226 OA
ENDROOT
BRANCH   1   5
ATOM      5  O   UNL     1      27.670  17.168  -2.040  0.00  0.00    -0.450 OA
BRANCH   5   6
ATOM      6  C   UNL     1      26.729  17.475  -3.041  0.00  0.00    +0.240 C 
BRANCH   6   7
ATOM      7  C   UNL     1      26.509  16.433  -4.155  0.00  0.00    +0.100 C 
BRANCH   7   9
ATOM      8  N   UNL     1      24.808  14.747  -4.747  0.00  0.00    -0.134 NA
ATOM      9  C   UNL     1      25.381  15.549  -3.812  0.00  0.00    +0.086 A 
ATOM     10  C   UNL     1      24.738  15.358  -2.609  0.00  0.00    +0.139 A 
ATOM     11  N   UNL     1      23.769  14.398  -2.853  0.00  0.00    -0.219 N 
ATOM     12  N   UNL     1      23.837  14.064  -4.161  0.00  0.00    -0.061 NA
BRANCH  11  13
ATOM     13  C   UNL     1      22.847  13.818  -1.926  0.00  0.00    +0.080 A 
ATOM     14  C   UNL     1      21.516  14.299  -1.940  0.00  0.00    +0.029 A 
ATOM     15  C   UNL     1      20.547  13.809  -1.059  0.00  0.00    +0.002 A 
ATOM     16  C   UNL     1      20.879  12.827  -0.142  0.00  0.00    +0.001 A 
ATOM     17  C   UNL     1      22.180  12.331  -0.110  0.00  0.00    +0.016 A 
ATOM     18  C   UNL     1      23.171  12.812  -0.992  0.00  0.00    +0.039 A 
ATOM     19  I   UNL     1      25.039  11.860  -0.701  0.00  0.00    -0.042 I 
ENDBRANCH  11  13
ENDBRANCH   7   9
ENDBRANCH   6   7
ENDBRANCH   5   6
ENDBRANCH   1   5
BRANCH   2  20
ATOM     20  C   UNL     1      29.243  15.139  -0.112  0.00  0.00    +0.152 C 
BRANCH  20  21
ATOM     21  C   UNL     1      30.758  15.089   0.174  0.00  0.00    +0.193 C 
ATOM     22  O   UNL     1      30.989  15.917   1.335  0.00  0.00    -0.219 OA
BRANCH  21  23
ATOM     23  C   UNL     1      31.370  13.721   0.549  0.00  0.00    +0.212 C 
ATOM     24  O   UNL     1      32.523  13.448  -0.263  0.00  0.00    -0.218 OA
BRANCH  23  25
ATOM     25  C   UNL     1      31.785  13.617   2.066  0.00  0.00    +0.171 C 
ATOM     26  O   UNL     1      33.173  13.351   2.236  0.00  0.00    -0.343 OA
ATOM     27  C   UNL     1      33.760  12.972   3.446  0.00  0.00    +0.220 C 
ATOM     28  C   UNL     1      33.015  11.795   4.099  0.00  0.00    +0.076 C 
ATOM     29  C   UNL     1      31.530  12.183   4.193  0.00  0.00    +0.177 C 
ATOM     30  O   UNL     1      30.799  11.143   4.827  0.00  0.00    -0.221 OA
ATOM     31  C   UNL     1      30.963  12.489   2.772  0.00  0.00    +0.155 C 
BRANCH  31  32
ATOM     32  N   UNL     1      29.550  12.852   2.856  0.00  0.00    -0.202 NA
ATOM     33  C   UNL     1      28.470  12.273   2.274  0.00  0.00    +0.242 C 
ATOM     34  C   UNL     1      27.099  12.664   2.762  0.00  0.00    +0.096 C 
ATOM     35  O   UNL     1      28.631  11.452   1.374  0.00  0.00    -0.273 OA
ENDBRANCH  31  32
BRANCH  27  36
ATOM     36  C   UNL     1      33.953  14.206   4.485  0.00  0.00    +0.391 C 
ATOM     37  O   UNL     1      33.730  15.315   3.754  0.00  0.00    -0.243 OA
ATOM     38  O   UNL     1      33.960  13.662   5.709  0.00  0.00    -0.243 OA
ENDBRANCH  27  36
ENDBRANCH  23  25
ENDBRANCH  21  23
ENDBRANCH  20  21
ENDBRANCH   2  20
TORSDOF 11
