REMARK VINA RESULT:    -6.892      2.086      3.792
REMARK INTER + INTRA:         -15.215
REMARK INTER:                 -13.573
REMARK INTRA:                  -1.643
REMARK UNBOUND:                -1.675
REMARK  Name = lig_assembled_33.pdb
REMARK  17 active torsions:
REMARK  status: ('A' for Active; 'I' for Inactive)
REMARK    1  A    between atoms: _2  and  _8
REMARK    2  A    between atoms: _4  and  _12
REMARK    3  A    between atoms: _4  and  _13
REMARK    4  A    between atoms: _5  and  _6
REMARK    5  A    between atoms: _5  and  _15
REMARK    6  A    between atoms: _8  and  _9
REMARK    7  A    between atoms: _9  and  _10
REMARK    8  A    between atoms: _10  and  _11
REMARK    9  A    between atoms: _11  and  _12
REMARK   10  A    between atoms: _15  and  _17
REMARK   11  A    between atoms: _16  and  _21
REMARK   12  A    between atoms: _17  and  _20
REMARK   13  A    between atoms: _25  and  _35
REMARK   14  A    between atoms: _27  and  _28
REMARK   15  A    between atoms: _29  and  _31
REMARK   16  A    between atoms: _31  and  _33
REMARK   17  A    between atoms: _33  and  _35
REMARK                            x       y       z     vdW  Elec       q    Type
REMARK                         _______ _______ _______ _____ _____    ______ ____
ROOT
ATOM      1  C   UNL     1      28.113  17.129  -0.775  0.00  0.00    +0.400 C 
ATOM      2  N   UNL     1      28.531  16.179   0.128  0.00  0.00    -0.278 N 
ATOM      3  H   UNL     1      28.952  16.760   0.920  0.00  0.00    +0.152 HD
ATOM      4  O   UNL     1      28.135  18.307  -0.428  0.00  0.00    -0.226 OA
ENDROOT
BRANCH   1   5
ATOM      5  O   UNL     1      27.760  16.681  -1.935  0.00  0.00    -0.450 OA
BRANCH   5   6
ATOM      6  C   UNL     1      26.904  17.028  -2.998  0.00  0.00    +0.240 C 
BRANCH   6   7
ATOM      7  C   UNL     1      26.336  15.881  -3.856  0.00  0.00    +0.100 C 
BRANCH   7   9
ATOM      8  N   UNL     1      23.904  15.906  -3.409  0.00  0.00    -0.134 NA
ATOM      9  C   UNL     1      25.127  15.317  -3.228  0.00  0.00    +0.086 A 
ATOM     10  C   UNL     1      24.980  14.214  -2.416  0.00  0.00    +0.133 A 
ATOM     11  N   UNL     1      23.646  14.183  -2.145  0.00  0.00    -0.251 N 
ATOM     12  N   UNL     1      23.004  15.210  -2.728  0.00  0.00    -0.065 NA
BRANCH  11  13
ATOM     13  C   UNL     1      22.916  13.227  -1.338  0.00  0.00    +0.145 C 
BRANCH  13  14
ATOM     14  C   UNL     1      21.415  13.510  -1.330  0.00  0.00    +0.023 C 
BRANCH  14  15
ATOM     15  C   UNL     1      20.733  13.039  -0.043  0.00  0.00    +0.002 C 
BRANCH  15  16
ATOM     16  C   UNL     1      21.446  11.797   0.498  0.00  0.00    +0.011 C 
BRANCH  16  17
ATOM     17  C   UNL     1      21.538  11.784   2.022  0.00  0.00    +0.120 C 
BRANCH  17  18
ATOM     18  C   UNL     1      22.266  10.554   2.517  0.00  0.00    +0.305 C 
ATOM     19  O   UNL     1      21.847   9.409   2.449  0.00  0.00    -0.251 OA
BRANCH  18  20
ATOM     20  O   UNL     1      23.471  10.850   3.057  0.00  0.00    -0.481 OA
ATOM     21  H   UNL     1      23.830  11.710   2.773  0.00  0.00    +0.295 HD
ENDBRANCH  18  20
ENDBRANCH  17  18
ENDBRANCH  16  17
ENDBRANCH  15  16
ENDBRANCH  14  15
ENDBRANCH  13  14
ENDBRANCH  11  13
ENDBRANCH   7   9
ENDBRANCH   6   7
ENDBRANCH   5   6
ENDBRANCH   1   5
BRANCH   2  22
ATOM     22  C   UNL     1      28.641  14.768   0.487  0.00  0.00    +0.152 C 
BRANCH  22  23
ATOM     23  C   UNL     1      29.993  14.092   0.178  0.00  0.00    +0.193 C 
ATOM     24  O   UNL     1      30.084  13.985  -1.260  0.00  0.00    -0.219 OA
BRANCH  23  25
ATOM     25  C   UNL     1      31.278  14.841   0.592  0.00  0.00    +0.212 C 
ATOM     26  O   UNL     1      30.962  15.935   1.468  0.00  0.00    -0.218 OA
BRANCH  25  27
ATOM     27  C   UNL     1      32.338  13.916   1.305  0.00  0.00    +0.171 C 
ATOM     28  O   UNL     1      32.699  14.392   2.597  0.00  0.00    -0.343 OA
ATOM     29  C   UNL     1      33.781  13.912   3.340  0.00  0.00    +0.220 C 
ATOM     30  C   UNL     1      35.077  13.892   2.512  0.00  0.00    +0.076 C 
ATOM     31  C   UNL     1      34.787  13.117   1.216  0.00  0.00    +0.177 C 
ATOM     32  O   UNL     1      35.967  13.034   0.430  0.00  0.00    -0.221 OA
ATOM     33  C   UNL     1      33.628  13.802   0.428  0.00  0.00    +0.155 C 
BRANCH  33  34
ATOM     34  N   UNL     1      33.353  13.073  -0.807  0.00  0.00    -0.202 NA
ATOM     35  C   UNL     1      33.396  13.500  -2.095  0.00  0.00    +0.242 C 
ATOM     36  C   UNL     1      33.356  12.468  -3.192  0.00  0.00    +0.096 C 
ATOM     37  O   UNL     1      33.466  14.704  -2.334  0.00  0.00    -0.273 OA
ENDBRANCH  33  34
BRANCH  29  38
ATOM     38  C   UNL     1      33.497  12.474   4.040  0.00  0.00    +0.391 C 
ATOM     39  O   UNL     1      34.691  12.082   4.525  0.00  0.00    -0.243 OA
ATOM     40  O   UNL     1      32.166  12.365   4.137  0.00  0.00    -0.243 OA
ENDBRANCH  29  38
ENDBRANCH  25  27
ENDBRANCH  23  25
ENDBRANCH  22  23
ENDBRANCH   2  22
TORSDOF 17
