REMARK VINA RESULT:    -6.731      1.958      2.911
REMARK INTER + INTRA:         -15.804
REMARK INTER:                 -13.665
REMARK INTRA:                  -2.139
REMARK UNBOUND:                -2.580
REMARK  Name = lig_assembled_90.pdb
REMARK  17 active torsions:
REMARK  status: ('A' for Active; 'I' for Inactive)
REMARK    1  A    between atoms: _2  and  _12
REMARK    2  A    between atoms: _3  and  _14
REMARK    3  A    between atoms: _4  and  _16
REMARK    4  A    between atoms: _9  and  _10
REMARK    5  A    between atoms: _9  and  _23
REMARK    6  A    between atoms: _12  and  _13
REMARK    7  A    between atoms: _14  and  _15
REMARK    8  A    between atoms: _15  and  _16
REMARK    9  A    between atoms: _15  and  _21
REMARK   10  A    between atoms: _23  and  _25
REMARK   11  A    between atoms: _24  and  _29
REMARK   12  A    between atoms: _25  and  _28
REMARK   13  A    between atoms: _33  and  _43
REMARK   14  A    between atoms: _35  and  _36
REMARK   15  A    between atoms: _37  and  _39
REMARK   16  A    between atoms: _39  and  _41
REMARK   17  A    between atoms: _41  and  _43
REMARK                            x       y       z     vdW  Elec       q    Type
REMARK                         _______ _______ _______ _____ _____    ______ ____
ROOT
ATOM      1  C   UNL     1      29.146  15.581  -0.110  0.00  0.00    +0.240 C 
ENDROOT
BRANCH   1   2
ATOM      2  O   UNL     1      28.597  16.398  -1.118  0.00  0.00    -0.450 OA
BRANCH   2   3
ATOM      3  C   UNL     1      27.748  17.365  -1.242  0.00  0.00    +0.400 C 
ATOM      4  N   UNL     1      26.691  17.124  -2.088  0.00  0.00    -0.278 N 
ATOM      5  H   UNL     1      26.030  17.942  -1.896  0.00  0.00    +0.152 HD
ATOM      6  O   UNL     1      27.789  18.445  -0.658  0.00  0.00    -0.226 OA
BRANCH   4   7
ATOM      7  C   UNL     1      26.088  16.281  -3.117  0.00  0.00    +0.152 C 
BRANCH   7   8
ATOM      8  C   UNL     1      25.165  15.151  -2.615  0.00  0.00    +0.193 C 
ATOM      9  O   UNL     1      24.170  14.941  -3.641  0.00  0.00    -0.219 OA
BRANCH   8  10
ATOM     10  C   UNL     1      25.795  13.758  -2.397  0.00  0.00    +0.212 C 
ATOM     11  O   UNL     1      27.204  13.795  -2.676  0.00  0.00    -0.218 OA
BRANCH  10  12
ATOM     12  C   UNL     1      25.585  13.199  -0.938  0.00  0.00    +0.171 C 
ATOM     13  O   UNL     1      26.664  12.377  -0.506  0.00  0.00    -0.343 OA
ATOM     14  C   UNL     1      26.630  11.565   0.631  0.00  0.00    +0.220 C 
ATOM     15  C   UNL     1      25.375  10.675   0.659  0.00  0.00    +0.076 C 
ATOM     16  C   UNL     1      24.154  11.593   0.483  0.00  0.00    +0.177 C 
ATOM     17  O   UNL     1      22.961  10.823   0.542  0.00  0.00    -0.221 OA
ATOM     18  C   UNL     1      24.259  12.374  -0.864  0.00  0.00    +0.155 C 
BRANCH  18  19
ATOM     19  N   UNL     1      23.097  13.241  -1.039  0.00  0.00    -0.202 NA
ATOM     20  C   UNL     1      21.936  13.013  -1.705  0.00  0.00    +0.242 C 
ATOM     21  C   UNL     1      20.785  13.960  -1.481  0.00  0.00    +0.096 C 
ATOM     22  O   UNL     1      21.850  12.051  -2.465  0.00  0.00    -0.273 OA
ENDBRANCH  18  19
BRANCH  14  23
ATOM     23  C   UNL     1      26.810  12.389   2.020  0.00  0.00    +0.391 C 
ATOM     24  O   UNL     1      27.500  13.495   1.681  0.00  0.00    -0.243 OA
ATOM     25  O   UNL     1      25.968  11.826   2.895  0.00  0.00    -0.243 OA
ENDBRANCH  14  23
ENDBRANCH  10  12
ENDBRANCH   8  10
ENDBRANCH   7   8
ENDBRANCH   4   7
ENDBRANCH   2   3
ENDBRANCH   1   2
BRANCH   1  26
ATOM     26  C   UNL     1      30.161  14.506  -0.541  0.00  0.00    +0.100 C 
BRANCH  26  28
ATOM     27  N   UNL     1      30.748  14.263   1.856  0.00  0.00    -0.134 NA
ATOM     28  C   UNL     1      31.132  14.251   0.540  0.00  0.00    +0.086 A 
ATOM     29  C   UNL     1      32.480  13.980   0.468  0.00  0.00    +0.134 A 
ATOM     30  N   UNL     1      32.852  13.816   1.769  0.00  0.00    -0.243 N 
ATOM     31  N   UNL     1      31.815  14.005   2.602  0.00  0.00    -0.065 NA
BRANCH  30  32
ATOM     32  C   UNL     1      34.177  13.588   2.297  0.00  0.00    +0.240 C 
BRANCH  32  33
ATOM     33  C   UNL     1      34.176  13.606   3.809  0.00  0.00    +0.235 C 
ATOM     34  O   UNL     1      34.659  14.530   4.461  0.00  0.00    -0.274 OA
ATOM     35  N   UNL     1      33.543  12.534   4.410  0.00  0.00    -0.311 N 
ATOM     36  H   UNL     1      33.409  11.683   3.870  0.00  0.00    +0.149 HD
BRANCH  35  37
ATOM     37  C   UNL     1      33.548  12.392   5.859  0.00  0.00    +0.137 C 
BRANCH  37  38
ATOM     38  C   UNL     1      32.123  12.463   6.428  0.00  0.00    +0.151 C 
BRANCH  38  39
ATOM     39  O   UNL     1      31.192  12.250   5.360  0.00  0.00    -0.388 OA
ATOM     40  H   UNL     1      31.138  11.291   5.172  0.00  0.00    +0.210 HD
ENDBRANCH  38  39
BRANCH  38  41
ATOM     41  C   UNL     1      31.913  11.449   7.560  0.00  0.00    +0.162 C 
BRANCH  41  42
ATOM     42  N   UNL     1      31.828  12.082   8.868  0.00  0.00    -0.269 N 
ATOM     43  C   UNL     1      32.932  12.548   9.549  0.00  0.00    +0.113 A 
ATOM     44  C   UNL     1      32.457  13.030  10.745  0.00  0.00    +0.137 A 
ATOM     45  N   UNL     1      31.098  12.874  10.822  0.00  0.00    -0.172 NA
ATOM     46  C   UNL     1      30.743  12.314   9.677  0.00  0.00    +0.450 A 
ATOM     47  N   UNL     1      29.371  11.993   9.366  0.00  0.00    +0.120 N 
ATOM     48  O   UNL     1      29.122  11.571   8.229  0.00  0.00    +0.045 OA
ATOM     49  O   UNL     1      28.534  12.152  10.264  0.00  0.00    -0.573 OA
ENDBRANCH  41  42
ENDBRANCH  38  41
ENDBRANCH  37  38
ENDBRANCH  35  37
ENDBRANCH  32  33
ENDBRANCH  30  32
ENDBRANCH  26  28
ENDBRANCH   1  26
TORSDOF 17
