REMARK VINA RESULT:    -5.332      2.708      3.354
REMARK INTER + INTRA:         -11.740
REMARK INTER:                 -10.195
REMARK INTRA:                  -1.544
REMARK UNBOUND:                -2.511
REMARK  Name = lig_assembled_1.pdb
REMARK  13 active torsions:
REMARK  status: ('A' for Active; 'I' for Inactive)
REMARK    1  A    between atoms: _2  and  _8
REMARK    2  A    between atoms: _4  and  _8
REMARK    3  A    between atoms: _4  and  _9
REMARK    4  A    between atoms: _5  and  _6
REMARK    5  A    between atoms: _5  and  _10
REMARK    6  A    between atoms: _10  and  _12
REMARK    7  A    between atoms: _11  and  _16
REMARK    8  A    between atoms: _12  and  _15
REMARK    9  A    between atoms: _20  and  _30
REMARK   10  A    between atoms: _22  and  _23
REMARK   11  A    between atoms: _24  and  _26
REMARK   12  A    between atoms: _26  and  _28
REMARK   13  A    between atoms: _28  and  _30
REMARK                            x       y       z     vdW  Elec       q    Type
REMARK                         _______ _______ _______ _____ _____    ______ ____
ROOT
ATOM      1  C   UNL     1      30.770  15.609   0.206  0.00  0.00    +0.193 C 
ATOM      2  O   UNL     1      31.834  15.633  -0.771  0.00  0.00    -0.219 OA
ENDROOT
BRANCH   1   3
ATOM      3  C   UNL     1      31.298  14.685   1.327  0.00  0.00    +0.212 C 
ATOM      4  O   UNL     1      31.597  15.448   2.507  0.00  0.00    -0.218 OA
BRANCH   3   5
ATOM      5  C   UNL     1      30.292  13.534   1.712  0.00  0.00    +0.171 C 
ATOM      6  O   UNL     1      30.070  13.448   3.116  0.00  0.00    -0.343 OA
ATOM      7  C   UNL     1      29.427  12.381   3.748  0.00  0.00    +0.220 C 
ATOM      8  C   UNL     1      30.018  11.025   3.323  0.00  0.00    +0.076 C 
ATOM      9  C   UNL     1      29.998  10.974   1.786  0.00  0.00    +0.177 C 
ATOM     10  O   UNL     1      30.498   9.722   1.340  0.00  0.00    -0.221 OA
ATOM     11  C   UNL     1      30.828  12.158   1.198  0.00  0.00    +0.155 C 
BRANCH  11  12
ATOM     12  N   UNL     1      30.818  12.109  -0.261  0.00  0.00    -0.202 NA
ATOM     13  C   UNL     1      31.855  12.048  -1.135  0.00  0.00    +0.242 C 
ATOM     14  C   UNL     1      31.561  11.709  -2.573  0.00  0.00    +0.096 C 
ATOM     15  O   UNL     1      32.998  12.266  -0.737  0.00  0.00    -0.273 OA
ENDBRANCH  11  12
BRANCH   7  16
ATOM     16  C   UNL     1      27.811  12.408   3.579  0.00  0.00    +0.391 C 
ATOM     17  O   UNL     1      27.421  11.133   3.769  0.00  0.00    -0.243 OA
ATOM     18  O   UNL     1      27.457  13.698   3.617  0.00  0.00    -0.243 OA
ENDBRANCH   7  16
ENDBRANCH   3   5
ENDBRANCH   1   3
BRANCH   1  19
ATOM     19  C   UNL     1      30.471  17.077   0.573  0.00  0.00    +0.152 C 
BRANCH  19  21
ATOM     20  C   UNL     1      28.246  17.542  -0.936  0.00  0.00    +0.400 C 
ATOM     21  N   UNL     1      29.327  17.687  -0.099  0.00  0.00    -0.278 N 
ATOM     22  H   UNL     1      29.285  18.717   0.183  0.00  0.00    +0.152 HD
ATOM     23  O   UNL     1      27.446  18.471  -1.016  0.00  0.00    -0.226 OA
BRANCH  20  24
ATOM     24  O   UNL     1      28.194  16.431  -1.596  0.00  0.00    -0.450 OA
BRANCH  24  25
ATOM     25  C   UNL     1      27.247  15.464  -1.985  0.00  0.00    +0.240 C 
BRANCH  25  26
ATOM     26  C   UNL     1      26.311  15.816  -3.156  0.00  0.00    +0.100 C 
BRANCH  26  28
ATOM     27  N   UNL     1      24.803  13.920  -3.669  0.00  0.00    -0.134 NA
ATOM     28  C   UNL     1      25.026  15.105  -3.020  0.00  0.00    +0.086 A 
ATOM     29  C   UNL     1      23.905  15.439  -2.295  0.00  0.00    +0.133 A 
ATOM     30  N   UNL     1      23.034  14.423  -2.550  0.00  0.00    -0.249 N 
ATOM     31  N   UNL     1      23.574  13.514  -3.379  0.00  0.00    -0.065 NA
BRANCH  30  32
ATOM     32  C   UNL     1      21.693  14.249  -2.040  0.00  0.00    +0.173 C 
BRANCH  32  33
ATOM     33  C   UNL     1      21.597  13.132  -1.008  0.00  0.00    +0.179 C 
BRANCH  33  34
ATOM     34  O   UNL     1      22.888  12.622  -0.680  0.00  0.00    -0.393 OA
ATOM     35  H   UNL     1      22.761  11.964   0.030  0.00  0.00    +0.209 HD
ENDBRANCH  33  34
ENDBRANCH  32  33
ENDBRANCH  30  32
ENDBRANCH  26  28
ENDBRANCH  25  26
ENDBRANCH  24  25
ENDBRANCH  20  24
ENDBRANCH  19  21
ENDBRANCH   1  19
TORSDOF 13
