REMARK VINA RESULT:    -5.707      3.049      7.834
REMARK INTER + INTRA:         -12.330
REMARK INTER:                 -10.184
REMARK INTRA:                  -2.146
REMARK UNBOUND:                -1.953
REMARK  Name = lig_assembled_13.pdb
REMARK  15 active torsions:
REMARK  status: ('A' for Active; 'I' for Inactive)
REMARK    1  A    between atoms: _2  and  _8
REMARK    2  A    between atoms: _4  and  _10
REMARK    3  A    between atoms: _5  and  _6
REMARK    4  A    between atoms: _5  and  _13
REMARK    5  A    between atoms: _8  and  _9
REMARK    6  A    between atoms: _9  and  _11
REMARK    7  A    between atoms: _10  and  _11
REMARK    8  A    between atoms: _13  and  _15
REMARK    9  A    between atoms: _14  and  _19
REMARK   10  A    between atoms: _15  and  _18
REMARK   11  A    between atoms: _23  and  _33
REMARK   12  A    between atoms: _25  and  _26
REMARK   13  A    between atoms: _27  and  _29
REMARK   14  A    between atoms: _29  and  _31
REMARK   15  A    between atoms: _31  and  _33
REMARK                            x       y       z     vdW  Elec       q    Type
REMARK                         _______ _______ _______ _____ _____    ______ ____
ROOT
ATOM      1  C   UNL     1      27.020  15.683  -2.295  0.00  0.00    +0.152 C 
ENDROOT
BRANCH   1   3
ATOM      2  C   UNL     1      28.768  16.939  -0.619  0.00  0.00    +0.400 C 
ATOM      3  N   UNL     1      27.657  16.601  -1.354  0.00  0.00    -0.278 N 
ATOM      4  H   UNL     1      26.964  17.382  -1.128  0.00  0.00    +0.152 HD
ATOM      5  O   UNL     1      28.791  18.041  -0.076  0.00  0.00    -0.226 OA
BRANCH   2   6
ATOM      6  O   UNL     1      29.686  16.032  -0.543  0.00  0.00    -0.450 OA
BRANCH   6   7
ATOM      7  C   UNL     1      30.604  15.517   0.394  0.00  0.00    +0.240 C 
BRANCH   7   8
ATOM      8  C   UNL     1      30.649  13.988   0.578  0.00  0.00    +0.100 C 
BRANCH   8  10
ATOM      9  N   UNL     1      28.554  13.956   1.894  0.00  0.00    -0.134 NA
ATOM     10  C   UNL     1      29.300  13.465   0.859  0.00  0.00    +0.086 A 
ATOM     11  C   UNL     1      28.590  12.477   0.220  0.00  0.00    +0.134 A 
ATOM     12  N   UNL     1      27.446  12.368   0.955  0.00  0.00    -0.241 N 
ATOM     13  N   UNL     1      27.407  13.289   1.931  0.00  0.00    -0.065 NA
BRANCH  12  14
ATOM     14  C   UNL     1      26.316  11.493   0.732  0.00  0.00    +0.265 C 
BRANCH  14  15
ATOM     15  C   UNL     1      25.202  12.188   0.001  0.00  0.00    +0.329 C 
ATOM     16  O   UNL     1      25.321  12.981  -0.920  0.00  0.00    -0.249 OA
BRANCH  15  17
ATOM     17  O   UNL     1      24.015  11.874   0.603  0.00  0.00    -0.464 OA
BRANCH  17  18
ATOM     18  C   UNL     1      22.846  12.186  -0.171  0.00  0.00    +0.229 C 
ATOM     19  C   UNL     1      21.744  11.226   0.246  0.00  0.00    +0.048 C 
ENDBRANCH  17  18
ENDBRANCH  15  17
ENDBRANCH  14  15
ENDBRANCH  12  14
ENDBRANCH   8  10
ENDBRANCH   7   8
ENDBRANCH   6   7
ENDBRANCH   2   6
ENDBRANCH   1   3
BRANCH   1  20
ATOM     20  C   UNL     1      25.960  16.298  -3.232  0.00  0.00    +0.193 C 
ATOM     21  O   UNL     1      26.569  17.455  -3.846  0.00  0.00    -0.219 OA
BRANCH  20  22
ATOM     22  C   UNL     1      25.474  15.442  -4.422  0.00  0.00    +0.212 C 
ATOM     23  O   UNL     1      26.313  15.654  -5.569  0.00  0.00    -0.218 OA
BRANCH  22  24
ATOM     24  C   UNL     1      25.435  13.898  -4.105  0.00  0.00    +0.171 C 
ATOM     25  O   UNL     1      26.370  13.156  -4.881  0.00  0.00    -0.343 OA
ATOM     26  C   UNL     1      26.380  11.762  -4.982  0.00  0.00    +0.220 C 
ATOM     27  C   UNL     1      24.991  11.205  -5.337  0.00  0.00    +0.076 C 
ATOM     28  C   UNL     1      23.990  11.773  -4.316  0.00  0.00    +0.177 C 
ATOM     29  O   UNL     1      22.693  11.256  -4.575  0.00  0.00    -0.221 OA
ATOM     30  C   UNL     1      24.000  13.333  -4.365  0.00  0.00    +0.155 C 
BRANCH  30  31
ATOM     31  N   UNL     1      23.046  13.876  -3.401  0.00  0.00    -0.202 NA
ATOM     32  C   UNL     1      21.922  14.608  -3.611  0.00  0.00    +0.242 C 
ATOM     33  C   UNL     1      20.961  14.788  -2.465  0.00  0.00    +0.096 C 
ATOM     34  O   UNL     1      21.716  15.101  -4.719  0.00  0.00    -0.273 OA
ENDBRANCH  30  31
BRANCH  26  35
ATOM     35  C   UNL     1      27.004  11.024  -3.676  0.00  0.00    +0.391 C 
ATOM     36  O   UNL     1      28.019  11.816  -3.280  0.00  0.00    -0.243 OA
ATOM     37  O   UNL     1      26.109  10.096  -3.313  0.00  0.00    -0.243 OA
ENDBRANCH  26  35
ENDBRANCH  22  24
ENDBRANCH  20  22
ENDBRANCH   1  20
TORSDOF 14
