REMARK VINA RESULT:    -6.630      1.641      2.409
REMARK INTER + INTRA:         -13.795
REMARK INTER:                 -12.107
REMARK INTRA:                  -1.688
REMARK UNBOUND:                -2.513
REMARK  Name = lig_assembled_28.pdb
REMARK  12 active torsions:
REMARK  status: ('A' for Active; 'I' for Inactive)
REMARK    1  A    between atoms: _2  and  _8
REMARK    2  A    between atoms: _5  and  _6
REMARK    3  A    between atoms: _5  and  _17
REMARK    4  A    between atoms: _8  and  _9
REMARK    5  A    between atoms: _17  and  _19
REMARK    6  A    between atoms: _18  and  _23
REMARK    7  A    between atoms: _19  and  _22
REMARK    8  A    between atoms: _27  and  _37
REMARK    9  A    between atoms: _29  and  _30
REMARK   10  A    between atoms: _31  and  _33
REMARK   11  A    between atoms: _33  and  _35
REMARK   12  A    between atoms: _35  and  _37
REMARK                            x       y       z     vdW  Elec       q    Type
REMARK                         _______ _______ _______ _____ _____    ______ ____
ROOT
ATOM      1  C   UNL     1      26.727  13.188  -1.278  0.00  0.00    +0.400 C 
ATOM      2  N   UNL     1      27.432  13.594  -0.170  0.00  0.00    -0.278 N 
ATOM      3  H   UNL     1      27.327  12.773   0.506  0.00  0.00    +0.152 HD
ATOM      4  O   UNL     1      26.338  12.023  -1.321  0.00  0.00    -0.226 OA
ENDROOT
BRANCH   2   5
ATOM      5  C   UNL     1      28.253  14.615   0.477  0.00  0.00    +0.152 C 
BRANCH   5   6
ATOM      6  C   UNL     1      29.164  15.444  -0.452  0.00  0.00    +0.193 C 
ATOM      7  O   UNL     1      28.619  16.781  -0.481  0.00  0.00    -0.219 OA
BRANCH   6   8
ATOM      8  C   UNL     1      30.636  15.636  -0.024  0.00  0.00    +0.212 C 
ATOM      9  O   UNL     1      30.787  16.857   0.719  0.00  0.00    -0.218 OA
BRANCH   8  10
ATOM     10  C   UNL     1      31.195  14.445   0.843  0.00  0.00    +0.171 C 
ATOM     11  O   UNL     1      31.412  14.812   2.202  0.00  0.00    -0.343 OA
ATOM     12  C   UNL     1      32.121  14.038   3.124  0.00  0.00    +0.220 C 
ATOM     13  C   UNL     1      33.491  13.605   2.572  0.00  0.00    +0.076 C 
ATOM     14  C   UNL     1      33.250  12.932   1.211  0.00  0.00    +0.177 C 
ATOM     15  O   UNL     1      34.483  12.477   0.674  0.00  0.00    -0.221 OA
ATOM     16  C   UNL     1      32.540  13.925   0.238  0.00  0.00    +0.155 C 
BRANCH  16  17
ATOM     17  N   UNL     1      32.315  13.291  -1.058  0.00  0.00    -0.202 NA
ATOM     18  C   UNL     1      32.826  13.603  -2.277  0.00  0.00    +0.242 C 
ATOM     19  C   UNL     1      32.663  12.608  -3.397  0.00  0.00    +0.096 C 
ATOM     20  O   UNL     1      33.405  14.676  -2.437  0.00  0.00    -0.273 OA
ENDBRANCH  16  17
BRANCH  12  21
ATOM     21  C   UNL     1      31.277  12.769   3.688  0.00  0.00    +0.391 C 
ATOM     22  O   UNL     1      32.185  12.004   4.325  0.00  0.00    -0.243 OA
ATOM     23  O   UNL     1      29.986  13.104   3.575  0.00  0.00    -0.243 OA
ENDBRANCH  12  21
ENDBRANCH   8  10
ENDBRANCH   6   8
ENDBRANCH   5   6
ENDBRANCH   2   5
BRANCH   1  24
ATOM     24  O   UNL     1      26.512  14.098  -2.169  0.00  0.00    -0.450 OA
BRANCH  24  25
ATOM     25  C   UNL     1      25.773  15.287  -2.325  0.00  0.00    +0.240 C 
BRANCH  25  26
ATOM     26  C   UNL     1      24.692  15.314  -3.423  0.00  0.00    +0.100 C 
BRANCH  26  28
ATOM     27  N   UNL     1      22.224  15.541  -3.434  0.00  0.00    -0.134 NA
ATOM     28  C   UNL     1      23.361  15.068  -2.838  0.00  0.00    +0.086 A 
ATOM     29  C   UNL     1      23.016  14.358  -1.710  0.00  0.00    +0.134 A 
ATOM     30  N   UNL     1      21.651  14.351  -1.726  0.00  0.00    -0.247 N 
ATOM     31  N   UNL     1      21.181  15.106  -2.738  0.00  0.00    -0.065 NA
BRANCH  30  32
ATOM     32  C   UNL     1      20.700  13.607  -0.909  0.00  0.00    +0.180 C 
BRANCH  32  33
ATOM     33  C   UNL     1      21.229  12.276  -0.425  0.00  0.00    -0.022 A 
ATOM     34  C   UNL     1      21.417  12.048   0.949  0.00  0.00    +0.055 A 
ATOM     35  C   UNL     1      21.791  10.783   1.350  0.00  0.00    +0.167 A 
ATOM     36  O   UNL     1      21.960  10.378   2.638  0.00  0.00    -0.453 OA
ATOM     37  C   UNL     1      22.212   8.970   2.444  0.00  0.00    +0.466 C 
ATOM     38  O   UNL     1      22.336   8.596   1.055  0.00  0.00    -0.453 OA
ATOM     39  C   UNL     1      22.007   9.769   0.450  0.00  0.00    +0.166 A 
ATOM     40  C   UNL     1      21.868   9.964  -0.908  0.00  0.00    +0.050 A 
ATOM     41  C   UNL     1      21.467  11.230  -1.347  0.00  0.00    +0.009 A 
ENDBRANCH  32  33
ENDBRANCH  30  32
ENDBRANCH  26  28
ENDBRANCH  25  26
ENDBRANCH  24  25
ENDBRANCH   1  24
TORSDOF 12
