REMARK VINA RESULT:    -6.907      3.511      7.935
REMARK INTER + INTRA:         -12.974
REMARK INTER:                 -10.445
REMARK INTRA:                  -2.529
REMARK UNBOUND:                -1.624
REMARK  Name = lig_assembled_3.pdb
REMARK  11 active torsions:
REMARK  status: ('A' for Active; 'I' for Inactive)
REMARK    1  A    between atoms: _2  and  _8
REMARK    2  A    between atoms: _5  and  _6
REMARK    3  A    between atoms: _5  and  _13
REMARK    4  A    between atoms: _13  and  _15
REMARK    5  A    between atoms: _14  and  _19
REMARK    6  A    between atoms: _15  and  _18
REMARK    7  A    between atoms: _23  and  _33
REMARK    8  A    between atoms: _25  and  _26
REMARK    9  A    between atoms: _27  and  _29
REMARK   10  A    between atoms: _29  and  _31
REMARK   11  A    between atoms: _31  and  _33
REMARK                            x       y       z     vdW  Elec       q    Type
REMARK                         _______ _______ _______ _____ _____    ______ ____
ROOT
ATOM      1  C   UNL     1      26.907  15.696  -2.420  0.00  0.00    +0.152 C 
ENDROOT
BRANCH   1   3
ATOM      2  C   UNL     1      28.225  17.284  -0.635  0.00  0.00    +0.400 C 
ATOM      3  N   UNL     1      27.250  16.658  -1.375  0.00  0.00    -0.278 N 
ATOM      4  H   UNL     1      26.345  17.095  -1.014  0.00  0.00    +0.152 HD
ATOM      5  O   UNL     1      27.897  18.240   0.063  0.00  0.00    -0.226 OA
BRANCH   2   6
ATOM      6  O   UNL     1      29.409  16.775  -0.724  0.00  0.00    -0.450 OA
BRANCH   6   7
ATOM      7  C   UNL     1      30.486  16.422   0.113  0.00  0.00    +0.240 C 
BRANCH   7   8
ATOM      8  C   UNL     1      30.843  14.927   0.220  0.00  0.00    +0.100 C 
BRANCH   8  10
ATOM      9  N   UNL     1      29.412  13.374  -1.069  0.00  0.00    -0.134 NA
ATOM     10  C   UNL     1      29.632  14.099   0.066  0.00  0.00    +0.086 A 
ATOM     11  C   UNL     1      28.588  13.898   0.938  0.00  0.00    +0.139 A 
ATOM     12  N   UNL     1      27.754  13.009   0.298  0.00  0.00    -0.220 N 
ATOM     13  N   UNL     1      28.268  12.719  -0.924  0.00  0.00    -0.061 NA
BRANCH  12  14
ATOM     14  C   UNL     1      26.550  12.423   0.767  0.00  0.00    +0.067 A 
ATOM     15  C   UNL     1      25.446  12.266  -0.084  0.00  0.00    +0.028 A 
ATOM     16  C   UNL     1      24.259  11.715   0.406  0.00  0.00    +0.002 A 
ATOM     17  C   UNL     1      24.167  11.316   1.738  0.00  0.00    +0.000 A 
ATOM     18  C   UNL     1      25.264  11.461   2.586  0.00  0.00    +0.002 A 
ATOM     19  C   UNL     1      26.455  12.011   2.106  0.00  0.00    +0.028 A 
ENDBRANCH  12  14
ENDBRANCH   8  10
ENDBRANCH   7   8
ENDBRANCH   6   7
ENDBRANCH   2   6
ENDBRANCH   1   3
BRANCH   1  20
ATOM     20  C   UNL     1      25.698  16.059  -3.307  0.00  0.00    +0.193 C 
ATOM     21  O   UNL     1      25.931  17.397  -3.798  0.00  0.00    -0.219 OA
BRANCH  20  22
ATOM     22  C   UNL     1      25.466  15.216  -4.580  0.00  0.00    +0.212 C 
ATOM     23  O   UNL     1      26.289  15.695  -5.656  0.00  0.00    -0.218 OA
BRANCH  22  24
ATOM     24  C   UNL     1      25.753  13.680  -4.372  0.00  0.00    +0.171 C 
ATOM     25  O   UNL     1      26.542  13.123  -5.418  0.00  0.00    -0.343 OA
ATOM     26  C   UNL     1      26.739  11.754  -5.614  0.00  0.00    +0.220 C 
ATOM     27  C   UNL     1      25.408  10.982  -5.624  0.00  0.00    +0.076 C 
ATOM     28  C   UNL     1      24.651  11.349  -4.338  0.00  0.00    +0.177 C 
ATOM     29  O   UNL     1      23.427  10.630  -4.277  0.00  0.00    -0.221 OA
ATOM     30  C   UNL     1      24.407  12.890  -4.279  0.00  0.00    +0.155 C 
BRANCH  30  31
ATOM     31  N   UNL     1      23.681  13.242  -3.061  0.00  0.00    -0.202 NA
ATOM     32  C   UNL     1      22.509  13.909  -2.912  0.00  0.00    +0.242 C 
ATOM     33  C   UNL     1      21.835  13.880  -1.564  0.00  0.00    +0.096 C 
ATOM     34  O   UNL     1      22.028  14.515  -3.868  0.00  0.00    -0.273 OA
ENDBRANCH  30  31
BRANCH  26  35
ATOM     35  C   UNL     1      27.802  11.098  -4.576  0.00  0.00    +0.391 C 
ATOM     36  O   UNL     1      27.490   9.788  -4.541  0.00  0.00    -0.243 OA
ATOM     37  O   UNL     1      28.752  12.022  -4.386  0.00  0.00    -0.243 OA
ENDBRANCH  26  35
ENDBRANCH  22  24
ENDBRANCH  20  22
ENDBRANCH   1  20
TORSDOF 11
