REMARK VINA RESULT:    -5.940      3.274      9.926
REMARK INTER + INTRA:         -13.115
REMARK INTER:                 -11.376
REMARK INTRA:                  -1.739
REMARK UNBOUND:                -1.966
REMARK  Name = lig_assembled_17.pdb
REMARK  17 active torsions:
REMARK  status: ('A' for Active; 'I' for Inactive)
REMARK    1  A    between atoms: _2  and  _9
REMARK    2  A    between atoms: _3  and  _10
REMARK    3  A    between atoms: _3  and  _11
REMARK    4  A    between atoms: _3  and  _13
REMARK    5  A    between atoms: _5  and  _13
REMARK    6  A    between atoms: _6  and  _7
REMARK    7  A    between atoms: _6  and  _14
REMARK    8  A    between atoms: _9  and  _10
REMARK    9  A    between atoms: _11  and  _12
REMARK   10  A    between atoms: _14  and  _16
REMARK   11  A    between atoms: _15  and  _20
REMARK   12  A    between atoms: _16  and  _19
REMARK   13  A    between atoms: _24  and  _34
REMARK   14  A    between atoms: _26  and  _27
REMARK   15  A    between atoms: _28  and  _30
REMARK   16  A    between atoms: _30  and  _32
REMARK   17  A    between atoms: _32  and  _34
REMARK                            x       y       z     vdW  Elec       q    Type
REMARK                         _______ _______ _______ _____ _____    ______ ____
ROOT
ATOM      1  C   UNL     1      27.916  17.730  -1.145  0.00  0.00    +0.400 C 
ATOM      2  N   UNL     1      27.175  17.575  -2.293  0.00  0.00    -0.278 N 
ATOM      3  H   UNL     1      26.245  18.043  -2.052  0.00  0.00    +0.152 HD
ATOM      4  O   UNL     1      27.472  18.460  -0.263  0.00  0.00    -0.226 OA
ENDROOT
BRANCH   2   5
ATOM      5  C   UNL     1      27.095  17.082  -3.665  0.00  0.00    +0.152 C 
BRANCH   5   6
ATOM      6  C   UNL     1      25.930  16.121  -3.976  0.00  0.00    +0.193 C 
ATOM      7  O   UNL     1      25.978  15.853  -5.394  0.00  0.00    -0.219 OA
BRANCH   6   8
ATOM      8  C   UNL     1      25.961  14.723  -3.319  0.00  0.00    +0.212 C 
ATOM      9  O   UNL     1      26.659  14.774  -2.064  0.00  0.00    -0.218 OA
BRANCH   8  10
ATOM     10  C   UNL     1      24.527  14.116  -3.073  0.00  0.00    +0.171 C 
ATOM     11  O   UNL     1      23.817  14.791  -2.039  0.00  0.00    -0.343 OA
ATOM     12  C   UNL     1      22.640  14.318  -1.454  0.00  0.00    +0.220 C 
ATOM     13  C   UNL     1      22.777  12.856  -0.996  0.00  0.00    +0.076 C 
ATOM     14  C   UNL     1      23.275  12.039  -2.200  0.00  0.00    +0.177 C 
ATOM     15  O   UNL     1      23.382  10.668  -1.841  0.00  0.00    -0.221 OA
ATOM     16  C   UNL     1      24.641  12.601  -2.703  0.00  0.00    +0.155 C 
BRANCH  16  17
ATOM     17  N   UNL     1      25.121  11.823  -3.843  0.00  0.00    -0.202 NA
ATOM     18  C   UNL     1      26.050  10.835  -3.889  0.00  0.00    +0.242 C 
ATOM     19  C   UNL     1      26.143   9.998  -5.139  0.00  0.00    +0.096 C 
ATOM     20  O   UNL     1      26.785  10.646  -2.922  0.00  0.00    -0.273 OA
ENDBRANCH  16  17
BRANCH  12  21
ATOM     21  C   UNL     1      21.324  14.531  -2.384  0.00  0.00    +0.391 C 
ATOM     22  O   UNL     1      20.361  13.793  -1.798  0.00  0.00    -0.243 OA
ATOM     23  O   UNL     1      21.600  15.569  -3.183  0.00  0.00    -0.243 OA
ENDBRANCH  12  21
ENDBRANCH   8  10
ENDBRANCH   6   8
ENDBRANCH   5   6
ENDBRANCH   2   5
BRANCH   1  24
ATOM     24  O   UNL     1      29.017  17.055  -1.094  0.00  0.00    -0.450 OA
BRANCH  24  25
ATOM     25  C   UNL     1      29.571  15.966  -0.392  0.00  0.00    +0.240 C 
BRANCH  25  26
ATOM     26  C   UNL     1      30.915  16.194   0.327  0.00  0.00    +0.100 C 
BRANCH  26  28
ATOM     27  N   UNL     1      30.643  14.524   2.129  0.00  0.00    -0.134 NA
ATOM     28  C   UNL     1      31.329  14.967   1.030  0.00  0.00    +0.086 A 
ATOM     29  C   UNL     1      32.362  14.095   0.762  0.00  0.00    +0.133 A 
ATOM     30  N   UNL     1      32.236  13.138   1.721  0.00  0.00    -0.250 N 
ATOM     31  N   UNL     1      31.210  13.402   2.549  0.00  0.00    -0.065 NA
BRANCH  30  32
ATOM     32  C   UNL     1      33.011  11.926   1.895  0.00  0.00    +0.160 C 
BRANCH  32  33
ATOM     33  C   UNL     1      34.514  12.229   1.804  0.00  0.00    +0.107 C 
BRANCH  33  34
ATOM     34  N   UNL     1      35.184  12.585   3.078  0.00  0.00    -0.301 NA
BRANCH  34  35
ATOM     35  C   UNL     1      34.508  11.876   4.186  0.00  0.00    +0.081 C 
ATOM     36  C   UNL     1      35.431  11.053   5.079  0.00  0.00    +0.020 C 
ENDBRANCH  34  35
BRANCH  34  37
ATOM     37  C   UNL     1      35.293  14.038   3.295  0.00  0.00    +0.081 C 
ATOM     38  C   UNL     1      34.241  14.672   4.202  0.00  0.00    +0.020 C 
ENDBRANCH  34  37
ENDBRANCH  33  34
ENDBRANCH  32  33
ENDBRANCH  30  32
ENDBRANCH  26  28
ENDBRANCH  25  26
ENDBRANCH  24  25
ENDBRANCH   1  24
TORSDOF 15
