REMARK VINA RESULT:    -8.180      1.736      2.377
REMARK INTER + INTRA:         -15.037
REMARK INTER:                 -13.345
REMARK INTRA:                  -1.692
REMARK UNBOUND:                -1.598
REMARK  Name = lig_assembled_80.pdb
REMARK  11 active torsions:
REMARK  status: ('A' for Active; 'I' for Inactive)
REMARK    1  A    between atoms: _2  and  _9
REMARK    2  A    between atoms: _6  and  _7
REMARK    3  A    between atoms: _6  and  _19
REMARK    4  A    between atoms: _19  and  _21
REMARK    5  A    between atoms: _20  and  _25
REMARK    6  A    between atoms: _21  and  _24
REMARK    7  A    between atoms: _29  and  _39
REMARK    8  A    between atoms: _31  and  _32
REMARK    9  A    between atoms: _33  and  _35
REMARK   10  A    between atoms: _35  and  _37
REMARK   11  A    between atoms: _37  and  _39
REMARK                            x       y       z     vdW  Elec       q    Type
REMARK                         _______ _______ _______ _____ _____    ______ ____
ROOT
ATOM      1  C   UNL     1      28.868  17.382  -0.610  0.00  0.00    +0.400 C 
ATOM      2  N   UNL     1      29.116  16.249   0.129  0.00  0.00    -0.278 N 
ATOM      3  H   UNL     1      29.786  16.591   0.888  0.00  0.00    +0.152 HD
ATOM      4  O   UNL     1      29.269  18.458  -0.173  0.00  0.00    -0.226 OA
ENDROOT
BRANCH   1   5
ATOM      5  O   UNL     1      28.251  17.195  -1.730  0.00  0.00    -0.450 OA
BRANCH   5   6
ATOM      6  C   UNL     1      27.080  17.619  -2.389  0.00  0.00    +0.240 C 
BRANCH   6   7
ATOM      7  C   UNL     1      26.832  17.085  -3.812  0.00  0.00    +0.100 C 
BRANCH   7   9
ATOM      8  N   UNL     1      25.400  15.431  -4.946  0.00  0.00    -0.134 NA
ATOM      9  C   UNL     1      25.892  15.946  -3.778  0.00  0.00    +0.086 A 
ATOM     10  C   UNL     1      25.379  15.242  -2.713  0.00  0.00    +0.134 A 
ATOM     11  N   UNL     1      24.530  14.341  -3.298  0.00  0.00    -0.240 N 
ATOM     12  N   UNL     1      24.577  14.436  -4.644  0.00  0.00    -0.065 NA
BRANCH  11  13
ATOM     13  C   UNL     1      23.769  13.241  -2.694  0.00  0.00    +0.195 C 
ATOM     14  C   UNL     1      24.704  12.443  -1.796  0.00  0.00    +0.041 C 
ATOM     15  C   UNL     1      24.071  11.135  -1.373  0.00  0.00    +0.039 C 
ATOM     16  C   UNL     1      23.209  11.354  -0.167  0.00  0.00    -0.026 A 
ATOM     17  C   UNL     1      22.066  12.154  -0.196  0.00  0.00    +0.037 A 
ATOM     18  C   UNL     1      21.243  12.213   0.942  0.00  0.00    +0.023 A 
ATOM     19  C   UNL     1      21.610  11.584   2.130  0.00  0.00    +0.002 A 
ATOM     20  C   UNL     1      22.787  10.850   2.182  0.00  0.00    +0.000 A 
ATOM     21  N   UNL     1      21.681  12.997  -1.251  0.00  0.00    -0.284 N 
ATOM     22  H   UNL     1      20.803  13.484  -1.107  0.00  0.00    +0.155 HD
ATOM     23  C   UNL     1      23.566  10.714   1.035  0.00  0.00    +0.005 A 
ATOM     24  C   UNL     1      22.451  13.732  -2.108  0.00  0.00    +0.242 C 
ATOM     25  O   UNL     1      21.942  14.800  -2.471  0.00  0.00    -0.273 OA
ENDBRANCH  11  13
ENDBRANCH   7   9
ENDBRANCH   6   7
ENDBRANCH   5   6
ENDBRANCH   1   5
BRANCH   2  26
ATOM     26  C   UNL     1      28.869  14.826   0.345  0.00  0.00    +0.152 C 
BRANCH  26  27
ATOM     27  C   UNL     1      30.018  14.028   0.997  0.00  0.00    +0.193 C 
ATOM     28  O   UNL     1      30.250  12.875   0.158  0.00  0.00    -0.219 OA
BRANCH  27  29
ATOM     29  C   UNL     1      31.397  14.715   1.098  0.00  0.00    +0.212 C 
ATOM     30  O   UNL     1      31.301  15.924   1.869  0.00  0.00    -0.218 OA
BRANCH  29  31
ATOM     31  C   UNL     1      32.506  13.796   1.739  0.00  0.00    +0.171 C 
ATOM     32  O   UNL     1      32.901  14.237   3.034  0.00  0.00    -0.343 OA
ATOM     33  C   UNL     1      34.021  13.762   3.721  0.00  0.00    +0.220 C 
ATOM     34  C   UNL     1      35.287  13.808   2.848  0.00  0.00    +0.076 C 
ATOM     35  C   UNL     1      34.972  13.072   1.536  0.00  0.00    +0.177 C 
ATOM     36  O   UNL     1      36.125  13.051   0.706  0.00  0.00    -0.221 OA
ATOM     37  C   UNL     1      33.767  13.751   0.814  0.00  0.00    +0.155 C 
BRANCH  37  38
ATOM     38  N   UNL     1      33.469  13.058  -0.437  0.00  0.00    -0.202 NA
ATOM     39  C   UNL     1      33.336  13.554  -1.693  0.00  0.00    +0.242 C 
ATOM     40  C   UNL     1      33.320  12.586  -2.847  0.00  0.00    +0.096 C 
ATOM     41  O   UNL     1      33.234  14.768  -1.859  0.00  0.00    -0.273 OA
ENDBRANCH  37  38
BRANCH  33  42
ATOM     42  C   UNL     1      33.802  12.292   4.378  0.00  0.00    +0.391 C 
ATOM     43  O   UNL     1      35.030  11.900   4.770  0.00  0.00    -0.243 OA
ATOM     44  O   UNL     1      32.482  12.158   4.554  0.00  0.00    -0.243 OA
ENDBRANCH  33  42
ENDBRANCH  29  31
ENDBRANCH  27  29
ENDBRANCH  26  27
ENDBRANCH   2  26
TORSDOF 11
