REMARK VINA RESULT:    -7.304      2.085      4.000
REMARK INTER + INTRA:         -13.808
REMARK INTER:                 -12.208
REMARK INTRA:                  -1.600
REMARK UNBOUND:                -1.808
REMARK  Name = lig_assembled_8.pdb
REMARK  11 active torsions:
REMARK  status: ('A' for Active; 'I' for Inactive)
REMARK    1  A    between atoms: _2  and  _8
REMARK    2  A    between atoms: _5  and  _6
REMARK    3  A    between atoms: _5  and  _13
REMARK    4  A    between atoms: _13  and  _15
REMARK    5  A    between atoms: _14  and  _19
REMARK    6  A    between atoms: _15  and  _18
REMARK    7  A    between atoms: _23  and  _33
REMARK    8  A    between atoms: _25  and  _26
REMARK    9  A    between atoms: _27  and  _29
REMARK   10  A    between atoms: _29  and  _31
REMARK   11  A    between atoms: _31  and  _33
REMARK                            x       y       z     vdW  Elec       q    Type
REMARK                         _______ _______ _______ _____ _____    ______ ____
ROOT
ATOM      1  C   UNL     1      28.324  17.696  -0.573  0.00  0.00    +0.400 C 
ATOM      2  N   UNL     1      29.506  17.511   0.104  0.00  0.00    -0.278 N 
ATOM      3  H   UNL     1      29.462  18.242   0.882  0.00  0.00    +0.152 HD
ATOM      4  O   UNL     1      27.483  18.442  -0.078  0.00  0.00    -0.226 OA
ENDROOT
BRANCH   1   5
ATOM      5  O   UNL     1      28.223  17.077  -1.704  0.00  0.00    -0.450 OA
BRANCH   5   6
ATOM      6  C   UNL     1      27.398  16.123  -2.330  0.00  0.00    +0.240 C 
BRANCH   6   7
ATOM      7  C   UNL     1      26.617  16.570  -3.581  0.00  0.00    +0.100 C 
BRANCH   7   9
ATOM      8  N   UNL     1      24.988  15.143  -4.765  0.00  0.00    -0.134 NA
ATOM      9  C   UNL     1      25.328  15.859  -3.660  0.00  0.00    +0.086 A 
ATOM     10  C   UNL     1      24.311  15.765  -2.739  0.00  0.00    +0.139 A 
ATOM     11  N   UNL     1      23.357  14.949  -3.323  0.00  0.00    -0.219 N 
ATOM     12  N   UNL     1      23.797  14.604  -4.553  0.00  0.00    -0.061 NA
BRANCH  11  13
ATOM     13  C   UNL     1      22.118  14.503  -2.766  0.00  0.00    +0.081 A 
ATOM     14  C   UNL     1      20.922  15.040  -3.292  0.00  0.00    +0.029 A 
ATOM     15  C   UNL     1      19.671  14.674  -2.786  0.00  0.00    +0.002 A 
ATOM     16  C   UNL     1      19.584  13.763  -1.746  0.00  0.00    +0.001 A 
ATOM     17  C   UNL     1      20.748  13.213  -1.216  0.00  0.00    +0.017 A 
ATOM     18  C   UNL     1      22.017  13.570  -1.714  0.00  0.00    +0.043 A 
ATOM     19 BR   UNL     1      23.455  12.683  -0.835  0.00  0.00    -0.048 Br
ENDBRANCH  11  13
ENDBRANCH   7   9
ENDBRANCH   6   7
ENDBRANCH   5   6
ENDBRANCH   1   5
BRANCH   2  20
ATOM     20  C   UNL     1      30.758  16.771   0.242  0.00  0.00    +0.152 C 
BRANCH  20  21
ATOM     21  C   UNL     1      30.667  15.241   0.069  0.00  0.00    +0.193 C 
ATOM     22  O   UNL     1      31.597  14.885  -0.977  0.00  0.00    -0.219 OA
BRANCH  21  23
ATOM     23  C   UNL     1      31.080  14.360   1.269  0.00  0.00    +0.212 C 
ATOM     24  O   UNL     1      31.392  15.178   2.408  0.00  0.00    -0.218 OA
BRANCH  23  25
ATOM     25  C   UNL     1      29.976  13.315   1.686  0.00  0.00    +0.171 C 
ATOM     26  O   UNL     1      28.670  13.881   1.715  0.00  0.00    -0.343 OA
ATOM     27  C   UNL     1      27.553  13.258   2.277  0.00  0.00    +0.220 C 
ATOM     28  C   UNL     1      27.837  12.761   3.705  0.00  0.00    +0.076 C 
ATOM     29  C   UNL     1      29.104  11.892   3.650  0.00  0.00    +0.177 C 
ATOM     30  O   UNL     1      29.389  11.372   4.941  0.00  0.00    -0.221 OA
ATOM     31  C   UNL     1      30.302  12.723   3.096  0.00  0.00    +0.155 C 
BRANCH  31  32
ATOM     32  N   UNL     1      31.510  11.903   3.048  0.00  0.00    -0.202 NA
ATOM     33  C   UNL     1      32.587  11.894   3.875  0.00  0.00    +0.242 C 
ATOM     34  C   UNL     1      33.558  10.747   3.772  0.00  0.00    +0.096 C 
ATOM     35  O   UNL     1      32.742  12.810   4.680  0.00  0.00    -0.273 OA
ENDBRANCH  31  32
BRANCH  27  36
ATOM     36  C   UNL     1      26.933  12.079   1.347  0.00  0.00    +0.391 C 
ATOM     37  O   UNL     1      26.093  11.404   2.156  0.00  0.00    -0.243 OA
ATOM     38  O   UNL     1      27.246  12.400   0.086  0.00  0.00    -0.243 OA
ENDBRANCH  27  36
ENDBRANCH  23  25
ENDBRANCH  21  23
ENDBRANCH  20  21
ENDBRANCH   2  20
TORSDOF 11
