REMARK VINA RESULT:    -7.272      3.379      7.649
REMARK INTER + INTRA:         -13.013
REMARK INTER:                 -10.777
REMARK INTRA:                  -2.237
REMARK UNBOUND:                -1.064
REMARK  Name = lig_assembled_27.pdb
REMARK  11 active torsions:
REMARK  status: ('A' for Active; 'I' for Inactive)
REMARK    1  A    between atoms: _2  and  _8
REMARK    2  A    between atoms: _5  and  _6
REMARK    3  A    between atoms: _5  and  _13
REMARK    4  A    between atoms: _13  and  _15
REMARK    5  A    between atoms: _14  and  _19
REMARK    6  A    between atoms: _15  and  _18
REMARK    7  A    between atoms: _23  and  _33
REMARK    8  A    between atoms: _25  and  _26
REMARK    9  A    between atoms: _27  and  _29
REMARK   10  A    between atoms: _29  and  _31
REMARK   11  A    between atoms: _31  and  _33
REMARK                            x       y       z     vdW  Elec       q    Type
REMARK                         _______ _______ _______ _____ _____    ______ ____
ROOT
ATOM      1  C   UNL     1      29.184  17.002  -0.428  0.00  0.00    +0.400 C 
ATOM      2  N   UNL     1      28.003  16.710  -1.067  0.00  0.00    -0.278 N 
ATOM      3  H   UNL     1      27.378  17.543  -0.825  0.00  0.00    +0.152 HD
ATOM      4  O   UNL     1      29.315  18.120   0.065  0.00  0.00    -0.226 OA
ENDROOT
BRANCH   1   5
ATOM      5  O   UNL     1      30.047  16.041  -0.380  0.00  0.00    -0.450 OA
BRANCH   5   6
ATOM      6  C   UNL     1      30.127  14.696   0.031  0.00  0.00    +0.240 C 
BRANCH   6   7
ATOM      7  C   UNL     1      30.025  14.407   1.541  0.00  0.00    +0.100 C 
BRANCH   7   9
ATOM      8  N   UNL     1      28.282  13.653   3.128  0.00  0.00    -0.134 NA
ATOM      9  C   UNL     1      28.751  13.733   1.849  0.00  0.00    +0.086 A 
ATOM     10  C   UNL     1      27.858  13.111   1.005  0.00  0.00    +0.139 A 
ATOM     11  N   UNL     1      26.843  12.668   1.822  0.00  0.00    -0.220 N 
ATOM     12  N   UNL     1      27.125  13.005   3.105  0.00  0.00    -0.061 NA
BRANCH  11  13
ATOM     13  C   UNL     1      25.660  11.969   1.470  0.00  0.00    +0.068 A 
ATOM     14  C   UNL     1      25.207  11.996   0.141  0.00  0.00    +0.028 A 
ATOM     15  C   UNL     1      24.041  11.315  -0.218  0.00  0.00    +0.003 A 
ATOM     16  C   UNL     1      23.321  10.606   0.743  0.00  0.00    +0.020 A 
ATOM     17  C   UNL     1      23.772  10.578   2.061  0.00  0.00    +0.043 A 
ATOM     18 CL   UNL     1      22.884   9.701   3.247  0.00  0.00    -0.083 Cl
ATOM     19  C   UNL     1      24.936  11.253   2.433  0.00  0.00    +0.047 A 
ENDBRANCH  11  13
ENDBRANCH   7   9
ENDBRANCH   6   7
ENDBRANCH   5   6
ENDBRANCH   1   5
BRANCH   2  20
ATOM     20  C   UNL     1      27.242  15.801  -1.921  0.00  0.00    +0.152 C 
BRANCH  20  21
ATOM     21  C   UNL     1      26.298  16.462  -2.947  0.00  0.00    +0.193 C 
ATOM     22  O   UNL     1      27.100  17.392  -3.708  0.00  0.00    -0.219 OA
BRANCH  21  23
ATOM     23  C   UNL     1      25.648  15.551  -4.011  0.00  0.00    +0.212 C 
ATOM     24  O   UNL     1      26.164  15.859  -5.317  0.00  0.00    -0.218 OA
BRANCH  23  25
ATOM     25  C   UNL     1      25.863  14.015  -3.734  0.00  0.00    +0.171 C 
ATOM     26  O   UNL     1      26.838  13.434  -4.594  0.00  0.00    -0.343 OA
ATOM     27  C   UNL     1      27.049  12.060  -4.732  0.00  0.00    +0.220 C 
ATOM     28  C   UNL     1      25.735  11.305  -5.001  0.00  0.00    +0.076 C 
ATOM     29  C   UNL     1      24.740  11.700  -3.897  0.00  0.00    +0.177 C 
ATOM     30  O   UNL     1      23.519  10.998  -4.076  0.00  0.00    -0.221 OA
ATOM     31  C   UNL     1      24.514  13.244  -3.905  0.00  0.00    +0.155 C 
BRANCH  31  32
ATOM     32  N   UNL     1      23.564  13.622  -2.862  0.00  0.00    -0.202 NA
ATOM     33  C   UNL     1      22.342  14.203  -2.970  0.00  0.00    +0.242 C 
ATOM     34  C   UNL     1      21.445  14.215  -1.759  0.00  0.00    +0.096 C 
ATOM     35  O   UNL     1      21.998  14.699  -4.041  0.00  0.00    -0.273 OA
ENDBRANCH  31  32
BRANCH  27  36
ATOM     36  C   UNL     1      27.871  11.404  -3.493  0.00  0.00    +0.391 C 
ATOM     37  O   UNL     1      28.302  12.454  -2.768  0.00  0.00    -0.243 OA
ATOM     38  O   UNL     1      27.561  10.102  -3.492  0.00  0.00    -0.243 OA
ENDBRANCH  27  36
ENDBRANCH  23  25
ENDBRANCH  21  23
ENDBRANCH  20  21
ENDBRANCH   2  20
TORSDOF 11
