REMARK VINA RESULT:    -6.273      2.844      8.358
REMARK INTER + INTRA:         -14.314
REMARK INTER:                 -11.774
REMARK INTRA:                  -2.540
REMARK UNBOUND:                -2.540
REMARK  Name = lig_assembled_31.pdb
REMARK  15 active torsions:
REMARK  status: ('A' for Active; 'I' for Inactive)
REMARK    1  A    between atoms: _2  and  _10
REMARK    2  A    between atoms: _3  and  _11
REMARK    3  A    between atoms: _4  and  _13
REMARK    4  A    between atoms: _7  and  _8
REMARK    5  A    between atoms: _7  and  _19
REMARK    6  A    between atoms: _10  and  _11
REMARK    7  A    between atoms: _13  and  _14
REMARK    8  A    between atoms: _19  and  _21
REMARK    9  A    between atoms: _20  and  _25
REMARK   10  A    between atoms: _21  and  _24
REMARK   11  A    between atoms: _29  and  _39
REMARK   12  A    between atoms: _31  and  _32
REMARK   13  A    between atoms: _33  and  _35
REMARK   14  A    between atoms: _35  and  _37
REMARK   15  A    between atoms: _37  and  _39
REMARK                            x       y       z     vdW  Elec       q    Type
REMARK                         _______ _______ _______ _____ _____    ______ ____
ROOT
ATOM      1  C   UNL     1      28.357  17.266  -0.604  0.00  0.00    +0.400 C 
ATOM      2  N   UNL     1      29.581  17.269   0.024  0.00  0.00    -0.278 N 
ATOM      3  H   UNL     1      29.563  18.173   0.594  0.00  0.00    +0.152 HD
ATOM      4  O   UNL     1      27.528  18.106  -0.262  0.00  0.00    -0.226 OA
ENDROOT
BRANCH   2   5
ATOM      5  C   UNL     1      30.856  16.601   0.266  0.00  0.00    +0.152 C 
BRANCH   5   6
ATOM      6  C   UNL     1      30.874  15.073   0.055  0.00  0.00    +0.193 C 
ATOM      7  O   UNL     1      31.974  14.789  -0.837  0.00  0.00    -0.219 OA
BRANCH   6   8
ATOM      8  C   UNL     1      31.139  14.183   1.290  0.00  0.00    +0.212 C 
ATOM      9  O   UNL     1      31.405  14.995   2.445  0.00  0.00    -0.218 OA
BRANCH   8  10
ATOM     10  C   UNL     1      29.948  13.206   1.623  0.00  0.00    +0.171 C 
ATOM     11  O   UNL     1      28.674  13.823   1.466  0.00  0.00    -0.343 OA
ATOM     12  C   UNL     1      27.472  13.275   1.921  0.00  0.00    +0.220 C 
ATOM     13  C   UNL     1      27.562  12.849   3.396  0.00  0.00    +0.076 C 
ATOM     14  C   UNL     1      28.787  11.929   3.538  0.00  0.00    +0.177 C 
ATOM     15  O   UNL     1      28.893  11.473   4.879  0.00  0.00    -0.221 OA
ATOM     16  C   UNL     1      30.078  12.682   3.091  0.00  0.00    +0.155 C 
BRANCH  16  17
ATOM     17  N   UNL     1      31.245  11.815   3.231  0.00  0.00    -0.202 NA
ATOM     18  C   UNL     1      32.261  11.865   4.129  0.00  0.00    +0.242 C 
ATOM     19  C   UNL     1      33.181  10.676   4.237  0.00  0.00    +0.096 C 
ATOM     20  O   UNL     1      32.405  12.866   4.828  0.00  0.00    -0.273 OA
ENDBRANCH  16  17
BRANCH  12  21
ATOM     21  C   UNL     1      26.914  12.071   0.984  0.00  0.00    +0.391 C 
ATOM     22  O   UNL     1      25.718  11.745   1.513  0.00  0.00    -0.243 OA
ATOM     23  O   UNL     1      27.687  12.064  -0.109  0.00  0.00    -0.243 OA
ENDBRANCH  12  21
ENDBRANCH   8  10
ENDBRANCH   6   8
ENDBRANCH   5   6
ENDBRANCH   2   5
BRANCH   1  24
ATOM     24  O   UNL     1      28.208  16.381  -1.535  0.00  0.00    -0.450 OA
BRANCH  24  25
ATOM     25  C   UNL     1      27.356  15.307  -1.860  0.00  0.00    +0.240 C 
BRANCH  25  26
ATOM     26  C   UNL     1      26.732  15.297  -3.269  0.00  0.00    +0.100 C 
BRANCH  26  28
ATOM     27  N   UNL     1      24.482  15.529  -2.263  0.00  0.00    -0.134 NA
ATOM     28  C   UNL     1      25.299  14.947  -3.194  0.00  0.00    +0.086 A 
ATOM     29  C   UNL     1      24.561  14.066  -3.953  0.00  0.00    +0.133 A 
ATOM     30  N   UNL     1      23.307  14.152  -3.426  0.00  0.00    -0.250 N 
ATOM     31  N   UNL     1      23.260  15.035  -2.416  0.00  0.00    -0.065 NA
BRANCH  30  32
ATOM     32  C   UNL     1      22.117  13.429  -3.825  0.00  0.00    +0.164 C 
BRANCH  32  33
ATOM     33  C   UNL     1      21.428  12.792  -2.628  0.00  0.00    +0.129 C 
BRANCH  33  34
ATOM     34  N   UNL     1      22.333  12.271  -1.612  0.00  0.00    -0.298 N 
ATOM     35  H   UNL     1      23.158  11.749  -1.874  0.00  0.00    +0.150 HD
ATOM     36  C   UNL     1      21.858  12.114  -0.337  0.00  0.00    +0.300 C 
ATOM     37  O   UNL     1      20.737  12.486   0.005  0.00  0.00    -0.253 OA
ATOM     38  N   UNL     1      22.738  11.538   0.526  0.00  0.00    -0.292 N 
ATOM     39  H   UNL     1      23.642  11.194   0.234  0.00  0.00    +0.151 HD
BRANCH  38  40
ATOM     40  C   UNL     1      22.332  11.335   1.896  0.00  0.00    +0.180 C 
BRANCH  40  41
ATOM     41  C   UNL     1      22.393   9.915   2.324  0.00  0.00    +0.122 A 
ATOM     42  O   UNL     1      21.987   9.585   3.586  0.00  0.00    -0.466 OA
ATOM     43  C   UNL     1      22.145   8.237   3.710  0.00  0.00    +0.195 A 
ATOM     44  C   UNL     1      22.648   7.698   2.548  0.00  0.00    +0.041 A 
ATOM     45  C   UNL     1      22.809   8.781   1.654  0.00  0.00    +0.046 A 
ENDBRANCH  40  41
ENDBRANCH  38  40
ENDBRANCH  33  34
ENDBRANCH  32  33
ENDBRANCH  30  32
ENDBRANCH  26  28
ENDBRANCH  25  26
ENDBRANCH  24  25
ENDBRANCH   1  24
TORSDOF 15
