REMARK VINA RESULT:    -7.794      1.532      3.447
REMARK INTER + INTRA:         -14.890
REMARK INTER:                 -13.182
REMARK INTRA:                  -1.708
REMARK UNBOUND:                -2.085
REMARK  Name = lig_assembled_51.pdb
REMARK  11 active torsions:
REMARK  status: ('A' for Active; 'I' for Inactive)
REMARK    1  A    between atoms: _2  and  _8
REMARK    2  A    between atoms: _5  and  _6
REMARK    3  A    between atoms: _5  and  _17
REMARK    4  A    between atoms: _17  and  _19
REMARK    5  A    between atoms: _18  and  _23
REMARK    6  A    between atoms: _19  and  _22
REMARK    7  A    between atoms: _27  and  _37
REMARK    8  A    between atoms: _29  and  _30
REMARK    9  A    between atoms: _31  and  _33
REMARK   10  A    between atoms: _33  and  _35
REMARK   11  A    between atoms: _35  and  _37
REMARK                            x       y       z     vdW  Elec       q    Type
REMARK                         _______ _______ _______ _____ _____    ______ ____
ROOT
ATOM      1  C   UNL     1      28.879  17.062  -0.476  0.00  0.00    +0.400 C 
ATOM      2  N   UNL     1      28.956  15.904   0.262  0.00  0.00    -0.278 N 
ATOM      3  H   UNL     1      29.638  16.156   1.046  0.00  0.00    +0.152 HD
ATOM      4  O   UNL     1      29.399  18.077  -0.018  0.00  0.00    -0.226 OA
ENDROOT
BRANCH   1   5
ATOM      5  O   UNL     1      28.282  16.959  -1.618  0.00  0.00    -0.450 OA
BRANCH   5   6
ATOM      6  C   UNL     1      27.116  17.421  -2.258  0.00  0.00    +0.240 C 
BRANCH   6   7
ATOM      7  C   UNL     1      26.563  16.577  -3.423  0.00  0.00    +0.100 C 
BRANCH   7   9
ATOM      8  N   UNL     1      26.426  14.299  -2.465  0.00  0.00    -0.134 NA
ATOM      9  C   UNL     1      25.796  15.430  -2.907  0.00  0.00    +0.086 A 
ATOM     10  C   UNL     1      24.436  15.266  -2.774  0.00  0.00    +0.134 A 
ATOM     11  N   UNL     1      24.296  14.009  -2.251  0.00  0.00    -0.245 N 
ATOM     12  N   UNL     1      25.500  13.437  -2.067  0.00  0.00    -0.065 NA
BRANCH  11  13
ATOM     13  C   UNL     1      23.051  13.310  -1.918  0.00  0.00    +0.066 C 
ATOM     14  C   UNL     1      23.224  12.515  -0.596  0.00  0.00    +0.034 C 
ATOM     15  C   UNL     1      21.915  11.811  -0.204  0.00  0.00    -0.008 C 
ATOM     16  C   UNL     1      20.808  12.863  -0.027  0.00  0.00    +0.007 C 
ATOM     17  C   UNL     1      20.592  13.630  -1.343  0.00  0.00    -0.008 C 
ATOM     18  C   UNL     1      20.197  12.640  -2.448  0.00  0.00    +0.007 C 
ATOM     19  C   UNL     1      21.304  11.592  -2.636  0.00  0.00    -0.008 C 
ATOM     20  C   UNL     1      21.511  10.831  -1.317  0.00  0.00    +0.007 C 
ATOM     21  C   UNL     1      21.901  14.337  -1.736  0.00  0.00    +0.034 C 
ATOM     22  C   UNL     1      22.614  12.301  -3.023  0.00  0.00    +0.034 C 
ENDBRANCH  11  13
ENDBRANCH   7   9
ENDBRANCH   6   7
ENDBRANCH   5   6
ENDBRANCH   1   5
BRANCH   2  23
ATOM     23  C   UNL     1      28.523  14.523   0.460  0.00  0.00    +0.152 C 
BRANCH  23  24
ATOM     24  C   UNL     1      28.676  13.961   1.888  0.00  0.00    +0.193 C 
ATOM     25  O   UNL     1      27.439  13.285   2.203  0.00  0.00    -0.219 OA
BRANCH  24  26
ATOM     26  C   UNL     1      29.769  12.895   2.123  0.00  0.00    +0.212 C 
ATOM     27  O   UNL     1      29.381  11.641   1.536  0.00  0.00    -0.218 OA
BRANCH  26  28
ATOM     28  C   UNL     1      31.177  13.306   1.548  0.00  0.00    +0.171 C 
ATOM     29  O   UNL     1      31.264  13.135   0.137  0.00  0.00    -0.343 OA
ATOM     30  C   UNL     1      32.455  13.189  -0.592  0.00  0.00    +0.220 C 
ATOM     31  C   UNL     1      33.538  12.282   0.018  0.00  0.00    +0.076 C 
ATOM     32  C   UNL     1      33.671  12.655   1.504  0.00  0.00    +0.177 C 
ATOM     33  O   UNL     1      34.691  11.872   2.108  0.00  0.00    -0.221 OA
ATOM     34  C   UNL     1      32.304  12.463   2.231  0.00  0.00    +0.155 C 
BRANCH  34  35
ATOM     35  N   UNL     1      32.428  12.810   3.644  0.00  0.00    -0.202 NA
ATOM     36  C   UNL     1      32.289  12.028   4.745  0.00  0.00    +0.242 C 
ATOM     37  C   UNL     1      32.759  12.568   6.070  0.00  0.00    +0.096 C 
ATOM     38  O   UNL     1      31.790  10.909   4.636  0.00  0.00    -0.273 OA
ENDBRANCH  34  35
BRANCH  30  39
ATOM     39  C   UNL     1      33.003  14.701  -0.825  0.00  0.00    +0.391 C 
ATOM     40  O   UNL     1      34.282  14.549  -1.218  0.00  0.00    -0.243 OA
ATOM     41  O   UNL     1      31.921  15.489  -0.834  0.00  0.00    -0.243 OA
ENDBRANCH  30  39
ENDBRANCH  26  28
ENDBRANCH  24  26
ENDBRANCH  23  24
ENDBRANCH   2  23
TORSDOF 11
