REMARK VINA RESULT:    -6.610      3.207      9.050
REMARK INTER + INTRA:         -12.993
REMARK INTER:                 -11.862
REMARK INTRA:                  -1.132
REMARK UNBOUND:                -2.133
REMARK  Name = lig_assembled_7.pdb
REMARK  14 active torsions:
REMARK  status: ('A' for Active; 'I' for Inactive)
REMARK    1  A    between atoms: _2  and  _8
REMARK    2  A    between atoms: _4  and  _15
REMARK    3  A    between atoms: _5  and  _6
REMARK    4  A    between atoms: _5  and  _16
REMARK    5  A    between atoms: _9  and  _10
REMARK    6  A    between atoms: _12  and  _13
REMARK    7  A    between atoms: _16  and  _18
REMARK    8  A    between atoms: _17  and  _22
REMARK    9  A    between atoms: _18  and  _21
REMARK   10  A    between atoms: _26  and  _36
REMARK   11  A    between atoms: _28  and  _29
REMARK   12  A    between atoms: _30  and  _32
REMARK   13  A    between atoms: _32  and  _34
REMARK   14  A    between atoms: _34  and  _36
REMARK                            x       y       z     vdW  Elec       q    Type
REMARK                         _______ _______ _______ _____ _____    ______ ____
ROOT
ATOM      1  C   UNL     1      27.957  17.823  -1.007  0.00  0.00    +0.400 C 
ATOM      2  N   UNL     1      27.170  17.640  -2.120  0.00  0.00    -0.278 N 
ATOM      3  H   UNL     1      26.210  17.986  -1.803  0.00  0.00    +0.152 HD
ATOM      4  O   UNL     1      27.487  18.452  -0.062  0.00  0.00    -0.226 OA
ENDROOT
BRANCH   1   5
ATOM      5  O   UNL     1      29.127  17.276  -1.053  0.00  0.00    -0.450 OA
BRANCH   5   6
ATOM      6  C   UNL     1      29.984  16.515  -0.234  0.00  0.00    +0.240 C 
BRANCH   6   7
ATOM      7  C   UNL     1      29.742  14.995  -0.172  0.00  0.00    +0.100 C 
BRANCH   7   9
ATOM      8  N   UNL     1      31.767  13.705   0.390  0.00  0.00    -0.134 NA
ATOM      9  C   UNL     1      30.656  14.372   0.803  0.00  0.00    +0.086 A 
ATOM     10  C   UNL     1      30.603  14.335   2.184  0.00  0.00    +0.139 A 
ATOM     11  N   UNL     1      31.692  13.584   2.572  0.00  0.00    -0.219 N 
ATOM     12  N   UNL     1      32.401  13.259   1.461  0.00  0.00    -0.061 NA
BRANCH  11  13
ATOM     13  C   UNL     1      32.100  13.176   3.883  0.00  0.00    +0.073 A 
ATOM     14  C   UNL     1      33.386  13.564   4.368  0.00  0.00    -0.024 A 
ATOM     15  C   UNL     1      33.796  13.168   5.660  0.00  0.00    +0.008 A 
ATOM     16  C   UNL     1      32.970  12.411   6.485  0.00  0.00    -0.050 A 
ATOM     17  C   UNL     1      33.436  12.009   7.854  0.00  0.00    +0.044 C 
ATOM     18  C   UNL     1      31.716  12.037   6.010  0.00  0.00    +0.008 A 
ATOM     19  C   UNL     1      34.362  14.436   3.609  0.00  0.00    +0.046 C 
ATOM     20  C   UNL     1      31.266  12.384   4.715  0.00  0.00    -0.024 A 
ATOM     21  C   UNL     1      29.936  11.774   4.351  0.00  0.00    +0.046 C 
ENDBRANCH  11  13
ENDBRANCH   7   9
ENDBRANCH   6   7
ENDBRANCH   5   6
ENDBRANCH   1   5
BRANCH   2  22
ATOM     22  C   UNL     1      27.064  17.209  -3.511  0.00  0.00    +0.152 C 
BRANCH  22  23
ATOM     23  C   UNL     1      25.972  16.165  -3.818  0.00  0.00    +0.193 C 
ATOM     24  O   UNL     1      25.987  15.956  -5.248  0.00  0.00    -0.219 OA
BRANCH  23  25
ATOM     25  C   UNL     1      26.146  14.751  -3.220  0.00  0.00    +0.212 C 
ATOM     26  O   UNL     1      26.840  14.820  -1.964  0.00  0.00    -0.218 OA
BRANCH  25  27
ATOM     27  C   UNL     1      24.781  13.993  -3.002  0.00  0.00    +0.171 C 
ATOM     28  O   UNL     1      23.840  14.762  -2.260  0.00  0.00    -0.343 OA
ATOM     29  C   UNL     1      22.658  14.252  -1.719  0.00  0.00    +0.220 C 
ATOM     30  C   UNL     1      22.910  12.976  -0.897  0.00  0.00    +0.076 C 
ATOM     31  C   UNL     1      23.688  11.996  -1.792  0.00  0.00    +0.177 C 
ATOM     32  O   UNL     1      23.914  10.781  -1.092  0.00  0.00    -0.221 OA
ATOM     33  C   UNL     1      25.031  12.642  -2.255  0.00  0.00    +0.155 C 
BRANCH  33  34
ATOM     34  N   UNL     1      25.776  11.712  -3.099  0.00  0.00    -0.202 NA
ATOM     35  C   UNL     1      26.913  11.020  -2.835  0.00  0.00    +0.242 C 
ATOM     36  C   UNL     1      27.307   9.906  -3.770  0.00  0.00    +0.096 C 
ATOM     37  O   UNL     1      27.588  11.313  -1.849  0.00  0.00    -0.273 OA
ENDBRANCH  33  34
BRANCH  29  38
ATOM     38  C   UNL     1      21.484  14.030  -2.820  0.00  0.00    +0.391 C 
ATOM     39  O   UNL     1      21.952  14.603  -3.947  0.00  0.00    -0.243 OA
ATOM     40  O   UNL     1      20.651  13.123  -2.296  0.00  0.00    -0.243 OA
ENDBRANCH  29  38
ENDBRANCH  25  27
ENDBRANCH  23  25
ENDBRANCH  22  23
ENDBRANCH   2  22
TORSDOF 11
