REMARK VINA RESULT:    -7.788      3.370      9.411
REMARK INTER + INTRA:         -14.558
REMARK INTER:                 -12.711
REMARK INTRA:                  -1.846
REMARK UNBOUND:                -1.762
REMARK  Name = lig_assembled_25.pdb
REMARK  11 active torsions:
REMARK  status: ('A' for Active; 'I' for Inactive)
REMARK    1  A    between atoms: _2  and  _8
REMARK    2  A    between atoms: _5  and  _6
REMARK    3  A    between atoms: _5  and  _20
REMARK    4  A    between atoms: _20  and  _22
REMARK    5  A    between atoms: _21  and  _26
REMARK    6  A    between atoms: _22  and  _25
REMARK    7  A    between atoms: _30  and  _40
REMARK    8  A    between atoms: _32  and  _33
REMARK    9  A    between atoms: _34  and  _36
REMARK   10  A    between atoms: _36  and  _38
REMARK   11  A    between atoms: _38  and  _40
REMARK                            x       y       z     vdW  Elec       q    Type
REMARK                         _______ _______ _______ _____ _____    ______ ____
ROOT
ATOM      1  C   UNL     1      26.425  15.629  -3.762  0.00  0.00    +0.400 C 
ATOM      2  N   UNL     1      26.372  14.311  -3.372  0.00  0.00    -0.278 N 
ATOM      3  H   UNL     1      26.131  13.795  -4.277  0.00  0.00    +0.152 HD
ATOM      4  O   UNL     1      26.381  15.880  -4.964  0.00  0.00    -0.226 OA
ENDROOT
BRANCH   1   5
ATOM      5  O   UNL     1      26.485  16.494  -2.803  0.00  0.00    -0.450 OA
BRANCH   5   6
ATOM      6  C   UNL     1      27.144  17.700  -2.493  0.00  0.00    +0.240 C 
BRANCH   6   7
ATOM      7  C   UNL     1      27.531  17.940  -1.022  0.00  0.00    +0.100 C 
BRANCH   7   9
ATOM      8  N   UNL     1      29.881  17.538  -0.376  0.00  0.00    -0.134 NA
ATOM      9  C   UNL     1      28.631  17.040  -0.625  0.00  0.00    +0.086 A 
ATOM     10  C   UNL     1      28.648  15.672  -0.462  0.00  0.00    +0.134 A 
ATOM     11  N   UNL     1      29.944  15.392  -0.129  0.00  0.00    -0.240 N 
ATOM     12  N   UNL     1      30.679  16.525  -0.070  0.00  0.00    -0.065 NA
BRANCH  11  13
ATOM     13  C   UNL     1      30.601  14.110   0.066  0.00  0.00    +0.170 C 
ATOM     14  C   UNL     1      30.506  13.620   1.505  0.00  0.00    -0.011 A 
ATOM     15  C   UNL     1      31.799  13.367   2.013  0.00  0.00    -0.012 A 
ATOM     16  C   UNL     1      32.778  13.682   0.993  0.00  0.00    -0.012 A 
ATOM     17  C   UNL     1      34.157  13.564   1.006  0.00  0.00    +0.009 A 
ATOM     18  C   UNL     1      34.866  13.914  -0.146  0.00  0.00    +0.001 A 
ATOM     19  C   UNL     1      34.197  14.380  -1.290  0.00  0.00    +0.000 A 
ATOM     20  C   UNL     1      32.805  14.501  -1.308  0.00  0.00    +0.006 A 
ATOM     21  C   UNL     1      31.965  12.889   3.303  0.00  0.00    +0.009 A 
ATOM     22  C   UNL     1      30.824  12.663   4.079  0.00  0.00    +0.001 A 
ATOM     23  C   UNL     1      29.540  12.913   3.567  0.00  0.00    +0.000 A 
ATOM     24  C   UNL     1      29.370  13.392   2.268  0.00  0.00    +0.006 A 
ATOM     25  C   UNL     1      32.107  14.152  -0.161  0.00  0.00    -0.011 A 
ENDBRANCH  11  13
ENDBRANCH   7   9
ENDBRANCH   6   7
ENDBRANCH   5   6
ENDBRANCH   1   5
BRANCH   2  26
ATOM     26  C   UNL     1      26.509  13.323  -2.306  0.00  0.00    +0.152 C 
BRANCH  26  27
ATOM     27  C   UNL     1      25.212  12.938  -1.565  0.00  0.00    +0.193 C 
ATOM     28  O   UNL     1      24.115  13.413  -2.376  0.00  0.00    -0.219 OA
BRANCH  27  29
ATOM     29  C   UNL     1      24.921  11.434  -1.367  0.00  0.00    +0.212 C 
ATOM     30  O   UNL     1      25.970  10.639  -1.945  0.00  0.00    -0.218 OA
BRANCH  29  31
ATOM     31  C   UNL     1      24.754  11.024   0.145  0.00  0.00    +0.171 C 
ATOM     32  O   UNL     1      25.552   9.899   0.500  0.00  0.00    -0.343 OA
ATOM     33  C   UNL     1      25.418   9.181   1.691  0.00  0.00    +0.220 C 
ATOM     34  C   UNL     1      23.958   8.770   1.948  0.00  0.00    +0.076 C 
ATOM     35  C   UNL     1      23.096  10.040   1.857  0.00  0.00    +0.177 C 
ATOM     36  O   UNL     1      21.738   9.721   2.127  0.00  0.00    -0.221 OA
ATOM     37  C   UNL     1      23.255  10.698   0.451  0.00  0.00    +0.155 C 
BRANCH  37  38
ATOM     38  N   UNL     1      22.433  11.901   0.358  0.00  0.00    -0.202 NA
ATOM     39  C   UNL     1      21.413  12.192  -0.489  0.00  0.00    +0.242 C 
ATOM     40  C   UNL     1      20.542  13.381  -0.178  0.00  0.00    +0.096 C 
ATOM     41  O   UNL     1      21.224  11.486  -1.477  0.00  0.00    -0.273 OA
ENDBRANCH  37  38
BRANCH  33  42
ATOM     42  C   UNL     1      26.060   9.937   2.977  0.00  0.00    +0.391 C 
ATOM     43  O   UNL     1      25.802   9.127   4.022  0.00  0.00    -0.243 OA
ATOM     44  O   UNL     1      26.847  10.902   2.484  0.00  0.00    -0.243 OA
ENDBRANCH  33  42
ENDBRANCH  29  31
ENDBRANCH  27  29
ENDBRANCH  26  27
ENDBRANCH   2  26
TORSDOF 11
