REMARK VINA RESULT:    -6.371      2.434      9.331
REMARK INTER + INTRA:         -12.215
REMARK INTER:                 -10.412
REMARK INTRA:                  -1.803
REMARK UNBOUND:                -1.188
REMARK  Name = lig_assembled_35.pdb
REMARK  14 active torsions:
REMARK  status: ('A' for Active; 'I' for Inactive)
REMARK    1  A    between atoms: _2  and  _8
REMARK    2  A    between atoms: _4  and  _8
REMARK    3  A    between atoms: _4  and  _10
REMARK    4  A    between atoms: _5  and  _6
REMARK    5  A    between atoms: _5  and  _12
REMARK    6  A    between atoms: _8  and  _9
REMARK    7  A    between atoms: _12  and  _14
REMARK    8  A    between atoms: _13  and  _18
REMARK    9  A    between atoms: _14  and  _17
REMARK   10  A    between atoms: _22  and  _32
REMARK   11  A    between atoms: _24  and  _25
REMARK   12  A    between atoms: _26  and  _28
REMARK   13  A    between atoms: _28  and  _30
REMARK   14  A    between atoms: _30  and  _32
REMARK                            x       y       z     vdW  Elec       q    Type
REMARK                         _______ _______ _______ _____ _____    ______ ____
ROOT
ATOM      1  C   UNL     1      27.112  17.091  -3.604  0.00  0.00    +0.152 C 
ENDROOT
BRANCH   1   3
ATOM      2  C   UNL     1      27.945  17.721  -1.084  0.00  0.00    +0.400 C 
ATOM      3  N   UNL     1      27.196  17.568  -2.226  0.00  0.00    -0.278 N 
ATOM      4  H   UNL     1      26.260  18.017  -1.971  0.00  0.00    +0.152 HD
ATOM      5  O   UNL     1      27.496  18.432  -0.188  0.00  0.00    -0.226 OA
BRANCH   2   6
ATOM      6  O   UNL     1      29.057  17.064  -1.051  0.00  0.00    -0.450 OA
BRANCH   6   7
ATOM      7  C   UNL     1      29.930  16.487  -0.108  0.00  0.00    +0.240 C 
BRANCH   7   8
ATOM      8  C   UNL     1      30.237  14.984  -0.248  0.00  0.00    +0.100 C 
BRANCH   8  10
ATOM      9  N   UNL     1      30.852  14.744   2.137  0.00  0.00    -0.134 NA
ATOM     10  C   UNL     1      31.160  14.548   0.816  0.00  0.00    +0.086 A 
ATOM     11  C   UNL     1      32.386  13.928   0.729  0.00  0.00    +0.134 A 
ATOM     12  N   UNL     1      32.766  13.761   2.028  0.00  0.00    -0.238 N 
ATOM     13  N   UNL     1      31.851  14.273   2.869  0.00  0.00    -0.065 NA
BRANCH  12  14
ATOM     14  C   UNL     1      33.972  13.167   2.572  0.00  0.00    +0.214 C 
ATOM     15  C   UNL     1      34.974  14.243   2.980  0.00  0.00    +0.045 C 
BRANCH  14  16
ATOM     16  C   UNL     1      33.658  12.217   3.709  0.00  0.00    +0.329 C 
ATOM     17  O   UNL     1      33.430  11.023   3.570  0.00  0.00    -0.249 OA
BRANCH  16  18
ATOM     18  O   UNL     1      33.618  12.802   4.932  0.00  0.00    -0.479 OA
ATOM     19  H   UNL     1      33.351  13.744   4.945  0.00  0.00    +0.295 HD
ENDBRANCH  16  18
ENDBRANCH  14  16
ENDBRANCH  12  14
ENDBRANCH   8  10
ENDBRANCH   7   8
ENDBRANCH   6   7
ENDBRANCH   2   6
ENDBRANCH   1   3
BRANCH   1  20
ATOM     20  C   UNL     1      25.996  16.069  -3.903  0.00  0.00    +0.193 C 
ATOM     21  O   UNL     1      25.990  15.867  -5.333  0.00  0.00    -0.219 OA
BRANCH  20  22
ATOM     22  C   UNL     1      26.150  14.649  -3.314  0.00  0.00    +0.212 C 
ATOM     23  O   UNL     1      26.881  14.696  -2.078  0.00  0.00    -0.218 OA
BRANCH  22  24
ATOM     24  C   UNL     1      24.773  13.926  -3.059  0.00  0.00    +0.171 C 
ATOM     25  O   UNL     1      23.857  14.734  -2.327  0.00  0.00    -0.343 OA
ATOM     26  C   UNL     1      22.672  14.263  -1.758  0.00  0.00    +0.220 C 
ATOM     27  C   UNL     1      22.909  13.004  -0.906  0.00  0.00    +0.076 C 
ATOM     28  C   UNL     1      23.655  11.985  -1.783  0.00  0.00    +0.177 C 
ATOM     29  O   UNL     1      23.864  10.784  -1.054  0.00  0.00    -0.221 OA
ATOM     30  C   UNL     1      25.005  12.590  -2.280  0.00  0.00    +0.155 C 
BRANCH  30  31
ATOM     31  N   UNL     1      25.720  11.622  -3.108  0.00  0.00    -0.202 NA
ATOM     32  C   UNL     1      26.887  10.972  -2.870  0.00  0.00    +0.242 C 
ATOM     33  C   UNL     1      27.251   9.808  -3.756  0.00  0.00    +0.096 C 
ATOM     34  O   UNL     1      27.612  11.341  -1.949  0.00  0.00    -0.273 OA
ENDBRANCH  30  31
BRANCH  26  35
ATOM     35  C   UNL     1      21.480  14.037  -2.839  0.00  0.00    +0.391 C 
ATOM     36  O   UNL     1      20.555  13.305  -2.188  0.00  0.00    -0.243 OA
ATOM     37  O   UNL     1      21.721  14.894  -3.839  0.00  0.00    -0.243 OA
ENDBRANCH  26  35
ENDBRANCH  22  24
ENDBRANCH  20  22
ENDBRANCH   1  20
TORSDOF 13
