REMARK VINA RESULT:    -7.045      1.853      2.876
REMARK INTER + INTRA:         -14.633
REMARK INTER:                 -12.747
REMARK INTRA:                  -1.886
REMARK UNBOUND:                -1.823
REMARK  Name = lig_assembled_12.pdb
REMARK  14 active torsions:
REMARK  status: ('A' for Active; 'I' for Inactive)
REMARK    1  A    between atoms: _2  and  _8
REMARK    2  A    between atoms: _5  and  _6
REMARK    3  A    between atoms: _5  and  _16
REMARK    4  A    between atoms: _8  and  _15
REMARK    5  A    between atoms: _9  and  _10
REMARK    6  A    between atoms: _9  and  _15
REMARK    7  A    between atoms: _16  and  _18
REMARK    8  A    between atoms: _17  and  _22
REMARK    9  A    between atoms: _18  and  _21
REMARK   10  A    between atoms: _26  and  _36
REMARK   11  A    between atoms: _28  and  _29
REMARK   12  A    between atoms: _30  and  _32
REMARK   13  A    between atoms: _32  and  _34
REMARK   14  A    between atoms: _34  and  _36
REMARK                            x       y       z     vdW  Elec       q    Type
REMARK                         _______ _______ _______ _____ _____    ______ ____
ROOT
ATOM      1  C   UNL     1      28.014  17.308  -0.806  0.00  0.00    +0.400 C 
ATOM      2  N   UNL     1      28.399  16.344   0.095  0.00  0.00    -0.278 N 
ATOM      3  H   UNL     1      28.692  16.911   0.953  0.00  0.00    +0.152 HD
ATOM      4  O   UNL     1      27.916  18.467  -0.409  0.00  0.00    -0.226 OA
ENDROOT
BRANCH   2   5
ATOM      5  C   UNL     1      28.570  14.927   0.404  0.00  0.00    +0.152 C 
BRANCH   5   6
ATOM      6  C   UNL     1      29.907  14.293  -0.030  0.00  0.00    +0.193 C 
ATOM      7  O   UNL     1      29.936  14.334  -1.474  0.00  0.00    -0.219 OA
BRANCH   6   8
ATOM      8  C   UNL     1      31.209  15.003   0.401  0.00  0.00    +0.212 C 
ATOM      9  O   UNL     1      30.909  16.159   1.200  0.00  0.00    -0.218 OA
BRANCH   8  10
ATOM     10  C   UNL     1      32.190  14.072   1.212  0.00  0.00    +0.171 C 
ATOM     11  O   UNL     1      32.501  14.593   2.500  0.00  0.00    -0.343 OA
ATOM     12  C   UNL     1      33.520  14.106   3.322  0.00  0.00    +0.220 C 
ATOM     13  C   UNL     1      34.857  13.997   2.568  0.00  0.00    +0.076 C 
ATOM     14  C   UNL     1      34.605  13.174   1.294  0.00  0.00    +0.177 C 
ATOM     15  O   UNL     1      35.821  13.009   0.579  0.00  0.00    -0.221 OA
ATOM     16  C   UNL     1      33.519  13.867   0.414  0.00  0.00    +0.155 C 
BRANCH  16  17
ATOM     17  N   UNL     1      33.281  13.092  -0.801  0.00  0.00    -0.202 NA
ATOM     18  C   UNL     1      33.312  13.484  -2.101  0.00  0.00    +0.242 C 
ATOM     19  C   UNL     1      33.320  12.421  -3.168  0.00  0.00    +0.096 C 
ATOM     20  O   UNL     1      33.334  14.682  -2.373  0.00  0.00    -0.273 OA
ENDBRANCH  16  17
BRANCH  12  21
ATOM     21  C   UNL     1      33.140  12.715   4.068  0.00  0.00    +0.391 C 
ATOM     22  O   UNL     1      34.296  12.282   4.607  0.00  0.00    -0.243 OA
ATOM     23  O   UNL     1      31.803  12.679   4.126  0.00  0.00    -0.243 OA
ENDBRANCH  12  21
ENDBRANCH   8  10
ENDBRANCH   6   8
ENDBRANCH   5   6
ENDBRANCH   2   5
BRANCH   1  24
ATOM     24  O   UNL     1      27.818  16.897  -2.016  0.00  0.00    -0.450 OA
BRANCH  24  25
ATOM     25  C   UNL     1      27.140  17.298  -3.184  0.00  0.00    +0.240 C 
BRANCH  25  26
ATOM     26  C   UNL     1      26.517  16.194  -4.059  0.00  0.00    +0.100 C 
BRANCH  26  28
ATOM     27  N   UNL     1      26.500  14.024  -2.860  0.00  0.00    -0.134 NA
ATOM     28  C   UNL     1      25.855  15.181  -3.217  0.00  0.00    +0.086 A 
ATOM     29  C   UNL     1      24.593  15.178  -2.673  0.00  0.00    +0.136 A 
ATOM     30  N   UNL     1      24.515  13.983  -2.021  0.00  0.00    -0.226 N 
ATOM     31  N   UNL     1      25.673  13.301  -2.116  0.00  0.00    -0.063 NA
BRANCH  30  32
ATOM     32  C   UNL     1      23.410  13.440  -1.251  0.00  0.00    +0.305 C 
BRANCH  32  33
ATOM     33  O   UNL     1      22.285  13.262  -2.109  0.00  0.00    -0.353 OA
BRANCH  33  34
ATOM     34  C   UNL     1      21.066  13.570  -1.448  0.00  0.00    +0.197 C 
BRANCH  34  35
ATOM     35  C   UNL     1      20.224  14.372  -2.402  0.00  0.00    -0.022 A 
ATOM     36  C   UNL     1      20.788  15.420  -3.143  0.00  0.00    +0.006 A 
ATOM     37  C   UNL     1      19.997  16.189  -3.999  0.00  0.00    +0.000 A 
ATOM     38  C   UNL     1      18.635  15.924  -4.117  0.00  0.00    +0.000 A 
ATOM     39  C   UNL     1      18.060  14.893  -3.376  0.00  0.00    +0.000 A 
ATOM     40  C   UNL     1      18.849  14.122  -2.520  0.00  0.00    +0.006 A 
ENDBRANCH  34  35
ENDBRANCH  33  34
ENDBRANCH  32  33
ENDBRANCH  30  32
ENDBRANCH  26  28
ENDBRANCH  25  26
ENDBRANCH  24  25
ENDBRANCH   1  24
TORSDOF 14
