REMARK VINA RESULT:    -5.385      4.035      9.126
REMARK INTER + INTRA:         -12.354
REMARK INTER:                  -9.319
REMARK INTRA:                  -3.035
REMARK UNBOUND:                -3.035
REMARK  Name = lig_assembled_22.pdb
REMARK  15 active torsions:
REMARK  status: ('A' for Active; 'I' for Inactive)
REMARK    1  A    between atoms: _2  and  _8
REMARK    2  A    between atoms: _4  and  _8
REMARK    3  A    between atoms: _4  and  _11
REMARK    4  A    between atoms: _5  and  _6
REMARK    5  A    between atoms: _5  and  _13
REMARK    6  A    between atoms: _8  and  _9
REMARK    7  A    between atoms: _8  and  _10
REMARK    8  A    between atoms: _13  and  _15
REMARK    9  A    between atoms: _14  and  _19
REMARK   10  A    between atoms: _15  and  _18
REMARK   11  A    between atoms: _23  and  _33
REMARK   12  A    between atoms: _25  and  _26
REMARK   13  A    between atoms: _27  and  _29
REMARK   14  A    between atoms: _29  and  _31
REMARK   15  A    between atoms: _31  and  _33
REMARK                            x       y       z     vdW  Elec       q    Type
REMARK                         _______ _______ _______ _____ _____    ______ ____
ROOT
ATOM      1  C   UNL     1      32.373  12.090   1.657  0.00  0.00    +0.400 C 
ATOM      2  N   UNL     1      31.721  13.253   1.322  0.00  0.00    -0.278 N 
ATOM      3  H   UNL     1      30.937  12.921   0.676  0.00  0.00    +0.152 HD
ATOM      4  O   UNL     1      31.856  11.023   1.336  0.00  0.00    -0.226 OA
ENDROOT
BRANCH   1   5
ATOM      5  O   UNL     1      33.505  12.237   2.263  0.00  0.00    -0.450 OA
BRANCH   5   6
ATOM      6  C   UNL     1      34.822  12.650   1.981  0.00  0.00    +0.240 C 
BRANCH   6   7
ATOM      7  C   UNL     1      35.586  11.889   0.881  0.00  0.00    +0.100 C 
BRANCH   7   9
ATOM      8  N   UNL     1      34.886  13.700  -0.645  0.00  0.00    -0.134 NA
ATOM      9  C   UNL     1      35.188  12.381  -0.451  0.00  0.00    +0.086 A 
ATOM     10  C   UNL     1      35.047  11.709  -1.646  0.00  0.00    +0.135 A 
ATOM     11  N   UNL     1      34.658  12.673  -2.532  0.00  0.00    -0.235 N 
ATOM     12  N   UNL     1      34.561  13.868  -1.917  0.00  0.00    -0.064 NA
BRANCH  11  13
ATOM     13  C   UNL     1      34.338  12.553  -3.956  0.00  0.00    +0.155 C 
ATOM     14  C   UNL     1      34.169  11.082  -4.393  0.00  0.00    +0.048 C 
ATOM     15  C   UNL     1      35.485  13.176  -4.773  0.00  0.00    +0.048 C 
BRANCH  13  16
ATOM     16  C   UNL     1      33.028  13.282  -4.269  0.00  0.00    +0.332 C 
ATOM     17  O   UNL     1      32.793  13.847  -5.331  0.00  0.00    -0.248 OA
BRANCH  16  18
ATOM     18  O   UNL     1      32.105  13.269  -3.277  0.00  0.00    -0.479 OA
ATOM     19  H   UNL     1      32.388  13.634  -2.415  0.00  0.00    +0.295 HD
ENDBRANCH  16  18
ENDBRANCH  13  16
ENDBRANCH  11  13
ENDBRANCH   7   9
ENDBRANCH   6   7
ENDBRANCH   5   6
ENDBRANCH   1   5
BRANCH   2  20
ATOM     20  C   UNL     1      31.613  14.703   1.461  0.00  0.00    +0.152 C 
BRANCH  20  21
ATOM     21  C   UNL     1      31.071  15.465   0.234  0.00  0.00    +0.193 C 
ATOM     22  O   UNL     1      31.455  14.702  -0.931  0.00  0.00    -0.219 OA
BRANCH  21  23
ATOM     23  C   UNL     1      29.540  15.619   0.107  0.00  0.00    +0.212 C 
ATOM     24  O   UNL     1      29.216  16.752  -0.715  0.00  0.00    -0.218 OA
BRANCH  23  25
ATOM     25  C   UNL     1      28.832  14.343  -0.492  0.00  0.00    +0.171 C 
ATOM     26  O   UNL     1      28.062  14.638  -1.652  0.00  0.00    -0.343 OA
ATOM     27  C   UNL     1      27.148  13.758  -2.236  0.00  0.00    +0.220 C 
ATOM     28  C   UNL     1      26.162  13.190  -1.201  0.00  0.00    +0.076 C 
ATOM     29  C   UNL     1      26.991  12.594  -0.051  0.00  0.00    +0.177 C 
ATOM     30  O   UNL     1      26.127  12.018   0.918  0.00  0.00    -0.221 OA
ATOM     31  C   UNL     1      27.900  13.692   0.582  0.00  0.00    +0.155 C 
BRANCH  31  32
ATOM     32  N   UNL     1      28.685  13.131   1.679  0.00  0.00    -0.202 NA
ATOM     33  C   UNL     1      28.448  13.154   3.015  0.00  0.00    +0.242 C 
ATOM     34  C   UNL     1      29.261  12.246   3.901  0.00  0.00    +0.096 C 
ATOM     35  O   UNL     1      27.585  13.904   3.467  0.00  0.00    -0.273 OA
ENDBRANCH  31  32
BRANCH  27  36
ATOM     36  C   UNL     1      27.849  12.577  -3.103  0.00  0.00    +0.391 C 
ATOM     37  O   UNL     1      26.848  12.032  -3.821  0.00  0.00    -0.243 OA
ATOM     38  O   UNL     1      29.169  12.785  -3.011  0.00  0.00    -0.243 OA
ENDBRANCH  27  36
ENDBRANCH  23  25
ENDBRANCH  21  23
ENDBRANCH  20  21
ENDBRANCH   2  20
TORSDOF 13
