REMARK VINA RESULT:    -7.196      3.312      8.319
REMARK INTER + INTRA:         -13.241
REMARK INTER:                 -10.947
REMARK INTRA:                  -2.294
REMARK UNBOUND:                -1.418
REMARK  Name = lig_assembled_20.pdb
REMARK  11 active torsions:
REMARK  status: ('A' for Active; 'I' for Inactive)
REMARK    1  A    between atoms: _2  and  _10
REMARK    2  A    between atoms: _7  and  _8
REMARK    3  A    between atoms: _7  and  _16
REMARK    4  A    between atoms: _16  and  _18
REMARK    5  A    between atoms: _17  and  _22
REMARK    6  A    between atoms: _18  and  _21
REMARK    7  A    between atoms: _26  and  _36
REMARK    8  A    between atoms: _28  and  _29
REMARK    9  A    between atoms: _30  and  _32
REMARK   10  A    between atoms: _32  and  _34
REMARK   11  A    between atoms: _34  and  _36
REMARK                            x       y       z     vdW  Elec       q    Type
REMARK                         _______ _______ _______ _____ _____    ______ ____
ROOT
ATOM      1  C   UNL     1      25.539  15.817  -4.241  0.00  0.00    +0.400 C 
ATOM      2  N   UNL     1      24.203  15.496  -4.187  0.00  0.00    -0.278 N 
ATOM      3  H   UNL     1      24.014  15.062  -5.145  0.00  0.00    +0.152 HD
ATOM      4  O   UNL     1      26.196  15.406  -5.194  0.00  0.00    -0.226 OA
ENDROOT
BRANCH   1   5
ATOM      5  O   UNL     1      25.975  16.562  -3.279  0.00  0.00    -0.450 OA
BRANCH   5   6
ATOM      6  C   UNL     1      27.118  17.313  -2.943  0.00  0.00    +0.240 C 
BRANCH   6   7
ATOM      7  C   UNL     1      27.294  17.721  -1.468  0.00  0.00    +0.100 C 
BRANCH   7   9
ATOM      8  N   UNL     1      29.655  17.757  -0.708  0.00  0.00    -0.134 NA
ATOM      9  C   UNL     1      28.487  17.075  -0.892  0.00  0.00    +0.086 A 
ATOM     10  C   UNL     1      28.654  15.778  -0.465  0.00  0.00    +0.139 A 
ATOM     11  N   UNL     1      29.955  15.711  -0.021  0.00  0.00    -0.220 N 
ATOM     12  N   UNL     1      30.541  16.923  -0.178  0.00  0.00    -0.061 NA
BRANCH  11  13
ATOM     13  C   UNL     1      30.643  14.597   0.527  0.00  0.00    +0.068 A 
ATOM     14  C   UNL     1      31.029  13.535  -0.308  0.00  0.00    +0.030 A 
ATOM     15  C   UNL     1      31.713  12.421   0.199  0.00  0.00    +0.030 A 
ATOM     16  C   UNL     1      31.995  12.414   1.569  0.00  0.00    +0.066 A 
ATOM     17  C   UNL     1      31.625  13.448   2.420  0.00  0.00    +0.021 A 
ATOM     18  C   UNL     1      32.092  13.047   3.690  0.00  0.00    +0.142 A 
ATOM     19  N   UNL     1      32.707  11.863   3.663  0.00  0.00    -0.181 NA
ATOM     20  N   UNL     1      32.637  11.505   2.368  0.00  0.00    -0.277 N 
ATOM     21  H   UNL     1      33.045  10.620   2.091  0.00  0.00    +0.189 HD
ATOM     22  C   UNL     1      30.938  14.560   1.902  0.00  0.00    +0.039 A 
ENDBRANCH  11  13
ENDBRANCH   7   9
ENDBRANCH   6   7
ENDBRANCH   5   6
ENDBRANCH   1   5
BRANCH   2  23
ATOM     23  C   UNL     1      22.960  15.470  -3.421  0.00  0.00    +0.152 C 
BRANCH  23  24
ATOM     24  C   UNL     1      22.912  14.482  -2.237  0.00  0.00    +0.193 C 
ATOM     25  O   UNL     1      21.570  14.535  -1.706  0.00  0.00    -0.219 OA
BRANCH  24  26
ATOM     26  C   UNL     1      23.145  12.986  -2.545  0.00  0.00    +0.212 C 
ATOM     27  O   UNL     1      23.114  12.754  -3.962  0.00  0.00    -0.218 OA
BRANCH  26  28
ATOM     28  C   UNL     1      24.508  12.437  -1.975  0.00  0.00    +0.171 C 
ATOM     29  O   UNL     1      25.423  12.070  -3.002  0.00  0.00    -0.343 OA
ATOM     30  C   UNL     1      26.594  11.337  -2.790  0.00  0.00    +0.220 C 
ATOM     31  C   UNL     1      26.327  10.058  -1.977  0.00  0.00    +0.076 C 
ATOM     32  C   UNL     1      25.581  10.471  -0.697  0.00  0.00    +0.177 C 
ATOM     33  O   UNL     1      25.344   9.328   0.112  0.00  0.00    -0.221 OA
ATOM     34  C   UNL     1      24.247  11.194  -1.062  0.00  0.00    +0.155 C 
BRANCH  34  35
ATOM     35  N   UNL     1      23.532  11.582   0.151  0.00  0.00    -0.202 NA
ATOM     36  C   UNL     1      22.256  11.315   0.529  0.00  0.00    +0.242 C 
ATOM     37  C   UNL     1      21.863  11.582   1.959  0.00  0.00    +0.096 C 
ATOM     38  O   UNL     1      21.460  10.867  -0.294  0.00  0.00    -0.273 OA
ENDBRANCH  34  35
BRANCH  30  39
ATOM     39  C   UNL     1      27.799  12.215  -2.144  0.00  0.00    +0.391 C 
ATOM     40  O   UNL     1      28.649  11.308  -1.625  0.00  0.00    -0.243 OA
ATOM     41  O   UNL     1      27.652  13.455  -2.625  0.00  0.00    -0.243 OA
ENDBRANCH  30  39
ENDBRANCH  26  28
ENDBRANCH  24  26
ENDBRANCH  23  24
ENDBRANCH   2  23
TORSDOF 11
