REMARK VINA RESULT:    -6.297      1.482      3.574
REMARK INTER + INTRA:         -13.736
REMARK INTER:                 -11.969
REMARK INTRA:                  -1.767
REMARK UNBOUND:                -2.286
REMARK  Name = lig_assembled_62.pdb
REMARK  15 active torsions:
REMARK  status: ('A' for Active; 'I' for Inactive)
REMARK    1  A    between atoms: _2  and  _9
REMARK    2  A    between atoms: _5  and  _9
REMARK    3  A    between atoms: _6  and  _7
REMARK    4  A    between atoms: _6  and  _14
REMARK    5  A    between atoms: _9  and  _10
REMARK    6  A    between atoms: _10  and  _13
REMARK    7  A    between atoms: _11  and  _13
REMARK    8  A    between atoms: _14  and  _16
REMARK    9  A    between atoms: _15  and  _20
REMARK   10  A    between atoms: _16  and  _19
REMARK   11  A    between atoms: _24  and  _34
REMARK   12  A    between atoms: _26  and  _27
REMARK   13  A    between atoms: _28  and  _30
REMARK   14  A    between atoms: _30  and  _32
REMARK   15  A    between atoms: _32  and  _34
REMARK                            x       y       z     vdW  Elec       q    Type
REMARK                         _______ _______ _______ _____ _____    ______ ____
ROOT
ATOM      1  C   UNL     1      27.908  17.437  -0.821  0.00  0.00    +0.400 C 
ATOM      2  N   UNL     1      28.519  16.531   0.015  0.00  0.00    -0.278 N 
ATOM      3  H   UNL     1      28.565  17.050   0.949  0.00  0.00    +0.152 HD
ATOM      4  O   UNL     1      27.428  18.452  -0.324  0.00  0.00    -0.226 OA
ENDROOT
BRANCH   2   5
ATOM      5  C   UNL     1      29.104  15.206   0.199  0.00  0.00    +0.152 C 
BRANCH   5   6
ATOM      6  C   UNL     1      30.464  14.963  -0.488  0.00  0.00    +0.193 C 
ATOM      7  O   UNL     1      31.138  16.240  -0.539  0.00  0.00    -0.219 OA
BRANCH   6   8
ATOM      8  C   UNL     1      31.467  14.027   0.223  0.00  0.00    +0.212 C 
ATOM      9  O   UNL     1      30.819  12.809   0.624  0.00  0.00    -0.218 OA
BRANCH   8  10
ATOM     10  C   UNL     1      32.718  13.663  -0.665  0.00  0.00    +0.171 C 
ATOM     11  O   UNL     1      32.359  12.996  -1.870  0.00  0.00    -0.343 OA
ATOM     12  C   UNL     1      33.267  12.352  -2.714  0.00  0.00    +0.220 C 
ATOM     13  C   UNL     1      34.174  11.380  -1.940  0.00  0.00    +0.076 C 
ATOM     14  C   UNL     1      34.813  12.165  -0.782  0.00  0.00    +0.177 C 
ATOM     15  O   UNL     1      35.695  11.321  -0.056  0.00  0.00    -0.221 OA
ATOM     16  C   UNL     1      33.703  12.756   0.142  0.00  0.00    +0.155 C 
BRANCH  16  17
ATOM     17  N   UNL     1      34.306  13.497   1.247  0.00  0.00    -0.202 NA
ATOM     18  C   UNL     1      34.217  13.285   2.585  0.00  0.00    +0.242 C 
ATOM     19  C   UNL     1      35.174  14.017   3.490  0.00  0.00    +0.096 C 
ATOM     20  O   UNL     1      33.370  12.509   3.022  0.00  0.00    -0.273 OA
ENDBRANCH  16  17
BRANCH  12  21
ATOM     21  C   UNL     1      34.133  13.373  -3.634  0.00  0.00    +0.391 C 
ATOM     22  O   UNL     1      35.292  12.729  -3.871  0.00  0.00    -0.243 OA
ATOM     23  O   UNL     1      33.275  14.311  -4.053  0.00  0.00    -0.243 OA
ENDBRANCH  12  21
ENDBRANCH   8  10
ENDBRANCH   6   8
ENDBRANCH   5   6
ENDBRANCH   2   5
BRANCH   1  24
ATOM     24  O   UNL     1      27.928  17.138  -2.079  0.00  0.00    -0.450 OA
BRANCH  24  25
ATOM     25  C   UNL     1      27.137  17.316  -3.231  0.00  0.00    +0.240 C 
BRANCH  25  26
ATOM     26  C   UNL     1      26.759  16.057  -4.035  0.00  0.00    +0.100 C 
BRANCH  26  28
ATOM     27  N   UNL     1      25.007  15.528  -2.366  0.00  0.00    -0.134 NA
ATOM     28  C   UNL     1      25.402  15.606  -3.675  0.00  0.00    +0.086 A 
ATOM     29  C   UNL     1      24.357  15.214  -4.481  0.00  0.00    +0.134 A 
ATOM     30  N   UNL     1      23.360  14.894  -3.605  0.00  0.00    -0.237 N 
ATOM     31  N   UNL     1      23.756  15.093  -2.334  0.00  0.00    -0.065 NA
BRANCH  30  32
ATOM     32  C   UNL     1      22.010  14.432  -3.871  0.00  0.00    +0.219 C 
BRANCH  32  33
ATOM     33  C   UNL     1      21.087  15.612  -4.126  0.00  0.00    +0.237 C 
ATOM     34  O   UNL     1      20.120  15.583  -4.885  0.00  0.00    -0.274 OA
ATOM     35  N   UNL     1      21.343  16.744  -3.401  0.00  0.00    -0.328 N 
ATOM     36  H   UNL     1      22.063  16.807  -2.693  0.00  0.00    +0.145 HD
ATOM     37  H   UNL     1      20.738  17.542  -3.544  0.00  0.00    +0.145 HD
ENDBRANCH  32  33
BRANCH  32  38
ATOM     38  C   UNL     1      21.494  13.575  -2.717  0.00  0.00    +0.195 C 
BRANCH  38  39
ATOM     39  O   UNL     1      20.704  14.386  -1.837  0.00  0.00    -0.380 OA
ATOM     40  C   UNL     1      20.309  13.672  -0.672  0.00  0.00    +0.194 C 
ENDBRANCH  38  39
ENDBRANCH  32  38
ENDBRANCH  30  32
ENDBRANCH  26  28
ENDBRANCH  25  26
ENDBRANCH  24  25
ENDBRANCH   1  24
TORSDOF 14
