REMARK VINA RESULT:    -6.732      2.505      4.304
REMARK INTER + INTRA:         -12.911
REMARK INTER:                 -11.013
REMARK INTRA:                  -1.898
REMARK UNBOUND:                -1.850
REMARK  Name = lig_assembled_2.pdb
REMARK  11 active torsions:
REMARK  status: ('A' for Active; 'I' for Inactive)
REMARK    1  A    between atoms: _2  and  _8
REMARK    2  A    between atoms: _5  and  _6
REMARK    3  A    between atoms: _5  and  _13
REMARK    4  A    between atoms: _13  and  _15
REMARK    5  A    between atoms: _14  and  _19
REMARK    6  A    between atoms: _15  and  _18
REMARK    7  A    between atoms: _23  and  _33
REMARK    8  A    between atoms: _25  and  _26
REMARK    9  A    between atoms: _27  and  _29
REMARK   10  A    between atoms: _29  and  _31
REMARK   11  A    between atoms: _31  and  _33
REMARK                            x       y       z     vdW  Elec       q    Type
REMARK                         _______ _______ _______ _____ _____    ______ ____
ROOT
ATOM      1  C   UNL     1      25.855  15.820  -4.248  0.00  0.00    +0.400 C 
ATOM      2  N   UNL     1      26.744  16.394  -3.369  0.00  0.00    -0.278 N 
ATOM      3  H   UNL     1      27.631  16.508  -3.955  0.00  0.00    +0.152 HD
ATOM      4  O   UNL     1      26.174  15.751  -5.432  0.00  0.00    -0.226 OA
ENDROOT
BRANCH   1   5
ATOM      5  O   UNL     1      24.761  15.373  -3.725  0.00  0.00    -0.450 OA
BRANCH   5   6
ATOM      6  C   UNL     1      23.575  15.864  -3.144  0.00  0.00    +0.240 C 
BRANCH   6   7
ATOM      7  C   UNL     1      22.290  15.039  -3.345  0.00  0.00    +0.100 C 
BRANCH   7   9
ATOM      8  N   UNL     1      20.805  14.032  -1.641  0.00  0.00    -0.134 NA
ATOM      9  C   UNL     1      22.052  14.169  -2.177  0.00  0.00    +0.086 A 
ATOM     10  C   UNL     1      22.936  13.391  -1.466  0.00  0.00    +0.139 A 
ATOM     11  N   UNL     1      22.169  12.765  -0.510  0.00  0.00    -0.220 N 
ATOM     12  N   UNL     1      20.884  13.184  -0.625  0.00  0.00    -0.061 NA
BRANCH  11  13
ATOM     13  C   UNL     1      22.563  11.803   0.457  0.00  0.00    +0.067 A 
ATOM     14  C   UNL     1      23.790  11.131   0.344  0.00  0.00    +0.029 A 
ATOM     15  C   UNL     1      24.143  10.159   1.287  0.00  0.00    +0.022 A 
ATOM     16  C   UNL     1      23.280   9.860   2.339  0.00  0.00    +0.041 A 
ATOM     17 CL   UNL     1      23.713   8.648   3.480  0.00  0.00    -0.084 Cl
ATOM     18  C   UNL     1      22.067  10.533   2.467  0.00  0.00    +0.022 A 
ATOM     19  C   UNL     1      21.707  11.505   1.530  0.00  0.00    +0.029 A 
ENDBRANCH  11  13
ENDBRANCH   7   9
ENDBRANCH   6   7
ENDBRANCH   5   6
ENDBRANCH   1   5
BRANCH   2  20
ATOM     20  C   UNL     1      27.008  16.917  -2.032  0.00  0.00    +0.152 C 
BRANCH  20  21
ATOM     21  C   UNL     1      28.276  16.385  -1.332  0.00  0.00    +0.193 C 
ATOM     22  O   UNL     1      28.478  17.205  -0.160  0.00  0.00    -0.219 OA
BRANCH  21  23
ATOM     23  C   UNL     1      28.239  14.939  -0.790  0.00  0.00    +0.212 C 
ATOM     24  O   UNL     1      27.644  14.056  -1.755  0.00  0.00    -0.218 OA
BRANCH  23  25
ATOM     25  C   UNL     1      29.663  14.380  -0.406  0.00  0.00    +0.171 C 
ATOM     26  O   UNL     1      30.475  14.121  -1.547  0.00  0.00    -0.343 OA
ATOM     27  C   UNL     1      31.673  13.404  -1.514  0.00  0.00    +0.220 C 
ATOM     28  C   UNL     1      31.512  12.057  -0.788  0.00  0.00    +0.076 C 
ATOM     29  C   UNL     1      30.893  12.345   0.589  0.00  0.00    +0.177 C 
ATOM     30  O   UNL     1      30.758  11.134   1.320  0.00  0.00    -0.221 OA
ATOM     31  C   UNL     1      29.516  13.061   0.421  0.00  0.00    +0.155 C 
BRANCH  31  32
ATOM     32  N   UNL     1      28.921  13.330   1.727  0.00  0.00    -0.202 NA
ATOM     33  C   UNL     1      27.711  12.964   2.222  0.00  0.00    +0.242 C 
ATOM     34  C   UNL     1      27.466  13.119   3.700  0.00  0.00    +0.096 C 
ATOM     35  O   UNL     1      26.854  12.519   1.462  0.00  0.00    -0.273 OA
ENDBRANCH  31  32
BRANCH  27  36
ATOM     36  C   UNL     1      32.922  14.257  -0.920  0.00  0.00    +0.391 C 
ATOM     37  O   UNL     1      33.939  13.376  -0.845  0.00  0.00    -0.243 OA
ATOM     38  O   UNL     1      32.569  15.544  -1.015  0.00  0.00    -0.243 OA
ENDBRANCH  27  36
ENDBRANCH  23  25
ENDBRANCH  21  23
ENDBRANCH  20  21
ENDBRANCH   2  20
TORSDOF 11
