REMARK VINA RESULT:    -7.654      1.565      3.113
REMARK INTER + INTRA:         -14.661
REMARK INTER:                 -13.054
REMARK INTRA:                  -1.607
REMARK UNBOUND:                -2.085
REMARK  Name = lig_assembled_51.pdb
REMARK  11 active torsions:
REMARK  status: ('A' for Active; 'I' for Inactive)
REMARK    1  A    between atoms: _2  and  _8
REMARK    2  A    between atoms: _5  and  _6
REMARK    3  A    between atoms: _5  and  _17
REMARK    4  A    between atoms: _17  and  _19
REMARK    5  A    between atoms: _18  and  _23
REMARK    6  A    between atoms: _19  and  _22
REMARK    7  A    between atoms: _27  and  _37
REMARK    8  A    between atoms: _29  and  _30
REMARK    9  A    between atoms: _31  and  _33
REMARK   10  A    between atoms: _33  and  _35
REMARK   11  A    between atoms: _35  and  _37
REMARK                            x       y       z     vdW  Elec       q    Type
REMARK                         _______ _______ _______ _____ _____    ______ ____
ROOT
ATOM      1  C   UNL     1      28.312  17.199  -0.604  0.00  0.00    +0.400 C 
ATOM      2  N   UNL     1      29.069  16.156  -0.127  0.00  0.00    -0.278 N 
ATOM      3  H   UNL     1      29.362  16.488   0.846  0.00  0.00    +0.152 HD
ATOM      4  O   UNL     1      28.009  18.099   0.175  0.00  0.00    -0.226 OA
ENDROOT
BRANCH   1   5
ATOM      5  O   UNL     1      28.012  17.145  -1.861  0.00  0.00    -0.450 OA
BRANCH   5   6
ATOM      6  C   UNL     1      26.938  17.454  -2.718  0.00  0.00    +0.240 C 
BRANCH   6   7
ATOM      7  C   UNL     1      26.616  16.454  -3.844  0.00  0.00    +0.100 C 
BRANCH   7   9
ATOM      8  N   UNL     1      26.339  14.134  -3.026  0.00  0.00    -0.134 NA
ATOM      9  C   UNL     1      25.788  15.349  -3.329  0.00  0.00    +0.086 A 
ATOM     10  C   UNL     1      24.437  15.305  -3.073  0.00  0.00    +0.134 A 
ATOM     11  N   UNL     1      24.219  14.032  -2.621  0.00  0.00    -0.245 N 
ATOM     12  N   UNL     1      25.372  13.337  -2.594  0.00  0.00    -0.065 NA
BRANCH  11  13
ATOM     13  C   UNL     1      22.947  13.432  -2.211  0.00  0.00    +0.066 C 
ATOM     14  C   UNL     1      23.103  12.743  -0.829  0.00  0.00    +0.034 C 
ATOM     15  C   UNL     1      21.766  12.146  -0.359  0.00  0.00    -0.008 C 
ATOM     16  C   UNL     1      20.719  13.267  -0.257  0.00  0.00    +0.007 C 
ATOM     17  C   UNL     1      20.519  13.930  -1.631  0.00  0.00    -0.008 C 
ATOM     18  C   UNL     1      20.052  12.872  -2.642  0.00  0.00    +0.007 C 
ATOM     19  C   UNL     1      21.100  11.755  -2.754  0.00  0.00    -0.008 C 
ATOM     20  C   UNL     1      21.291  11.098  -1.378  0.00  0.00    +0.007 C 
ATOM     21  C   UNL     1      21.855  14.530  -2.102  0.00  0.00    +0.034 C 
ATOM     22  C   UNL     1      22.437  12.357  -3.219  0.00  0.00    +0.034 C 
ENDBRANCH  11  13
ENDBRANCH   7   9
ENDBRANCH   6   7
ENDBRANCH   5   6
ENDBRANCH   1   5
BRANCH   2  23
ATOM     23  C   UNL     1      29.627  14.823  -0.341  0.00  0.00    +0.152 C 
BRANCH  23  24
ATOM     24  C   UNL     1      31.149  14.682  -0.133  0.00  0.00    +0.193 C 
ATOM     25  O   UNL     1      31.759  15.851  -0.723  0.00  0.00    -0.219 OA
BRANCH  24  26
ATOM     26  C   UNL     1      31.673  14.665   1.320  0.00  0.00    +0.212 C 
ATOM     27  O   UNL     1      31.146  15.780   2.057  0.00  0.00    -0.218 OA
BRANCH  26  28
ATOM     28  C   UNL     1      31.322  13.338   2.095  0.00  0.00    +0.171 C 
ATOM     29  O   UNL     1      29.991  13.335   2.600  0.00  0.00    -0.343 OA
ATOM     30  C   UNL     1      29.499  12.406   3.521  0.00  0.00    +0.220 C 
ATOM     31  C   UNL     1      30.423  12.271   4.744  0.00  0.00    +0.076 C 
ATOM     32  C   UNL     1      31.840  11.979   4.223  0.00  0.00    +0.177 C 
ATOM     33  O   UNL     1      32.729  11.805   5.318  0.00  0.00    -0.221 OA
ATOM     34  C   UNL     1      32.315  13.131   3.284  0.00  0.00    +0.155 C 
BRANCH  34  35
ATOM     35  N   UNL     1      33.664  12.861   2.793  0.00  0.00    -0.202 NA
ATOM     36  C   UNL     1      34.819  13.540   3.010  0.00  0.00    +0.242 C 
ATOM     37  C   UNL     1      36.119  12.882   2.628  0.00  0.00    +0.096 C 
ATOM     38  O   UNL     1      34.779  14.664   3.507  0.00  0.00    -0.273 OA
ENDBRANCH  34  35
BRANCH  30  39
ATOM     39  C   UNL     1      29.164  10.959   2.863  0.00  0.00    +0.391 C 
ATOM     40  O   UNL     1      28.994  10.131   3.912  0.00  0.00    -0.243 OA
ATOM     41  O   UNL     1      28.889  11.193   1.574  0.00  0.00    -0.243 OA
ENDBRANCH  30  39
ENDBRANCH  26  28
ENDBRANCH  24  26
ENDBRANCH  23  24
ENDBRANCH   2  23
TORSDOF 11
