REMARK VINA RESULT:    -7.865      1.688      2.457
REMARK INTER + INTRA:         -16.111
REMARK INTER:                 -14.213
REMARK INTRA:                  -1.899
REMARK UNBOUND:                -1.120
REMARK  Name = lig_assembled_76.pdb
REMARK  16 active torsions:
REMARK  status: ('A' for Active; 'I' for Inactive)
REMARK    1  A    between atoms: _2  and  _8
REMARK    2  A    between atoms: _5  and  _6
REMARK    3  A    between atoms: _5  and  _18
REMARK    4  A    between atoms: _8  and  _9
REMARK    5  A    between atoms: _9  and  _10
REMARK    6  A    between atoms: _9  and  _17
REMARK    7  A    between atoms: _10  and  _11
REMARK    8  A    between atoms: _11  and  _12
REMARK    9  A    between atoms: _18  and  _20
REMARK   10  A    between atoms: _19  and  _24
REMARK   11  A    between atoms: _20  and  _23
REMARK   12  A    between atoms: _28  and  _38
REMARK   13  A    between atoms: _30  and  _31
REMARK   14  A    between atoms: _32  and  _34
REMARK   15  A    between atoms: _34  and  _36
REMARK   16  A    between atoms: _36  and  _38
REMARK                            x       y       z     vdW  Elec       q    Type
REMARK                         _______ _______ _______ _____ _____    ______ ____
ROOT
ATOM      1  C   UNL     1      28.803  16.987  -0.496  0.00  0.00    +0.400 C 
ATOM      2  N   UNL     1      28.938  15.868   0.292  0.00  0.00    -0.278 N 
ATOM      3  H   UNL     1      29.642  16.174   1.036  0.00  0.00    +0.152 HD
ATOM      4  O   UNL     1      29.311  18.035  -0.106  0.00  0.00    -0.226 OA
ENDROOT
BRANCH   1   5
ATOM      5  O   UNL     1      28.167  16.816  -1.608  0.00  0.00    -0.450 OA
BRANCH   5   6
ATOM      6  C   UNL     1      27.117  17.404  -2.340  0.00  0.00    +0.240 C 
BRANCH   6   7
ATOM      7  C   UNL     1      27.000  17.039  -3.833  0.00  0.00    +0.100 C 
BRANCH   7   9
ATOM      8  N   UNL     1      25.691  15.481  -5.250  0.00  0.00    -0.134 NA
ATOM      9  C   UNL     1      25.873  16.116  -4.048  0.00  0.00    +0.086 A 
ATOM     10  C   UNL     1      24.864  15.749  -3.186  0.00  0.00    +0.133 A 
ATOM     11  N   UNL     1      24.108  14.887  -3.919  0.00  0.00    -0.249 N 
ATOM     12  N   UNL     1      24.597  14.734  -5.161  0.00  0.00    -0.065 NA
BRANCH  11  13
ATOM     13  C   UNL     1      22.846  14.285  -3.551  0.00  0.00    +0.176 C 
BRANCH  13  14
ATOM     14  C   UNL     1      22.122  15.050  -2.439  0.00  0.00    +0.136 C 
BRANCH  14  15
ATOM     15  O   UNL     1      21.429  16.181  -2.988  0.00  0.00    -0.390 OA
ATOM     16  H   UNL     1      21.303  16.044  -3.942  0.00  0.00    +0.210 HD
ENDBRANCH  14  15
BRANCH  14  17
ATOM     17  C   UNL     1      21.082  14.184  -1.711  0.00  0.00    +0.038 C 
BRANCH  17  18
ATOM     18  C   UNL     1      21.389  12.686  -1.768  0.00  0.00    +0.038 C 
BRANCH  18  19
ATOM     19  C   UNL     1      22.039  12.192  -0.502  0.00  0.00    -0.047 A 
ATOM     20  C   UNL     1      23.427  12.005  -0.446  0.00  0.00    +0.003 A 
ATOM     21  C   UNL     1      24.034  11.564   0.730  0.00  0.00    +0.000 A 
ATOM     22  C   UNL     1      23.259  11.302   1.858  0.00  0.00    +0.000 A 
ATOM     23  C   UNL     1      21.877  11.475   1.809  0.00  0.00    +0.000 A 
ATOM     24  C   UNL     1      21.267  11.915   0.633  0.00  0.00    +0.003 A 
ENDBRANCH  18  19
ENDBRANCH  17  18
ENDBRANCH  14  17
ENDBRANCH  13  14
ENDBRANCH  11  13
ENDBRANCH   7   9
ENDBRANCH   6   7
ENDBRANCH   5   6
ENDBRANCH   1   5
BRANCH   2  25
ATOM     25  C   UNL     1      28.550  14.488   0.569  0.00  0.00    +0.152 C 
BRANCH  25  26
ATOM     26  C   UNL     1      29.127  13.866   1.857  0.00  0.00    +0.193 C 
ATOM     27  O   UNL     1      28.060  13.860   2.830  0.00  0.00    -0.219 OA
BRANCH  26  28
ATOM     28  C   UNL     1      29.597  12.396   1.793  0.00  0.00    +0.212 C 
ATOM     29  O   UNL     1      29.508  11.899   0.447  0.00  0.00    -0.218 OA
BRANCH  28  30
ATOM     30  C   UNL     1      31.072  12.188   2.310  0.00  0.00    +0.171 C 
ATOM     31  O   UNL     1      31.177  12.301   3.725  0.00  0.00    -0.343 OA
ATOM     32  C   UNL     1      32.385  12.404   4.420  0.00  0.00    +0.220 C 
ATOM     33  C   UNL     1      33.288  13.503   3.834  0.00  0.00    +0.076 C 
ATOM     34  C   UNL     1      33.430  13.230   2.327  0.00  0.00    +0.177 C 
ATOM     35  O   UNL     1      34.291  14.197   1.742  0.00  0.00    -0.221 OA
ATOM     36  C   UNL     1      32.026  13.235   1.646  0.00  0.00    +0.155 C 
BRANCH  36  37
ATOM     37  N   UNL     1      32.157  12.984   0.213  0.00  0.00    -0.202 NA
ATOM     38  C   UNL     1      32.128  13.855  -0.827  0.00  0.00    +0.242 C 
ATOM     39  C   UNL     1      32.582  13.370  -2.179  0.00  0.00    +0.096 C 
ATOM     40  O   UNL     1      31.739  15.007  -0.644  0.00  0.00    -0.273 OA
ENDBRANCH  36  37
BRANCH  32  41
ATOM     41  C   UNL     1      33.175  10.991   4.557  0.00  0.00    +0.391 C 
ATOM     42  O   UNL     1      34.426  11.327   4.927  0.00  0.00    -0.243 OA
ATOM     43  O   UNL     1      32.233  10.039   4.550  0.00  0.00    -0.243 OA
ENDBRANCH  32  41
ENDBRANCH  28  30
ENDBRANCH  26  28
ENDBRANCH  25  26
ENDBRANCH   2  25
TORSDOF 16
