REMARK VINA RESULT:    -6.951      2.417      8.035
REMARK INTER + INTRA:         -13.935
REMARK INTER:                 -11.246
REMARK INTRA:                  -2.689
REMARK UNBOUND:                -1.904
REMARK  Name = lig_assembled_73.pdb
REMARK  13 active torsions:
REMARK  status: ('A' for Active; 'I' for Inactive)
REMARK    1  A    between atoms: _2  and  _9
REMARK    2  A    between atoms: _3  and  _13
REMARK    3  A    between atoms: _6  and  _7
REMARK    4  A    between atoms: _6  and  _17
REMARK    5  A    between atoms: _12  and  _15
REMARK    6  A    between atoms: _17  and  _19
REMARK    7  A    between atoms: _18  and  _23
REMARK    8  A    between atoms: _19  and  _22
REMARK    9  A    between atoms: _27  and  _37
REMARK   10  A    between atoms: _29  and  _30
REMARK   11  A    between atoms: _31  and  _33
REMARK   12  A    between atoms: _33  and  _35
REMARK   13  A    between atoms: _35  and  _37
REMARK                            x       y       z     vdW  Elec       q    Type
REMARK                         _______ _______ _______ _____ _____    ______ ____
ROOT
ATOM      1  C   UNL     1      25.536  15.399  -4.378  0.00  0.00    +0.400 C 
ATOM      2  N   UNL     1      25.360  14.429  -3.419  0.00  0.00    -0.278 N 
ATOM      3  H   UNL     1      24.875  13.640  -3.952  0.00  0.00    +0.152 HD
ATOM      4  O   UNL     1      25.301  15.107  -5.547  0.00  0.00    -0.226 OA
ENDROOT
BRANCH   2   5
ATOM      5  C   UNL     1      25.548  13.998  -2.036  0.00  0.00    +0.152 C 
BRANCH   5   6
ATOM      6  C   UNL     1      24.316  13.379  -1.344  0.00  0.00    +0.193 C 
ATOM      7  O   UNL     1      23.181  14.196  -1.707  0.00  0.00    -0.219 OA
BRANCH   6   8
ATOM      8  C   UNL     1      23.908  11.948  -1.758  0.00  0.00    +0.212 C 
ATOM      9  O   UNL     1      24.882  11.387  -2.654  0.00  0.00    -0.218 OA
BRANCH   8  10
ATOM     10  C   UNL     1      23.728  10.971  -0.534  0.00  0.00    +0.171 C 
ATOM     11  O   UNL     1      22.399  10.972  -0.024  0.00  0.00    -0.343 OA
ATOM     12  C   UNL     1      22.021  10.395   1.191  0.00  0.00    +0.220 C 
ATOM     13  C   UNL     1      22.924  10.856   2.347  0.00  0.00    +0.076 C 
ATOM     14  C   UNL     1      24.381  10.592   1.931  0.00  0.00    +0.177 C 
ATOM     15  O   UNL     1      25.258  10.965   2.983  0.00  0.00    -0.221 OA
ATOM     16  C   UNL     1      24.712  11.364   0.616  0.00  0.00    +0.155 C 
BRANCH  16  17
ATOM     17  N   UNL     1      26.097  11.121   0.220  0.00  0.00    -0.202 NA
ATOM     18  C   UNL     1      27.217  11.834   0.501  0.00  0.00    +0.242 C 
ATOM     19  C   UNL     1      28.556  11.203   0.218  0.00  0.00    +0.096 C 
ATOM     20  O   UNL     1      27.116  12.964   0.974  0.00  0.00    -0.273 OA
ENDBRANCH  16  17
BRANCH  12  21
ATOM     21  C   UNL     1      21.909   8.775   1.131  0.00  0.00    +0.391 C 
ATOM     22  O   UNL     1      21.748   8.390   2.412  0.00  0.00    -0.243 OA
ATOM     23  O   UNL     1      21.716   8.465  -0.157  0.00  0.00    -0.243 OA
ENDBRANCH  12  21
ENDBRANCH   8  10
ENDBRANCH   6   8
ENDBRANCH   5   6
ENDBRANCH   2   5
BRANCH   1  24
ATOM     24  O   UNL     1      25.909  16.557  -3.941  0.00  0.00    -0.450 OA
BRANCH  24  25
ATOM     25  C   UNL     1      27.066  17.189  -3.443  0.00  0.00    +0.240 C 
BRANCH  25  26
ATOM     26  C   UNL     1      27.063  17.612  -1.962  0.00  0.00    +0.100 C 
BRANCH  26  28
ATOM     27  N   UNL     1      29.290  17.793  -0.898  0.00  0.00    -0.134 NA
ATOM     28  C   UNL     1      28.220  17.027  -1.259  0.00  0.00    +0.086 A 
ATOM     29  C   UNL     1      28.443  15.729  -0.862  0.00  0.00    +0.139 A 
ATOM     30  N   UNL     1      29.673  15.751  -0.247  0.00  0.00    -0.220 N 
ATOM     31  N   UNL     1      30.168  17.011  -0.283  0.00  0.00    -0.061 NA
BRANCH  30  32
ATOM     32  C   UNL     1      30.389  14.681   0.350  0.00  0.00    +0.074 A 
ATOM     33  C   UNL     1      31.348  13.979  -0.402  0.00  0.00    +0.032 A 
ATOM     34  C   UNL     1      32.061  12.913   0.163  0.00  0.00    +0.054 A 
ATOM     35  C   UNL     1      31.819  12.536   1.483  0.00  0.00    +0.195 A 
ATOM     36  C   UNL     1      30.868  13.235   2.223  0.00  0.00    +0.316 A 
ATOM     37  C   UNL     1      30.150  14.310   1.679  0.00  0.00    +0.116 A 
BRANCH  36  38
ATOM     38  N   UNL     1      30.586  12.859   3.594  0.00  0.00    +0.083 N 
ATOM     39  O   UNL     1      31.537  12.825   4.386  0.00  0.00    +0.042 OA
ATOM     40  O   UNL     1      29.423  12.511   3.847  0.00  0.00    -0.576 OA
ENDBRANCH  36  38
BRANCH  35  41
ATOM     41  O   UNL     1      32.527  11.512   2.038  0.00  0.00    -0.501 OA
ATOM     42  H   UNL     1      33.347  11.361   1.535  0.00  0.00    +0.292 HD
ENDBRANCH  35  41
ENDBRANCH  30  32
ENDBRANCH  26  28
ENDBRANCH  25  26
ENDBRANCH  24  25
ENDBRANCH   1  24
TORSDOF 13
