REMARK VINA RESULT:    -6.102      1.995      3.829
REMARK INTER + INTRA:         -13.662
REMARK INTER:                 -11.146
REMARK INTRA:                  -2.517
REMARK UNBOUND:                -1.675
REMARK  Name = lig_assembled_33.pdb
REMARK  17 active torsions:
REMARK  status: ('A' for Active; 'I' for Inactive)
REMARK    1  A    between atoms: _2  and  _8
REMARK    2  A    between atoms: _4  and  _12
REMARK    3  A    between atoms: _4  and  _13
REMARK    4  A    between atoms: _5  and  _6
REMARK    5  A    between atoms: _5  and  _15
REMARK    6  A    between atoms: _8  and  _9
REMARK    7  A    between atoms: _9  and  _10
REMARK    8  A    between atoms: _10  and  _11
REMARK    9  A    between atoms: _11  and  _12
REMARK   10  A    between atoms: _15  and  _17
REMARK   11  A    between atoms: _16  and  _21
REMARK   12  A    between atoms: _17  and  _20
REMARK   13  A    between atoms: _25  and  _35
REMARK   14  A    between atoms: _27  and  _28
REMARK   15  A    between atoms: _29  and  _31
REMARK   16  A    between atoms: _31  and  _33
REMARK   17  A    between atoms: _33  and  _35
REMARK                            x       y       z     vdW  Elec       q    Type
REMARK                         _______ _______ _______ _____ _____    ______ ____
ROOT
ATOM      1  C   UNL     1      28.894  17.097  -0.519  0.00  0.00    +0.400 C 
ATOM      2  N   UNL     1      28.954  15.949   0.235  0.00  0.00    -0.278 N 
ATOM      3  H   UNL     1      29.645  16.198   1.011  0.00  0.00    +0.152 HD
ATOM      4  O   UNL     1      29.435  18.108  -0.079  0.00  0.00    -0.226 OA
ENDROOT
BRANCH   1   5
ATOM      5  O   UNL     1      28.288  16.989  -1.656  0.00  0.00    -0.450 OA
BRANCH   5   6
ATOM      6  C   UNL     1      27.135  17.477  -2.302  0.00  0.00    +0.240 C 
BRANCH   6   7
ATOM      7  C   UNL     1      26.882  17.014  -3.750  0.00  0.00    +0.100 C 
BRANCH   7   9
ATOM      8  N   UNL     1      25.396  15.402  -4.893  0.00  0.00    -0.134 NA
ATOM      9  C   UNL     1      26.067  15.785  -3.762  0.00  0.00    +0.086 A 
ATOM     10  C   UNL     1      25.826  14.869  -2.762  0.00  0.00    +0.133 A 
ATOM     11  N   UNL     1      25.010  13.952  -3.350  0.00  0.00    -0.251 N 
ATOM     12  N   UNL     1      24.738  14.283  -4.624  0.00  0.00    -0.065 NA
BRANCH  11  13
ATOM     13  C   UNL     1      24.440  12.753  -2.768  0.00  0.00    +0.145 C 
BRANCH  13  14
ATOM     14  C   UNL     1      23.459  13.074  -1.642  0.00  0.00    +0.023 C 
BRANCH  14  15
ATOM     15  C   UNL     1      23.760  12.294  -0.359  0.00  0.00    +0.002 C 
BRANCH  15  16
ATOM     16  C   UNL     1      25.262  12.339  -0.063  0.00  0.00    +0.011 C 
BRANCH  16  17
ATOM     17  C   UNL     1      25.819  10.988   0.379  0.00  0.00    +0.120 C 
BRANCH  17  18
ATOM     18  C   UNL     1      25.744  10.830   1.882  0.00  0.00    +0.305 C 
ATOM     19  O   UNL     1      25.630   9.770   2.476  0.00  0.00    -0.251 OA
BRANCH  18  20
ATOM     20  O   UNL     1      25.823  12.015   2.530  0.00  0.00    -0.481 OA
ATOM     21  H   UNL     1      26.353  11.983   3.347  0.00  0.00    +0.295 HD
ENDBRANCH  18  20
ENDBRANCH  17  18
ENDBRANCH  16  17
ENDBRANCH  15  16
ENDBRANCH  14  15
ENDBRANCH  13  14
ENDBRANCH  11  13
ENDBRANCH   7   9
ENDBRANCH   6   7
ENDBRANCH   5   6
ENDBRANCH   1   5
BRANCH   2  22
ATOM     22  C   UNL     1      28.497  14.579   0.454  0.00  0.00    +0.152 C 
BRANCH  22  23
ATOM     23  C   UNL     1      29.017  13.885   1.729  0.00  0.00    +0.193 C 
ATOM     24  O   UNL     1      27.929  13.889   2.679  0.00  0.00    -0.219 OA
BRANCH  23  25
ATOM     25  C   UNL     1      29.426  12.399   1.618  0.00  0.00    +0.212 C 
ATOM     26  O   UNL     1      29.366  11.963   0.251  0.00  0.00    -0.218 OA
BRANCH  25  27
ATOM     27  C   UNL     1      30.870  12.106   2.178  0.00  0.00    +0.171 C 
ATOM     28  O   UNL     1      30.923  12.138   3.601  0.00  0.00    -0.343 OA
ATOM     29  C   UNL     1      32.105  12.155   4.345  0.00  0.00    +0.220 C 
ATOM     30  C   UNL     1      33.073  13.246   3.855  0.00  0.00    +0.076 C 
ATOM     31  C   UNL     1      33.263  13.050   2.342  0.00  0.00    +0.177 C 
ATOM     32  O   UNL     1      34.183  14.011   1.843  0.00  0.00    -0.221 OA
ATOM     33  C   UNL     1      31.889  13.147   1.610  0.00  0.00    +0.155 C 
BRANCH  33  34
ATOM     34  N   UNL     1      32.067  12.968   0.171  0.00  0.00    -0.202 NA
ATOM     35  C   UNL     1      32.136  13.896  -0.817  0.00  0.00    +0.242 C 
ATOM     36  C   UNL     1      32.618  13.459  -2.176  0.00  0.00    +0.096 C 
ATOM     37  O   UNL     1      31.809  15.058  -0.584  0.00  0.00    -0.273 OA
ENDBRANCH  33  34
BRANCH  29  38
ATOM     38  C   UNL     1      32.835  10.706   4.433  0.00  0.00    +0.391 C 
ATOM     39  O   UNL     1      34.085  10.972   4.860  0.00  0.00    -0.243 OA
ATOM     40  O   UNL     1      31.859   9.794   4.346  0.00  0.00    -0.243 OA
ENDBRANCH  29  38
ENDBRANCH  25  27
ENDBRANCH  23  25
ENDBRANCH  22  23
ENDBRANCH   2  22
TORSDOF 17
