REMARK VINA RESULT:    -7.077      2.919     10.279
REMARK INTER + INTRA:         -15.894
REMARK INTER:                 -11.920
REMARK INTRA:                  -3.974
REMARK UNBOUND:                -3.231
REMARK  Name = lig_assembled_34.pdb
REMARK  14 active torsions:
REMARK  status: ('A' for Active; 'I' for Inactive)
REMARK    1  A    between atoms: _2  and  _8
REMARK    2  A    between atoms: _5  and  _6
REMARK    3  A    between atoms: _5  and  _32
REMARK    4  A    between atoms: _10  and  _11
REMARK    5  A    between atoms: _12  and  _13
REMARK    6  A    between atoms: _17  and  _30
REMARK    7  A    between atoms: _32  and  _34
REMARK    8  A    between atoms: _33  and  _38
REMARK    9  A    between atoms: _34  and  _37
REMARK   10  A    between atoms: _42  and  _52
REMARK   11  A    between atoms: _44  and  _45
REMARK   12  A    between atoms: _46  and  _48
REMARK   13  A    between atoms: _48  and  _50
REMARK   14  A    between atoms: _50  and  _52
REMARK                            x       y       z     vdW  Elec       q    Type
REMARK                         _______ _______ _______ _____ _____    ______ ____
ROOT
ATOM      1  N   UNL     1      33.449  11.042  -3.334  0.00  0.00    -0.134 NA
ATOM      2  C   UNL     1      33.817  12.328  -3.056  0.00  0.00    +0.086 A 
ATOM      3  C   UNL     1      32.701  13.041  -2.694  0.00  0.00    +0.139 A 
ATOM      4  N   UNL     1      31.657  12.141  -2.735  0.00  0.00    -0.220 N 
ATOM      5  N   UNL     1      32.134  10.938  -3.152  0.00  0.00    -0.061 NA
ENDROOT
BRANCH   4   6
ATOM      6  C   UNL     1      30.302  12.356  -2.369  0.00  0.00    +0.068 A 
ATOM      7  C   UNL     1      29.974  13.422  -1.524  0.00  0.00    +0.038 A 
ATOM      8  C   UNL     1      28.667  13.620  -1.017  0.00  0.00    +0.007 A 
ATOM      9  C   UNL     1      27.642  12.751  -1.440  0.00  0.00    -0.008 A 
ATOM     10  C   UNL     1      27.972  11.703  -2.334  0.00  0.00    +0.011 A 
ATOM     11  C   UNL     1      29.288  11.493  -2.782  0.00  0.00    +0.028 A 
BRANCH   9  12
ATOM     12  C   UNL     1      26.225  12.800  -0.949  0.00  0.00    +0.004 A 
ATOM     13  C   UNL     1      25.243  13.465  -1.620  0.00  0.00    +0.026 A 
ATOM     14  C   UNL     1      25.500  14.239  -2.842  0.00  0.00    +0.016 A 
ATOM     15  C   UNL     1      24.564  15.036  -3.378  0.00  0.00    +0.051 A 
ATOM     16  C   UNL     1      23.217  15.135  -2.767  0.00  0.00    +0.183 A 
ATOM     17  O   UNL     1      22.371  15.909  -3.209  0.00  0.00    -0.288 OA
ATOM     18  C   UNL     1      22.903  14.215  -1.656  0.00  0.00    +0.097 A 
ATOM     19  C   UNL     1      23.846  13.411  -1.148  0.00  0.00    +0.140 A 
ATOM     20  O   UNL     1      23.469  12.469  -0.203  0.00  0.00    -0.455 OA
ATOM     21  C   UNL     1      24.448  11.823   0.503  0.00  0.00    +0.140 A 
ATOM     22  C   UNL     1      24.015  10.953   1.505  0.00  0.00    +0.092 A 
ATOM     23  C   UNL     1      24.952  10.310   2.298  0.00  0.00    +0.120 A 
ATOM     24  C   UNL     1      26.307  10.587   2.154  0.00  0.00    +0.046 A 
ATOM     25  C   UNL     1      26.726  11.451   1.137  0.00  0.00    +0.016 A 
ATOM     26  C   UNL     1      25.803  12.031   0.256  0.00  0.00    +0.026 A 
BRANCH  23  27
ATOM     27  O   UNL     1      24.510   9.397   3.210  0.00  0.00    -0.507 OA
ATOM     28  H   UNL     1      23.740   8.948   2.826  0.00  0.00    +0.292 HD
ENDBRANCH  23  27
ENDBRANCH   9  12
BRANCH   8  29
ATOM     29  C   UNL     1      28.501  14.721   0.012  0.00  0.00    +0.072 C 
ATOM     30  O   UNL     1      28.612  15.913  -0.421  0.00  0.00    -0.545 OA
ATOM     31  O   UNL     1      28.346  14.392   1.226  0.00  0.00    -0.545 OA
ENDBRANCH   8  29
ENDBRANCH   4   6
BRANCH   2  32
ATOM     32  C   UNL     1      35.215  12.790  -3.152  0.00  0.00    +0.100 C 
BRANCH  32  33
ATOM     33  C   UNL     1      36.048  12.259  -1.969  0.00  0.00    +0.240 C 
BRANCH  33  34
ATOM     34  O   UNL     1      35.466  12.315  -0.688  0.00  0.00    -0.450 OA
BRANCH  34  35
ATOM     35  C   UNL     1      35.140  13.193   0.204  0.00  0.00    +0.400 C 
ATOM     36  N   UNL     1      35.385  12.836   1.509  0.00  0.00    -0.278 N 
ATOM     37  H   UNL     1      35.237  13.748   2.046  0.00  0.00    +0.152 HD
ATOM     38  O   UNL     1      34.668  14.306  -0.014  0.00  0.00    -0.226 OA
BRANCH  36  39
ATOM     39  C   UNL     1      35.735  11.792   2.468  0.00  0.00    +0.152 C 
BRANCH  39  40
ATOM     40  C   UNL     1      34.679  11.481   3.549  0.00  0.00    +0.193 C 
ATOM     41  O   UNL     1      35.008  10.183   4.090  0.00  0.00    -0.219 OA
BRANCH  40  42
ATOM     42  C   UNL     1      34.622  12.409   4.781  0.00  0.00    +0.212 C 
ATOM     43  O   UNL     1      34.966  13.755   4.413  0.00  0.00    -0.218 OA
BRANCH  42  44
ATOM     44  C   UNL     1      33.212  12.425   5.487  0.00  0.00    +0.171 C 
ATOM     45  O   UNL     1      33.042  11.343   6.397  0.00  0.00    -0.343 OA
ATOM     46  C   UNL     1      31.821  10.978   6.967  0.00  0.00    +0.220 C 
ATOM     47  C   UNL     1      30.719  10.821   5.905  0.00  0.00    +0.076 C 
ATOM     48  C   UNL     1      30.685  12.117   5.079  0.00  0.00    +0.177 C 
ATOM     49  O   UNL     1      29.653  12.041   4.105  0.00  0.00    -0.221 OA
ATOM     50  C   UNL     1      32.074  12.368   4.415  0.00  0.00    +0.155 C 
BRANCH  50  51
ATOM     51  N   UNL     1      32.044  13.595   3.623  0.00  0.00    -0.202 NA
ATOM     52  C   UNL     1      31.936  13.759   2.280  0.00  0.00    +0.242 C 
ATOM     53  C   UNL     1      31.633  15.136   1.750  0.00  0.00    +0.096 C 
ATOM     54  O   UNL     1      32.085  12.792   1.536  0.00  0.00    -0.273 OA
ENDBRANCH  50  51
BRANCH  46  55
ATOM     55  C   UNL     1      31.351  11.958   8.175  0.00  0.00    +0.391 C 
ATOM     56  O   UNL     1      30.029  11.736   8.309  0.00  0.00    -0.243 OA
ATOM     57  O   UNL     1      32.475  12.379   8.768  0.00  0.00    -0.243 OA
ENDBRANCH  46  55
ENDBRANCH  42  44
ENDBRANCH  40  42
ENDBRANCH  39  40
ENDBRANCH  36  39
ENDBRANCH  34  35
ENDBRANCH  33  34
ENDBRANCH  32  33
ENDBRANCH   2  32
TORSDOF 14
