REMARK VINA RESULT:    -6.571      1.521      2.070
REMARK INTER + INTRA:         -14.358
REMARK INTER:                 -12.034
REMARK INTRA:                  -2.324
REMARK UNBOUND:                -2.025
REMARK  Name = lig_assembled_10.pdb
REMARK  16 active torsions:
REMARK  status: ('A' for Active; 'I' for Inactive)
REMARK    1  A    between atoms: _2  and  _8
REMARK    2  A    between atoms: _4  and  _8
REMARK    3  A    between atoms: _4  and  _11
REMARK    4  A    between atoms: _5  and  _6
REMARK    5  A    between atoms: _5  and  _15
REMARK    6  A    between atoms: _8  and  _9
REMARK    7  A    between atoms: _9  and  _10
REMARK    8  A    between atoms: _10  and  _13
REMARK    9  A    between atoms: _15  and  _17
REMARK   10  A    between atoms: _16  and  _21
REMARK   11  A    between atoms: _17  and  _20
REMARK   12  A    between atoms: _25  and  _35
REMARK   13  A    between atoms: _27  and  _28
REMARK   14  A    between atoms: _29  and  _31
REMARK   15  A    between atoms: _31  and  _33
REMARK   16  A    between atoms: _33  and  _35
REMARK                            x       y       z     vdW  Elec       q    Type
REMARK                         _______ _______ _______ _____ _____    ______ ____
ROOT
ATOM      1  C   UNL     1      27.838  17.371  -1.400  0.00  0.00    +0.400 C 
ATOM      2  N   UNL     1      28.192  16.280  -0.642  0.00  0.00    -0.278 N 
ATOM      3  H   UNL     1      28.400  16.703   0.318  0.00  0.00    +0.152 HD
ATOM      4  O   UNL     1      27.668  18.444  -0.827  0.00  0.00    -0.226 OA
ENDROOT
BRANCH   2   5
ATOM      5  C   UNL     1      28.392  14.836  -0.557  0.00  0.00    +0.152 C 
BRANCH   5   6
ATOM      6  C   UNL     1      29.379  14.349   0.523  0.00  0.00    +0.193 C 
ATOM      7  O   UNL     1      29.510  12.920   0.353  0.00  0.00    -0.219 OA
BRANCH   6   8
ATOM      8  C   UNL     1      30.829  14.878   0.459  0.00  0.00    +0.212 C 
ATOM      9  O   UNL     1      30.890  16.232   0.935  0.00  0.00    -0.218 OA
BRANCH   8  10
ATOM     10  C   UNL     1      31.850  14.007   1.285  0.00  0.00    +0.171 C 
ATOM     11  O   UNL     1      32.112  14.547   2.576  0.00  0.00    -0.343 OA
ATOM     12  C   UNL     1      33.145  14.121   3.413  0.00  0.00    +0.220 C 
ATOM     13  C   UNL     1      34.497  14.089   2.679  0.00  0.00    +0.076 C 
ATOM     14  C   UNL     1      34.312  13.251   1.403  0.00  0.00    +0.177 C 
ATOM     15  O   UNL     1      35.545  13.156   0.706  0.00  0.00    -0.221 OA
ATOM     16  C   UNL     1      33.200  13.879   0.506  0.00  0.00    +0.155 C 
BRANCH  16  17
ATOM     17  N   UNL     1      33.025  13.090  -0.711  0.00  0.00    -0.202 NA
ATOM     18  C   UNL     1      33.178  13.453  -2.010  0.00  0.00    +0.242 C 
ATOM     19  C   UNL     1      33.223  12.368  -3.055  0.00  0.00    +0.096 C 
ATOM     20  O   UNL     1      33.276  14.643  -2.301  0.00  0.00    -0.273 OA
ENDBRANCH  16  17
BRANCH  12  21
ATOM     21  C   UNL     1      32.836  12.710   4.157  0.00  0.00    +0.391 C 
ATOM     22  O   UNL     1      34.026  12.303   4.640  0.00  0.00    -0.243 OA
ATOM     23  O   UNL     1      31.504  12.636   4.272  0.00  0.00    -0.243 OA
ENDBRANCH  12  21
ENDBRANCH   8  10
ENDBRANCH   6   8
ENDBRANCH   5   6
ENDBRANCH   2   5
BRANCH   1  24
ATOM     24  O   UNL     1      27.746  17.162  -2.672  0.00  0.00    -0.450 OA
BRANCH  24  25
ATOM     25  C   UNL     1      26.810  17.312  -3.715  0.00  0.00    +0.240 C 
BRANCH  25  26
ATOM     26  C   UNL     1      26.483  16.066  -4.561  0.00  0.00    +0.100 C 
BRANCH  26  28
ATOM     27  N   UNL     1      26.286  13.759  -3.682  0.00  0.00    -0.134 NA
ATOM     28  C   UNL     1      25.821  15.044  -3.729  0.00  0.00    +0.086 A 
ATOM     29  C   UNL     1      24.722  15.155  -2.908  0.00  0.00    +0.134 A 
ATOM     30  N   UNL     1      24.592  13.918  -2.355  0.00  0.00    -0.237 N 
ATOM     31  N   UNL     1      25.522  13.074  -2.845  0.00  0.00    -0.065 NA
BRANCH  30  32
ATOM     32  C   UNL     1      23.651  13.408  -1.371  0.00  0.00    +0.227 C 
BRANCH  32  33
ATOM     33  C   UNL     1      24.265  12.504  -0.323  0.00  0.00    +0.330 C 
ATOM     34  O   UNL     1      23.644  11.565   0.161  0.00  0.00    -0.249 OA
BRANCH  33  35
ATOM     35  O   UNL     1      25.545  12.741   0.029  0.00  0.00    -0.479 OA
ATOM     36  H   UNL     1      26.246  12.281  -0.501  0.00  0.00    +0.295 HD
ENDBRANCH  33  35
ENDBRANCH  32  33
BRANCH  32  37
ATOM     37  C   UNL     1      22.369  12.816  -1.972  0.00  0.00    +0.158 C 
BRANCH  37  38
ATOM     38  C   UNL     1      21.231  13.798  -1.957  0.00  0.00    +0.307 C 
ATOM     39  O   UNL     1      21.354  14.984  -2.233  0.00  0.00    -0.251 OA
BRANCH  38  40
ATOM     40  O   UNL     1      20.037  13.238  -1.689  0.00  0.00    -0.481 OA
ATOM     41  H   UNL     1      19.916  12.933  -0.768  0.00  0.00    +0.295 HD
ENDBRANCH  38  40
ENDBRANCH  37  38
ENDBRANCH  32  37
ENDBRANCH  30  32
ENDBRANCH  26  28
ENDBRANCH  25  26
ENDBRANCH  24  25
ENDBRANCH   1  24
TORSDOF 16
