REMARK VINA RESULT:    -6.949     21.854     25.074
REMARK INTER + INTRA:         -16.777
REMARK INTER:                 -13.685
REMARK INTRA:                  -3.091
REMARK UNBOUND:                -3.125
REMARK  Name = lig_assembled_47.pdb
REMARK  17 active torsions:
REMARK  status: ('A' for Active; 'I' for Inactive)
REMARK    1  A    between atoms: _2  and  _8
REMARK    2  A    between atoms: _5  and  _6
REMARK    3  A    between atoms: _5  and  _25
REMARK    4  A    between atoms: _8  and  _9
REMARK    5  A    between atoms: _9  and  _10
REMARK    6  A    between atoms: _9  and  _11
REMARK    7  A    between atoms: _10  and  _23
REMARK    8  A    between atoms: _11  and  _12
REMARK    9  A    between atoms: _11  and  _18
REMARK   10  A    between atoms: _25  and  _27
REMARK   11  A    between atoms: _26  and  _31
REMARK   12  A    between atoms: _27  and  _30
REMARK   13  A    between atoms: _35  and  _45
REMARK   14  A    between atoms: _37  and  _38
REMARK   15  A    between atoms: _39  and  _41
REMARK   16  A    between atoms: _41  and  _43
REMARK   17  A    between atoms: _43  and  _45
REMARK                            x       y       z     vdW  Elec       q    Type
REMARK                         _______ _______ _______ _____ _____    ______ ____
ROOT
ATOM      1  C   UNL     1      22.815  38.575   8.443  0.00  0.00    +0.100 C 
ENDROOT
BRANCH   1   3
ATOM      2  N   UNL     1      24.093  39.997   6.857  0.00  0.00    -0.134 NA
ATOM      3  C   UNL     1      24.082  39.074   7.872  0.00  0.00    +0.086 A 
ATOM      4  C   UNL     1      25.382  38.735   8.179  0.00  0.00    +0.133 A 
ATOM      5  N   UNL     1      26.130  39.446   7.287  0.00  0.00    -0.251 N 
ATOM      6  N   UNL     1      25.354  40.218   6.508  0.00  0.00    -0.065 NA
BRANCH   5   7
ATOM      7  C   UNL     1      27.555  39.327   7.017  0.00  0.00    +0.160 C 
BRANCH   7   8
ATOM      8  C   UNL     1      27.977  37.945   6.510  0.00  0.00    +0.131 C 
BRANCH   8   9
ATOM      9  C   UNL     1      28.456  38.110   5.075  0.00  0.00    +0.311 C 
ATOM     10  O   UNL     1      27.815  38.710   4.226  0.00  0.00    -0.251 OA
BRANCH   9  11
ATOM     11  O   UNL     1      29.693  37.653   4.790  0.00  0.00    -0.480 OA
ATOM     12  H   UNL     1      29.940  36.759   5.080  0.00  0.00    +0.295 HD
ENDBRANCH   9  11
ENDBRANCH   8   9
BRANCH   8  13
ATOM     13  C   UNL     1      29.037  37.220   7.400  0.00  0.00    +0.064 C 
BRANCH  13  14
ATOM     14  C   UNL     1      29.718  38.086   8.461  0.00  0.00    -0.039 A 
ATOM     15  C   UNL     1      31.017  38.580   8.231  0.00  0.00    +0.004 A 
ATOM     16  C   UNL     1      31.668  39.374   9.181  0.00  0.00    +0.000 A 
ATOM     17  C   UNL     1      31.041  39.677  10.385  0.00  0.00    +0.000 A 
ATOM     18  C   UNL     1      29.766  39.182  10.640  0.00  0.00    +0.000 A 
ATOM     19  C   UNL     1      29.106  38.402   9.683  0.00  0.00    +0.004 A 
ENDBRANCH  13  14
BRANCH  13  20
ATOM     20  C   UNL     1      28.449  35.923   7.972  0.00  0.00    -0.039 A 
ATOM     21  C   UNL     1      27.062  35.702   7.951  0.00  0.00    +0.004 A 
ATOM     22  C   UNL     1      26.508  34.607   8.621  0.00  0.00    +0.000 A 
ATOM     23  C   UNL     1      27.329  33.706   9.296  0.00  0.00    +0.000 A 
ATOM     24  C   UNL     1      28.706  33.889   9.291  0.00  0.00    +0.000 A 
ATOM     25  C   UNL     1      29.261  34.987   8.635  0.00  0.00    +0.004 A 
ENDBRANCH  13  20
ENDBRANCH   8  13
ENDBRANCH   7   8
ENDBRANCH   5   7
ENDBRANCH   1   3
BRANCH   1  26
ATOM     26  C   UNL     1      22.766  37.036   8.417  0.00  0.00    +0.240 C 
BRANCH  26  27
ATOM     27  O   UNL     1      23.189  36.352   9.574  0.00  0.00    -0.450 OA
BRANCH  27  28
ATOM     28  C   UNL     1      22.793  35.393  10.345  0.00  0.00    +0.400 C 
ATOM     29  N   UNL     1      23.649  35.061  11.369  0.00  0.00    -0.278 N 
ATOM     30  H   UNL     1      23.062  34.412  11.982  0.00  0.00    +0.152 HD
ATOM     31  O   UNL     1      21.727  34.788  10.262  0.00  0.00    -0.226 OA
BRANCH  29  32
ATOM     32  C   UNL     1      24.973  35.183  11.972  0.00  0.00    +0.152 C 
BRANCH  32  33
ATOM     33  C   UNL     1      25.552  33.902  12.607  0.00  0.00    +0.193 C 
ATOM     34  O   UNL     1      26.961  34.140  12.814  0.00  0.00    -0.219 OA
BRANCH  33  35
ATOM     35  C   UNL     1      25.022  33.492  14.000  0.00  0.00    +0.212 C 
ATOM     36  O   UNL     1      23.771  34.143  14.272  0.00  0.00    -0.218 OA
BRANCH  35  37
ATOM     37  C   UNL     1      24.827  31.936  14.160  0.00  0.00    +0.171 C 
ATOM     38  O   UNL     1      23.463  31.571  14.339  0.00  0.00    -0.343 OA
ATOM     39  C   UNL     1      23.032  30.305  14.743  0.00  0.00    +0.220 C 
ATOM     40  C   UNL     1      23.772  29.827  16.005  0.00  0.00    +0.076 C 
ATOM     41  C   UNL     1      25.280  29.940  15.727  0.00  0.00    +0.177 C 
ATOM     42  O   UNL     1      26.013  29.472  16.850  0.00  0.00    -0.221 OA
ATOM     43  C   UNL     1      25.655  31.415  15.381  0.00  0.00    +0.155 C 
BRANCH  43  44
ATOM     44  N   UNL     1      27.088  31.527  15.123  0.00  0.00    -0.202 NA
ATOM     45  C   UNL     1      28.042  32.208  15.807  0.00  0.00    +0.242 C 
ATOM     46  C   UNL     1      29.488  31.917  15.500  0.00  0.00    +0.096 C 
ATOM     47  O   UNL     1      27.709  33.036  16.653  0.00  0.00    -0.273 OA
ENDBRANCH  43  44
BRANCH  39  48
ATOM     48  C   UNL     1      23.089  29.193  13.560  0.00  0.00    +0.391 C 
ATOM     49  O   UNL     1      23.687  29.817  12.526  0.00  0.00    -0.243 OA
ATOM     50  O   UNL     1      22.809  28.021  14.141  0.00  0.00    -0.243 OA
ENDBRANCH  39  48
ENDBRANCH  35  37
ENDBRANCH  33  35
ENDBRANCH  32  33
ENDBRANCH  29  32
ENDBRANCH  27  28
ENDBRANCH  26  27
ENDBRANCH   1  26
TORSDOF 17
