REMARK VINA RESULT:    -7.366      1.516      2.601
REMARK INTER + INTRA:         -15.510
REMARK INTER:                 -13.377
REMARK INTRA:                  -2.133
REMARK UNBOUND:                -2.115
REMARK  Name = lig_assembled_26.pdb
REMARK  15 active torsions:
REMARK  status: ('A' for Active; 'I' for Inactive)
REMARK    1  A    between atoms: _2  and  _8
REMARK    2  A    between atoms: _5  and  _6
REMARK    3  A    between atoms: _5  and  _18
REMARK    4  A    between atoms: _8  and  _9
REMARK    5  A    between atoms: _8  and  _10
REMARK    6  A    between atoms: _10  and  _11
REMARK    7  A    between atoms: _11  and  _12
REMARK    8  A    between atoms: _18  and  _20
REMARK    9  A    between atoms: _19  and  _24
REMARK   10  A    between atoms: _20  and  _23
REMARK   11  A    between atoms: _28  and  _38
REMARK   12  A    between atoms: _30  and  _31
REMARK   13  A    between atoms: _32  and  _34
REMARK   14  A    between atoms: _34  and  _36
REMARK   15  A    between atoms: _36  and  _38
REMARK                            x       y       z     vdW  Elec       q    Type
REMARK                         _______ _______ _______ _____ _____    ______ ____
ROOT
ATOM      1  C   UNL     1      27.738  17.459  -1.284  0.00  0.00    +0.400 C 
ATOM      2  N   UNL     1      28.225  16.332  -0.666  0.00  0.00    -0.278 N 
ATOM      3  H   UNL     1      28.486  16.679   0.311  0.00  0.00    +0.152 HD
ATOM      4  O   UNL     1      27.548  18.460  -0.598  0.00  0.00    -0.226 OA
ENDROOT
BRANCH   2   5
ATOM      5  C   UNL     1      28.526  14.905  -0.738  0.00  0.00    +0.152 C 
BRANCH   5   6
ATOM      6  C   UNL     1      29.508  14.363   0.322  0.00  0.00    +0.193 C 
ATOM      7  O   UNL     1      29.714  12.965   0.020  0.00  0.00    -0.219 OA
BRANCH   6   8
ATOM      8  C   UNL     1      30.930  14.964   0.353  0.00  0.00    +0.212 C 
ATOM      9  O   UNL     1      30.901  16.292   0.900  0.00  0.00    -0.218 OA
BRANCH   8  10
ATOM     10  C   UNL     1      31.956  14.100   1.181  0.00  0.00    +0.171 C 
ATOM     11  O   UNL     1      32.252  14.670   2.452  0.00  0.00    -0.343 OA
ATOM     12  C   UNL     1      33.297  14.252   3.279  0.00  0.00    +0.220 C 
ATOM     13  C   UNL     1      34.633  14.181   2.519  0.00  0.00    +0.076 C 
ATOM     14  C   UNL     1      34.409  13.313   1.270  0.00  0.00    +0.177 C 
ATOM     15  O   UNL     1      35.626  13.181   0.550  0.00  0.00    -0.221 OA
ATOM     16  C   UNL     1      33.287  13.932   0.379  0.00  0.00    +0.155 C 
BRANCH  16  17
ATOM     17  N   UNL     1      33.076  13.114  -0.813  0.00  0.00    -0.202 NA
ATOM     18  C   UNL     1      33.146  13.456  -2.124  0.00  0.00    +0.242 C 
ATOM     19  C   UNL     1      33.175  12.354  -3.151  0.00  0.00    +0.096 C 
ATOM     20  O   UNL     1      33.184  14.644  -2.441  0.00  0.00    -0.273 OA
ENDBRANCH  16  17
BRANCH  12  21
ATOM     21  C   UNL     1      32.983  12.866   4.066  0.00  0.00    +0.391 C 
ATOM     22  O   UNL     1      34.167  12.486   4.587  0.00  0.00    -0.243 OA
ATOM     23  O   UNL     1      31.650  12.786   4.158  0.00  0.00    -0.243 OA
ENDBRANCH  12  21
ENDBRANCH   8  10
ENDBRANCH   6   8
ENDBRANCH   5   6
ENDBRANCH   2   5
BRANCH   1  24
ATOM     24  O   UNL     1      27.553  17.362  -2.560  0.00  0.00    -0.450 OA
BRANCH  24  25
ATOM     25  C   UNL     1      26.492  17.262  -3.481  0.00  0.00    +0.240 C 
BRANCH  25  26
ATOM     26  C   UNL     1      26.188  15.870  -4.068  0.00  0.00    +0.100 C 
BRANCH  26  28
ATOM     27  N   UNL     1      24.175  15.555  -2.651  0.00  0.00    -0.134 NA
ATOM     28  C   UNL     1      25.370  15.084  -3.128  0.00  0.00    +0.086 A 
ATOM     29  C   UNL     1      25.610  13.841  -2.592  0.00  0.00    +0.134 A 
ATOM     30  N   UNL     1      24.542  13.615  -1.776  0.00  0.00    -0.248 N 
ATOM     31  N   UNL     1      23.666  14.638  -1.837  0.00  0.00    -0.065 NA
BRANCH  30  32
ATOM     32  C   UNL     1      24.226  12.448  -0.967  0.00  0.00    +0.113 C 
ATOM     33  C   UNL     1      25.283  12.105   0.092  0.00  0.00    +0.033 C 
BRANCH  32  34
ATOM     34  C   UNL     1      22.811  12.509  -0.363  0.00  0.00    +0.106 C 
BRANCH  34  35
ATOM     35  C   UNL     1      21.803  11.613  -1.059  0.00  0.00    +0.165 C 
ATOM     36  O   UNL     1      21.838  10.388  -0.966  0.00  0.00    -0.292 OA
BRANCH  35  37
ATOM     37  C   UNL     1      20.758  12.240  -1.921  0.00  0.00    +0.017 A 
ATOM     38  C   UNL     1      20.239  11.607  -3.057  0.00  0.00    +0.011 A 
ATOM     39  C   UNL     1      19.232  12.223  -3.804  0.00  0.00    +0.001 A 
ATOM     40  C   UNL     1      18.743  13.474  -3.426  0.00  0.00    +0.000 A 
ATOM     41  C   UNL     1      19.262  14.115  -2.304  0.00  0.00    +0.001 A 
ATOM     42  C   UNL     1      20.266  13.502  -1.554  0.00  0.00    +0.011 A 
ENDBRANCH  35  37
ENDBRANCH  34  35
ENDBRANCH  32  34
ENDBRANCH  30  32
ENDBRANCH  26  28
ENDBRANCH  25  26
ENDBRANCH  24  25
ENDBRANCH   1  24
TORSDOF 14
