REMARK VINA RESULT:    -7.525      1.155      3.394
REMARK INTER + INTRA:         -13.428
REMARK INTER:                 -12.408
REMARK INTRA:                  -1.020
REMARK UNBOUND:                -1.064
REMARK  Name = lig_assembled_27.pdb
REMARK  11 active torsions:
REMARK  status: ('A' for Active; 'I' for Inactive)
REMARK    1  A    between atoms: _2  and  _8
REMARK    2  A    between atoms: _5  and  _6
REMARK    3  A    between atoms: _5  and  _13
REMARK    4  A    between atoms: _13  and  _15
REMARK    5  A    between atoms: _14  and  _19
REMARK    6  A    between atoms: _15  and  _18
REMARK    7  A    between atoms: _23  and  _33
REMARK    8  A    between atoms: _25  and  _26
REMARK    9  A    between atoms: _27  and  _29
REMARK   10  A    between atoms: _29  and  _31
REMARK   11  A    between atoms: _31  and  _33
REMARK                            x       y       z     vdW  Elec       q    Type
REMARK                         _______ _______ _______ _____ _____    ______ ____
ROOT
ATOM      1  C   UNL     1      27.575  17.650  -0.880  0.00  0.00    +0.400 C 
ATOM      2  N   UNL     1      28.323  16.784  -0.117  0.00  0.00    -0.278 N 
ATOM      3  H   UNL     1      28.800  17.427   0.591  0.00  0.00    +0.152 HD
ATOM      4  O   UNL     1      27.476  18.815  -0.505  0.00  0.00    -0.226 OA
ENDROOT
BRANCH   1   5
ATOM      5  O   UNL     1      27.065  17.149  -1.957  0.00  0.00    -0.450 OA
BRANCH   5   6
ATOM      6  C   UNL     1      27.129  17.327  -3.353  0.00  0.00    +0.240 C 
BRANCH   6   7
ATOM      7  C   UNL     1      26.332  16.345  -4.232  0.00  0.00    +0.100 C 
BRANCH   7   9
ATOM      8  N   UNL     1      26.268  14.290  -2.854  0.00  0.00    -0.134 NA
ATOM      9  C   UNL     1      25.621  15.365  -3.392  0.00  0.00    +0.086 A 
ATOM     10  C   UNL     1      24.299  15.330  -3.008  0.00  0.00    +0.139 A 
ATOM     11  N   UNL     1      24.185  14.207  -2.222  0.00  0.00    -0.220 N 
ATOM     12  N   UNL     1      25.391  13.592  -2.146  0.00  0.00    -0.061 NA
BRANCH  11  13
ATOM     13  C   UNL     1      23.038  13.700  -1.557  0.00  0.00    +0.068 A 
ATOM     14  C   UNL     1      21.790  14.309  -1.765  0.00  0.00    +0.028 A 
ATOM     15  C   UNL     1      20.654  13.822  -1.114  0.00  0.00    +0.003 A 
ATOM     16  C   UNL     1      20.756  12.729  -0.253  0.00  0.00    +0.020 A 
ATOM     17  C   UNL     1      21.994  12.125  -0.049  0.00  0.00    +0.043 A 
ATOM     18 CL   UNL     1      22.120  10.774   1.012  0.00  0.00    -0.083 Cl
ATOM     19  C   UNL     1      23.137  12.600  -0.695  0.00  0.00    +0.047 A 
ENDBRANCH  11  13
ENDBRANCH   7   9
ENDBRANCH   6   7
ENDBRANCH   5   6
ENDBRANCH   1   5
BRANCH   2  20
ATOM     20  C   UNL     1      28.736  15.412   0.163  0.00  0.00    +0.152 C 
BRANCH  20  21
ATOM     21  C   UNL     1      30.128  15.001  -0.361  0.00  0.00    +0.193 C 
ATOM     22  O   UNL     1      30.888  16.219  -0.521  0.00  0.00    -0.219 OA
BRANCH  21  23
ATOM     23  C   UNL     1      31.004  14.118   0.555  0.00  0.00    +0.212 C 
ATOM     24  O   UNL     1      30.315  12.902   0.888  0.00  0.00    -0.218 OA
BRANCH  23  25
ATOM     25  C   UNL     1      32.398  13.749  -0.082  0.00  0.00    +0.171 C 
ATOM     26  O   UNL     1      32.270  12.971  -1.268  0.00  0.00    -0.343 OA
ATOM     27  C   UNL     1      33.328  12.308  -1.893  0.00  0.00    +0.220 C 
ATOM     28  C   UNL     1      34.130  11.448  -0.901  0.00  0.00    +0.076 C 
ATOM     29  C   UNL     1      34.537  12.354   0.273  0.00  0.00    +0.177 C 
ATOM     30  O   UNL     1      35.316  11.616   1.203  0.00  0.00    -0.221 OA
ATOM     31  C   UNL     1      33.268  12.959   0.950  0.00  0.00    +0.155 C 
BRANCH  31  32
ATOM     32  N   UNL     1      33.651  13.815   2.070  0.00  0.00    -0.202 NA
ATOM     33  C   UNL     1      33.534  13.601   3.405  0.00  0.00    +0.242 C 
ATOM     34  C   UNL     1      34.276  14.517   4.344  0.00  0.00    +0.096 C 
ATOM     35  O   UNL     1      32.836  12.676   3.814  0.00  0.00    -0.273 OA
ENDBRANCH  31  32
BRANCH  27  36
ATOM     36  C   UNL     1      34.297  13.295  -2.745  0.00  0.00    +0.391 C 
ATOM     37  O   UNL     1      33.518  14.341  -3.083  0.00  0.00    -0.243 OA
ATOM     38  O   UNL     1      35.546  12.859  -2.536  0.00  0.00    -0.243 OA
ENDBRANCH  27  36
ENDBRANCH  23  25
ENDBRANCH  21  23
ENDBRANCH  20  21
ENDBRANCH   2  20
TORSDOF 11
