REMARK VINA RESULT:    -6.439      3.017      7.644
REMARK INTER + INTRA:         -15.608
REMARK INTER:                 -12.275
REMARK INTRA:                  -3.333
REMARK UNBOUND:                -2.957
REMARK  Name = lig_assembled_74.pdb
REMARK  19 active torsions:
REMARK  status: ('A' for Active; 'I' for Inactive)
REMARK    1  A    between atoms: _2  and  _8
REMARK    2  A    between atoms: _4  and  _13
REMARK    3  A    between atoms: _5  and  _6
REMARK    4  A    between atoms: _5  and  _17
REMARK    5  A    between atoms: _8  and  _9
REMARK    6  A    between atoms: _9  and  _10
REMARK    7  A    between atoms: _9  and  _12
REMARK    8  A    between atoms: _10  and  _11
REMARK    9  A    between atoms: _11  and  _15
REMARK   10  A    between atoms: _12  and  _13
REMARK   11  A    between atoms: _13  and  _14
REMARK   12  A    between atoms: _17  and  _19
REMARK   13  A    between atoms: _18  and  _23
REMARK   14  A    between atoms: _19  and  _22
REMARK   15  A    between atoms: _27  and  _37
REMARK   16  A    between atoms: _29  and  _30
REMARK   17  A    between atoms: _31  and  _33
REMARK   18  A    between atoms: _33  and  _35
REMARK   19  A    between atoms: _35  and  _37
REMARK                            x       y       z     vdW  Elec       q    Type
REMARK                         _______ _______ _______ _____ _____    ______ ____
ROOT
ATOM      1  C   UNL     1      27.835  17.748  -1.029  0.00  0.00    +0.400 C 
ATOM      2  N   UNL     1      27.117  17.515  -2.178  0.00  0.00    -0.278 N 
ATOM      3  H   UNL     1      26.142  17.882  -1.939  0.00  0.00    +0.152 HD
ATOM      4  O   UNL     1      27.313  18.425  -0.147  0.00  0.00    -0.226 OA
ENDROOT
BRANCH   1   5
ATOM      5  O   UNL     1      29.001  17.193  -0.976  0.00  0.00    -0.450 OA
BRANCH   5   6
ATOM      6  C   UNL     1      30.161  17.219  -0.176  0.00  0.00    +0.240 C 
BRANCH   6   7
ATOM      7  C   UNL     1      30.727  15.867   0.298  0.00  0.00    +0.100 C 
BRANCH   7   9
ATOM      8  N   UNL     1      30.062  13.977  -1.168  0.00  0.00    -0.134 NA
ATOM      9  C   UNL     1      29.822  14.763  -0.072  0.00  0.00    +0.086 A 
ATOM     10  C   UNL     1      28.711  14.283   0.588  0.00  0.00    +0.133 A 
ATOM     11  N   UNL     1      28.441  13.107  -0.051  0.00  0.00    -0.251 N 
ATOM     12  N   UNL     1      29.192  12.977  -1.162  0.00  0.00    -0.065 NA
BRANCH  11  13
ATOM     13  C   UNL     1      27.749  11.956   0.498  0.00  0.00    +0.149 C 
BRANCH  13  14
ATOM     14  C   UNL     1      26.574  12.277   1.447  0.00  0.00    +0.021 C 
BRANCH  14  15
ATOM     15  C   UNL     1      26.777  11.738   2.878  0.00  0.00    +0.125 C 
BRANCH  15  16
ATOM     16  C   UNL     1      27.728  12.548   3.732  0.00  0.00    +0.305 C 
ATOM     17  O   UNL     1      28.783  12.136   4.187  0.00  0.00    -0.251 OA
BRANCH  16  18
ATOM     18  O   UNL     1      27.330  13.823   3.898  0.00  0.00    -0.481 OA
ATOM     19  H   UNL     1      27.843  14.490   3.406  0.00  0.00    +0.295 HD
ENDBRANCH  16  18
ENDBRANCH  15  16
ENDBRANCH  14  15
BRANCH  14  20
ATOM     20  C   UNL     1      25.247  11.790   0.796  0.00  0.00    +0.009 C 
BRANCH  20  21
ATOM     21  C   UNL     1      24.483  10.688   1.563  0.00  0.00    -0.017 C 
ATOM     22  C   UNL     1      23.014  11.053   1.788  0.00  0.00    +0.007 C 
ATOM     23  C   UNL     1      24.557   9.356   0.808  0.00  0.00    +0.007 C 
ENDBRANCH  20  21
ENDBRANCH  14  20
ENDBRANCH  13  14
ENDBRANCH  11  13
ENDBRANCH   7   9
ENDBRANCH   6   7
ENDBRANCH   5   6
ENDBRANCH   1   5
BRANCH   2  24
ATOM     24  C   UNL     1      27.093  17.017  -3.551  0.00  0.00    +0.152 C 
BRANCH  24  25
ATOM     25  C   UNL     1      25.891  16.128  -3.931  0.00  0.00    +0.193 C 
ATOM     26  O   UNL     1      26.013  15.845  -5.343  0.00  0.00    -0.219 OA
BRANCH  25  27
ATOM     27  C   UNL     1      25.793  14.736  -3.267  0.00  0.00    +0.212 C 
ATOM     28  O   UNL     1      26.385  14.762  -1.958  0.00  0.00    -0.218 OA
BRANCH  27  29
ATOM     29  C   UNL     1      24.314  14.207  -3.141  0.00  0.00    +0.171 C 
ATOM     30  O   UNL     1      23.559  14.918  -2.165  0.00  0.00    -0.343 OA
ATOM     31  C   UNL     1      22.315  14.509  -1.680  0.00  0.00    +0.220 C 
ATOM     32  C   UNL     1      22.336  13.042  -1.219  0.00  0.00    +0.076 C 
ATOM     33  C   UNL     1      22.886  12.200  -2.383  0.00  0.00    +0.177 C 
ATOM     34  O   UNL     1      22.889  10.825  -2.023  0.00  0.00    -0.221 OA
ATOM     35  C   UNL     1      24.316  12.688  -2.771  0.00  0.00    +0.155 C 
BRANCH  35  36
ATOM     36  N   UNL     1      24.844  11.886  -3.872  0.00  0.00    -0.202 NA
ATOM     37  C   UNL     1      25.983  11.151  -3.941  0.00  0.00    +0.242 C 
ATOM     38  C   UNL     1      26.142  10.185  -5.086  0.00  0.00    +0.096 C 
ATOM     39  O   UNL     1      26.848  11.288  -3.079  0.00  0.00    -0.273 OA
ENDBRANCH  35  36
BRANCH  31  40
ATOM     40  C   UNL     1      21.092  14.794  -2.711  0.00  0.00    +0.391 C 
ATOM     41  O   UNL     1      20.037  14.139  -2.188  0.00  0.00    -0.243 OA
ATOM     42  O   UNL     1      21.502  15.791  -3.505  0.00  0.00    -0.243 OA
ENDBRANCH  31  40
ENDBRANCH  27  29
ENDBRANCH  25  27
ENDBRANCH  24  25
ENDBRANCH   2  24
TORSDOF 17
