REMARK VINA RESULT:    -6.030      1.970      2.585
REMARK INTER + INTRA:         -12.900
REMARK INTER:                 -11.228
REMARK INTRA:                  -1.672
REMARK UNBOUND:                -2.287
REMARK  Name = lig_assembled_67.pdb
REMARK  13 active torsions:
REMARK  status: ('A' for Active; 'I' for Inactive)
REMARK    1  A    between atoms: _2  and  _8
REMARK    2  A    between atoms: _5  and  _6
REMARK    3  A    between atoms: _5  and  _14
REMARK    4  A    between atoms: _8  and  _9
REMARK    5  A    between atoms: _9  and  _10
REMARK    6  A    between atoms: _14  and  _16
REMARK    7  A    between atoms: _15  and  _20
REMARK    8  A    between atoms: _16  and  _19
REMARK    9  A    between atoms: _24  and  _34
REMARK   10  A    between atoms: _26  and  _27
REMARK   11  A    between atoms: _28  and  _30
REMARK   12  A    between atoms: _30  and  _32
REMARK   13  A    between atoms: _32  and  _34
REMARK                            x       y       z     vdW  Elec       q    Type
REMARK                         _______ _______ _______ _____ _____    ______ ____
ROOT
ATOM      1  C   UNL     1      27.952  17.317  -0.778  0.00  0.00    +0.400 C 
ATOM      2  N   UNL     1      28.235  16.244   0.034  0.00  0.00    -0.278 N 
ATOM      3  H   UNL     1      28.572  16.701   0.939  0.00  0.00    +0.152 HD
ATOM      4  O   UNL     1      27.960  18.439  -0.278  0.00  0.00    -0.226 OA
ENDROOT
BRANCH   2   5
ATOM      5  C   UNL     1      28.268  14.795   0.214  0.00  0.00    +0.152 C 
BRANCH   5   6
ATOM      6  C   UNL     1      29.503  14.228   0.943  0.00  0.00    +0.193 C 
ATOM      7  O   UNL     1      29.277  12.810   1.102  0.00  0.00    -0.219 OA
BRANCH   6   8
ATOM      8  C   UNL     1      30.865  14.323   0.222  0.00  0.00    +0.212 C 
ATOM      9  O   UNL     1      31.228  15.698   0.013  0.00  0.00    -0.218 OA
BRANCH   8  10
ATOM     10  C   UNL     1      32.035  13.605   0.998  0.00  0.00    +0.171 C 
ATOM     11  O   UNL     1      32.302  14.204   2.262  0.00  0.00    -0.343 OA
ATOM     12  C   UNL     1      33.428  13.930   3.041  0.00  0.00    +0.220 C 
ATOM     13  C   UNL     1      34.728  14.049   2.227  0.00  0.00    +0.076 C 
ATOM     14  C   UNL     1      34.575  13.165   0.978  0.00  0.00    +0.177 C 
ATOM     15  O   UNL     1      35.768  13.208   0.208  0.00  0.00    -0.221 OA
ATOM     16  C   UNL     1      33.342  13.628   0.140  0.00  0.00    +0.155 C 
BRANCH  16  17
ATOM     17  N   UNL     1      33.197  12.795  -1.051  0.00  0.00    -0.202 NA
ATOM     18  C   UNL     1      33.204  13.147  -2.362  0.00  0.00    +0.242 C 
ATOM     19  C   UNL     1      33.331  12.056  -3.394  0.00  0.00    +0.096 C 
ATOM     20  O   UNL     1      33.110  14.332  -2.674  0.00  0.00    -0.273 OA
ENDBRANCH  16  17
BRANCH  12  21
ATOM     21  C   UNL     1      33.343  12.509   3.825  0.00  0.00    +0.391 C 
ATOM     22  O   UNL     1      34.603  12.261   4.231  0.00  0.00    -0.243 OA
ATOM     23  O   UNL     1      32.041  12.278   4.031  0.00  0.00    -0.243 OA
ENDBRANCH  12  21
ENDBRANCH   8  10
ENDBRANCH   6   8
ENDBRANCH   5   6
ENDBRANCH   2   5
BRANCH   1  24
ATOM     24  O   UNL     1      27.731  17.036  -2.020  0.00  0.00    -0.450 OA
BRANCH  24  25
ATOM     25  C   UNL     1      26.861  17.414  -3.062  0.00  0.00    +0.240 C 
BRANCH  25  26
ATOM     26  C   UNL     1      26.701  16.438  -4.243  0.00  0.00    +0.100 C 
BRANCH  26  28
ATOM     27  N   UNL     1      25.051  14.804  -5.098  0.00  0.00    -0.134 NA
ATOM     28  C   UNL     1      25.435  15.690  -4.125  0.00  0.00    +0.086 A 
ATOM     29  C   UNL     1      24.479  15.714  -3.135  0.00  0.00    +0.133 A 
ATOM     30  N   UNL     1      23.539  14.826  -3.566  0.00  0.00    -0.251 N 
ATOM     31  N   UNL     1      23.882  14.283  -4.745  0.00  0.00    -0.065 NA
BRANCH  30  32
ATOM     32  C   UNL     1      22.310  14.437  -2.912  0.00  0.00    +0.150 C 
BRANCH  32  33
ATOM     33  C   UNL     1      21.395  13.582  -3.787  0.00  0.00    +0.084 C 
BRANCH  33  34
ATOM     34  C   UNL     1      20.182  14.353  -4.287  0.00  0.00    +0.252 C 
ATOM     35  O   UNL     1      19.582  15.082  -3.211  0.00  0.00    -0.349 OA
ATOM     36  C   UNL     1      19.000  16.207  -3.866  0.00  0.00    +0.191 C 
ATOM     37  C   UNL     1      19.988  16.523  -4.959  0.00  0.00    +0.191 C 
ATOM     38  O   UNL     1      20.563  15.267  -5.321  0.00  0.00    -0.349 OA
ENDBRANCH  33  34
ENDBRANCH  32  33
ENDBRANCH  30  32
ENDBRANCH  26  28
ENDBRANCH  25  26
ENDBRANCH  24  25
ENDBRANCH   1  24
TORSDOF 13
