REMARK VINA RESULT:    -6.518      2.411      4.046
REMARK INTER + INTRA:         -12.517
REMARK INTER:                 -11.066
REMARK INTRA:                  -1.450
REMARK UNBOUND:                -1.808
REMARK  Name = lig_assembled_8.pdb
REMARK  11 active torsions:
REMARK  status: ('A' for Active; 'I' for Inactive)
REMARK    1  A    between atoms: _2  and  _8
REMARK    2  A    between atoms: _5  and  _6
REMARK    3  A    between atoms: _5  and  _13
REMARK    4  A    between atoms: _13  and  _15
REMARK    5  A    between atoms: _14  and  _19
REMARK    6  A    between atoms: _15  and  _18
REMARK    7  A    between atoms: _23  and  _33
REMARK    8  A    between atoms: _25  and  _26
REMARK    9  A    between atoms: _27  and  _29
REMARK   10  A    between atoms: _29  and  _31
REMARK   11  A    between atoms: _31  and  _33
REMARK                            x       y       z     vdW  Elec       q    Type
REMARK                         _______ _______ _______ _____ _____    ______ ____
ROOT
ATOM      1  C   UNL     1      27.694  17.358  -1.455  0.00  0.00    +0.400 C 
ATOM      2  N   UNL     1      28.196  16.317  -0.711  0.00  0.00    -0.278 N 
ATOM      3  H   UNL     1      28.503  16.788   0.198  0.00  0.00    +0.152 HD
ATOM      4  O   UNL     1      27.545  18.445  -0.904  0.00  0.00    -0.226 OA
ENDROOT
BRANCH   1   5
ATOM      5  O   UNL     1      27.452  17.093  -2.697  0.00  0.00    -0.450 OA
BRANCH   5   6
ATOM      6  C   UNL     1      26.409  17.225  -3.634  0.00  0.00    +0.240 C 
BRANCH   6   7
ATOM      7  C   UNL     1      26.199  16.070  -4.632  0.00  0.00    +0.100 C 
BRANCH   7   9
ATOM      8  N   UNL     1      24.996  13.916  -4.713  0.00  0.00    -0.134 NA
ATOM      9  C   UNL     1      25.208  15.114  -4.106  0.00  0.00    +0.086 A 
ATOM     10  C   UNL     1      24.384  15.207  -3.008  0.00  0.00    +0.139 A 
ATOM     11  N   UNL     1      23.685  14.013  -2.967  0.00  0.00    -0.219 N 
ATOM     12  N   UNL     1      24.073  13.264  -4.023  0.00  0.00    -0.061 NA
BRANCH  11  13
ATOM     13  C   UNL     1      22.725  13.586  -1.997  0.00  0.00    +0.081 A 
ATOM     14  C   UNL     1      23.137  12.648  -1.024  0.00  0.00    +0.029 A 
ATOM     15  C   UNL     1      22.253  12.163  -0.056  0.00  0.00    +0.002 A 
ATOM     16  C   UNL     1      20.939  12.602  -0.034  0.00  0.00    +0.001 A 
ATOM     17  C   UNL     1      20.512  13.533  -0.978  0.00  0.00    +0.017 A 
ATOM     18  C   UNL     1      21.389  14.033  -1.960  0.00  0.00    +0.043 A 
ATOM     19 BR   UNL     1      20.577  15.296  -3.132  0.00  0.00    -0.048 Br
ENDBRANCH  11  13
ENDBRANCH   7   9
ENDBRANCH   6   7
ENDBRANCH   5   6
ENDBRANCH   1   5
BRANCH   2  20
ATOM     20  C   UNL     1      28.477  14.887  -0.602  0.00  0.00    +0.152 C 
BRANCH  20  21
ATOM     21  C   UNL     1      29.166  14.428   0.699  0.00  0.00    +0.193 C 
ATOM     22  O   UNL     1      28.115  14.159   1.653  0.00  0.00    -0.219 OA
BRANCH  21  23
ATOM     23  C   UNL     1      29.986  13.119   0.651  0.00  0.00    +0.212 C 
ATOM     24  O   UNL     1      29.386  12.120   1.491  0.00  0.00    -0.218 OA
BRANCH  23  25
ATOM     25  C   UNL     1      30.137  12.531  -0.804  0.00  0.00    +0.171 C 
ATOM     26  O   UNL     1      29.011  11.754  -1.200  0.00  0.00    -0.343 OA
ATOM     27  C   UNL     1      28.981  10.926  -2.324  0.00  0.00    +0.220 C 
ATOM     28  C   UNL     1      30.192   9.977  -2.366  0.00  0.00    +0.076 C 
ATOM     29  C   UNL     1      31.458  10.838  -2.230  0.00  0.00    +0.177 C 
ATOM     30  O   UNL     1      32.612  10.012  -2.303  0.00  0.00    -0.221 OA
ATOM     31  C   UNL     1      31.421  11.642  -0.893  0.00  0.00    +0.155 C 
BRANCH  31  32
ATOM     32  N   UNL     1      32.626  12.456  -0.757  0.00  0.00    -0.202 NA
ATOM     33  C   UNL     1      32.994  13.580  -1.423  0.00  0.00    +0.242 C 
ATOM     34  C   UNL     1      34.147  14.386  -0.884  0.00  0.00    +0.096 C 
ATOM     35  O   UNL     1      32.386  13.911  -2.439  0.00  0.00    -0.273 OA
ENDBRANCH  31  32
BRANCH  27  36
ATOM     36  C   UNL     1      28.809  11.737  -3.721  0.00  0.00    +0.391 C 
ATOM     37  O   UNL     1      29.167  10.859  -4.679  0.00  0.00    -0.243 OA
ATOM     38  O   UNL     1      28.106  12.837  -3.426  0.00  0.00    -0.243 OA
ENDBRANCH  27  36
ENDBRANCH  23  25
ENDBRANCH  21  23
ENDBRANCH  20  21
ENDBRANCH   2  20
TORSDOF 11
