REMARK VINA RESULT:    -7.033      1.805      2.845
REMARK INTER + INTRA:         -13.781
REMARK INTER:                 -12.155
REMARK INTRA:                  -1.627
REMARK UNBOUND:                -1.815
REMARK  Name = lig_assembled_71.pdb
REMARK  12 active torsions:
REMARK  status: ('A' for Active; 'I' for Inactive)
REMARK    1  A    between atoms: _2  and  _11
REMARK    2  A    between atoms: _8  and  _9
REMARK    3  A    between atoms: _8  and  _17
REMARK    4  A    between atoms: _11  and  _12
REMARK    5  A    between atoms: _17  and  _19
REMARK    6  A    between atoms: _18  and  _23
REMARK    7  A    between atoms: _19  and  _22
REMARK    8  A    between atoms: _27  and  _37
REMARK    9  A    between atoms: _29  and  _30
REMARK   10  A    between atoms: _31  and  _33
REMARK   11  A    between atoms: _33  and  _35
REMARK   12  A    between atoms: _35  and  _37
REMARK                            x       y       z     vdW  Elec       q    Type
REMARK                         _______ _______ _______ _____ _____    ______ ____
ROOT
ATOM      1  C   UNL     1      27.890  17.372  -0.757  0.00  0.00    +0.400 C 
ATOM      2  N   UNL     1      28.604  16.464  -0.011  0.00  0.00    -0.278 N 
ATOM      3  H   UNL     1      28.842  17.007   0.878  0.00  0.00    +0.152 HD
ATOM      4  O   UNL     1      27.551  18.424  -0.220  0.00  0.00    -0.226 OA
ENDROOT
BRANCH   2   5
ATOM      5  C   UNL     1      29.158  15.118   0.114  0.00  0.00    +0.152 C 
BRANCH   5   6
ATOM      6  C   UNL     1      30.689  14.998  -0.031  0.00  0.00    +0.193 C 
ATOM      7  O   UNL     1      31.154  16.249  -0.582  0.00  0.00    -0.219 OA
BRANCH   6   8
ATOM      8  C   UNL     1      31.517  14.814   1.260  0.00  0.00    +0.212 C 
ATOM      9  O   UNL     1      31.280  15.902   2.168  0.00  0.00    -0.218 OA
BRANCH   8  10
ATOM     10  C   UNL     1      31.216  13.460   2.008  0.00  0.00    +0.171 C 
ATOM     11  O   UNL     1      30.048  13.530   2.819  0.00  0.00    -0.343 OA
ATOM     12  C   UNL     1      29.688  12.570   3.767  0.00  0.00    +0.220 C 
ATOM     13  C   UNL     1      30.852  12.244   4.720  0.00  0.00    +0.076 C 
ATOM     14  C   UNL     1      32.068  11.875   3.854  0.00  0.00    +0.177 C 
ATOM     15  O   UNL     1      33.164  11.526   4.688  0.00  0.00    -0.221 OA
ATOM     16  C   UNL     1      32.432  13.060   2.906  0.00  0.00    +0.155 C 
BRANCH  16  17
ATOM     17  N   UNL     1      33.592  12.716   2.087  0.00  0.00    -0.202 NA
ATOM     18  C   UNL     1      34.846  13.235   2.097  0.00  0.00    +0.242 C 
ATOM     19  C   UNL     1      35.931  12.499   1.355  0.00  0.00    +0.096 C 
ATOM     20  O   UNL     1      35.065  14.281   2.705  0.00  0.00    -0.273 OA
ENDBRANCH  16  17
BRANCH  12  21
ATOM     21  C   UNL     1      29.054  11.223   3.116  0.00  0.00    +0.391 C 
ATOM     22  O   UNL     1      29.187  10.280   4.070  0.00  0.00    -0.243 OA
ATOM     23  O   UNL     1      28.383  11.618   2.028  0.00  0.00    -0.243 OA
ENDBRANCH  12  21
ENDBRANCH   8  10
ENDBRANCH   6   8
ENDBRANCH   5   6
ENDBRANCH   2   5
BRANCH   1  24
ATOM     24  O   UNL     1      27.666  17.035  -1.985  0.00  0.00    -0.450 OA
BRANCH  24  25
ATOM     25  C   UNL     1      26.739  17.297  -3.012  0.00  0.00    +0.240 C 
BRANCH  25  26
ATOM     26  C   UNL     1      26.688  16.309  -4.193  0.00  0.00    +0.100 C 
BRANCH  26  28
ATOM     27  N   UNL     1      26.176  14.005  -3.422  0.00  0.00    -0.134 NA
ATOM     28  C   UNL     1      25.743  15.213  -3.904  0.00  0.00    +0.086 A 
ATOM     29  C   UNL     1      24.376  15.177  -4.039  0.00  0.00    +0.134 A 
ATOM     30  N   UNL     1      24.033  13.919  -3.640  0.00  0.00    -0.243 N 
ATOM     31  N   UNL     1      25.117  13.222  -3.254  0.00  0.00    -0.065 NA
BRANCH  30  32
ATOM     32  C   UNL     1      22.711  13.347  -3.485  0.00  0.00    +0.241 C 
BRANCH  32  33
ATOM     33  C   UNL     1      22.362  13.126  -2.036  0.00  0.00    +0.241 C 
ATOM     34  O   UNL     1      21.819  14.021  -1.389  0.00  0.00    -0.273 OA
ATOM     35  N   UNL     1      22.769  11.910  -1.528  0.00  0.00    -0.253 N 
ATOM     36  H   UNL     1      23.386  11.295  -2.035  0.00  0.00    +0.158 HD
ATOM     37  C   UNL     1      22.525  11.496  -0.224  0.00  0.00    +0.221 A 
ATOM     38  N   UNL     1      23.234  10.431   0.182  0.00  0.00    -0.223 NA
ATOM     39  C   UNL     1      23.066  10.060   1.469  0.00  0.00    +0.116 A 
ATOM     40  C   UNL     1      22.209  10.689   2.341  0.00  0.00    +0.039 A 
ATOM     41  C   UNL     1      21.501  11.735   1.811  0.00  0.00    +0.116 A 
ATOM     42  N   UNL     1      21.645  12.148   0.543  0.00  0.00    -0.223 NA
ENDBRANCH  32  33
ENDBRANCH  30  32
ENDBRANCH  26  28
ENDBRANCH  25  26
ENDBRANCH  24  25
ENDBRANCH   1  24
TORSDOF 12
