REMARK VINA RESULT:    -7.125      1.150      2.062
REMARK INTER + INTRA:         -13.530
REMARK INTER:                 -11.913
REMARK INTRA:                  -1.617
REMARK UNBOUND:                -1.407
REMARK  Name = lig_assembled_82.pdb
REMARK  14 active torsions:
REMARK  status: ('A' for Active; 'I' for Inactive)
REMARK    1  A    between atoms: _2  and  _8
REMARK    2  A    between atoms: _4  and  _15
REMARK    3  A    between atoms: _5  and  _6
REMARK    4  A    between atoms: _5  and  _17
REMARK    5  A    between atoms: _8  and  _9
REMARK    6  A    between atoms: _15  and  _16
REMARK    7  A    between atoms: _17  and  _19
REMARK    8  A    between atoms: _18  and  _23
REMARK    9  A    between atoms: _19  and  _22
REMARK   10  A    between atoms: _27  and  _37
REMARK   11  A    between atoms: _29  and  _30
REMARK   12  A    between atoms: _31  and  _33
REMARK   13  A    between atoms: _33  and  _35
REMARK   14  A    between atoms: _35  and  _37
REMARK                            x       y       z     vdW  Elec       q    Type
REMARK                         _______ _______ _______ _____ _____    ______ ____
ROOT
ATOM      1  C   UNL     1      28.490  17.134  -0.776  0.00  0.00    +0.400 C 
ATOM      2  N   UNL     1      28.905  16.094   0.022  0.00  0.00    -0.278 N 
ATOM      3  H   UNL     1      29.839  16.438   0.411  0.00  0.00    +0.152 HD
ATOM      4  O   UNL     1      29.116  18.190  -0.722  0.00  0.00    -0.226 OA
ENDROOT
BRANCH   2   5
ATOM      5  C   UNL     1      28.640  14.768   0.575  0.00  0.00    +0.152 C 
BRANCH   5   6
ATOM      6  C   UNL     1      29.812  14.097   1.322  0.00  0.00    +0.193 C 
ATOM      7  O   UNL     1      29.967  12.779   0.751  0.00  0.00    -0.219 OA
BRANCH   6   8
ATOM      8  C   UNL     1      31.209  14.743   1.187  0.00  0.00    +0.212 C 
ATOM      9  O   UNL     1      31.218  16.050   1.783  0.00  0.00    -0.218 OA
BRANCH   8  10
ATOM     10  C   UNL     1      32.359  13.883   1.838  0.00  0.00    +0.171 C 
ATOM     11  O   UNL     1      32.823  14.433   3.067  0.00  0.00    -0.343 OA
ATOM     12  C   UNL     1      33.984  14.020   3.726  0.00  0.00    +0.220 C 
ATOM     13  C   UNL     1      35.198  13.995   2.781  0.00  0.00    +0.076 C 
ATOM     14  C   UNL     1      34.814  13.149   1.556  0.00  0.00    +0.177 C 
ATOM     15  O   UNL     1      35.918  13.060   0.667  0.00  0.00    -0.221 OA
ATOM     16  C   UNL     1      33.565  13.762   0.850  0.00  0.00    +0.155 C 
BRANCH  16  17
ATOM     17  N   UNL     1      33.200  12.966  -0.319  0.00  0.00    -0.202 NA
ATOM     18  C   UNL     1      33.040  13.345  -1.612  0.00  0.00    +0.242 C 
ATOM     19  C   UNL     1      32.952  12.273  -2.666  0.00  0.00    +0.096 C 
ATOM     20  O   UNL     1      32.972  14.541  -1.890  0.00  0.00    -0.273 OA
ENDBRANCH  16  17
BRANCH  12  21
ATOM     21  C   UNL     1      33.813  12.610   4.516  0.00  0.00    +0.391 C 
ATOM     22  O   UNL     1      35.070  12.200   4.771  0.00  0.00    -0.243 OA
ATOM     23  O   UNL     1      32.525  12.541   4.875  0.00  0.00    -0.243 OA
ENDBRANCH  12  21
ENDBRANCH   8  10
ENDBRANCH   6   8
ENDBRANCH   5   6
ENDBRANCH   2   5
BRANCH   1  24
ATOM     24  O   UNL     1      27.481  16.883  -1.543  0.00  0.00    -0.450 OA
BRANCH  24  25
ATOM     25  C   UNL     1      27.103  15.971  -2.547  0.00  0.00    +0.240 C 
BRANCH  25  26
ATOM     26  C   UNL     1      26.027  16.424  -3.552  0.00  0.00    +0.100 C 
BRANCH  26  28
ATOM     27  N   UNL     1      25.236  15.112  -5.494  0.00  0.00    -0.134 NA
ATOM     28  C   UNL     1      25.333  15.271  -4.132  0.00  0.00    +0.086 A 
ATOM     29  C   UNL     1      24.684  14.213  -3.520  0.00  0.00    +0.134 A 
ATOM     30  N   UNL     1      24.111  13.529  -4.556  0.00  0.00    -0.247 N 
ATOM     31  N   UNL     1      24.521  14.023  -5.739  0.00  0.00    -0.065 NA
BRANCH  30  32
ATOM     32  C   UNL     1      23.103  12.467  -4.501  0.00  0.00    +0.176 C 
BRANCH  32  33
ATOM     33  C   UNL     1      21.977  12.786  -3.549  0.00  0.00    -0.049 C 
ATOM     34  C   UNL     1      21.096  13.949  -3.878  0.00  0.00    +0.023 C 
ATOM     35  C   UNL     1      19.543  13.847  -3.527  0.00  0.00    -0.025 C 
ATOM     36  C   UNL     1      18.586  12.648  -3.520  0.00  0.00    +0.012 C 
ATOM     37  C   UNL     1      20.086  14.100  -2.044  0.00  0.00    -0.000 C 
ATOM     38  C   UNL     1      20.764  12.861  -1.379  0.00  0.00    +0.031 C 
ATOM     39  C   UNL     1      18.885  14.910  -4.442  0.00  0.00    +0.012 C 
ATOM     40  C   UNL     1      21.164  15.003  -2.700  0.00  0.00    +0.012 C 
ATOM     41  C   UNL     1      21.777  12.246  -2.331  0.00  0.00    -0.025 C 
ENDBRANCH  32  33
ENDBRANCH  30  32
ENDBRANCH  26  28
ENDBRANCH  25  26
ENDBRANCH  24  25
ENDBRANCH   1  24
TORSDOF 12
