REMARK VINA RESULT:    -6.469      2.169      3.170
REMARK INTER + INTRA:         -12.479
REMARK INTER:                 -10.629
REMARK INTRA:                  -1.850
REMARK UNBOUND:                -1.850
REMARK  Name = lig_assembled_2.pdb
REMARK  11 active torsions:
REMARK  status: ('A' for Active; 'I' for Inactive)
REMARK    1  A    between atoms: _2  and  _8
REMARK    2  A    between atoms: _5  and  _6
REMARK    3  A    between atoms: _5  and  _13
REMARK    4  A    between atoms: _13  and  _15
REMARK    5  A    between atoms: _14  and  _19
REMARK    6  A    between atoms: _15  and  _18
REMARK    7  A    between atoms: _23  and  _33
REMARK    8  A    between atoms: _25  and  _26
REMARK    9  A    between atoms: _27  and  _29
REMARK   10  A    between atoms: _29  and  _31
REMARK   11  A    between atoms: _31  and  _33
REMARK                            x       y       z     vdW  Elec       q    Type
REMARK                         _______ _______ _______ _____ _____    ______ ____
ROOT
ATOM      1  C   UNL     1      26.108  15.955  -3.698  0.00  0.00    +0.400 C 
ATOM      2  N   UNL     1      26.708  15.263  -2.672  0.00  0.00    -0.278 N 
ATOM      3  H   UNL     1      27.561  15.863  -2.435  0.00  0.00    +0.152 HD
ATOM      4  O   UNL     1      26.524  17.081  -3.958  0.00  0.00    -0.226 OA
ENDROOT
BRANCH   1   5
ATOM      5  O   UNL     1      25.165  15.327  -4.320  0.00  0.00    -0.450 OA
BRANCH   5   6
ATOM      6  C   UNL     1      23.836  14.911  -4.106  0.00  0.00    +0.240 C 
BRANCH   6   7
ATOM      7  C   UNL     1      23.058  15.580  -2.956  0.00  0.00    +0.100 C 
BRANCH   7   9
ATOM      8  N   UNL     1      21.072  14.490  -1.961  0.00  0.00    -0.134 NA
ATOM      9  C   UNL     1      22.428  14.556  -2.101  0.00  0.00    +0.086 A 
ATOM     10  C   UNL     1      23.007  13.557  -1.354  0.00  0.00    +0.139 A 
ATOM     11  N   UNL     1      21.950  12.877  -0.790  0.00  0.00    -0.220 N 
ATOM     12  N   UNL     1      20.790  13.473  -1.159  0.00  0.00    -0.061 NA
BRANCH  11  13
ATOM     13  C   UNL     1      21.975  11.717   0.027  0.00  0.00    +0.067 A 
ATOM     14  C   UNL     1      21.960  11.821   1.426  0.00  0.00    +0.029 A 
ATOM     15  C   UNL     1      22.022  10.666   2.214  0.00  0.00    +0.022 A 
ATOM     16  C   UNL     1      22.097   9.412   1.611  0.00  0.00    +0.041 A 
ATOM     17 CL   UNL     1      22.196   8.000   2.587  0.00  0.00    -0.084 Cl
ATOM     18  C   UNL     1      22.098   9.299   0.222  0.00  0.00    +0.022 A 
ATOM     19  C   UNL     1      22.035  10.447  -0.571  0.00  0.00    +0.029 A 
ENDBRANCH  11  13
ENDBRANCH   7   9
ENDBRANCH   6   7
ENDBRANCH   5   6
ENDBRANCH   1   5
BRANCH   2  20
ATOM     20  C   UNL     1      26.696  14.112  -1.773  0.00  0.00    +0.152 C 
BRANCH  20  21
ATOM     21  C   UNL     1      27.962  13.230  -1.781  0.00  0.00    +0.193 C 
ATOM     22  O   UNL     1      28.286  12.981  -3.167  0.00  0.00    -0.219 OA
BRANCH  21  23
ATOM     23  C   UNL     1      29.255  13.830  -1.185  0.00  0.00    +0.212 C 
ATOM     24  O   UNL     1      29.091  15.238  -0.947  0.00  0.00    -0.218 OA
BRANCH  23  25
ATOM     25  C   UNL     1      29.701  13.140   0.160  0.00  0.00    +0.171 C 
ATOM     26  O   UNL     1      28.666  13.128   1.138  0.00  0.00    -0.343 OA
ATOM     27  C   UNL     1      28.858  12.804   2.484  0.00  0.00    +0.220 C 
ATOM     28  C   UNL     1      30.022  13.598   3.101  0.00  0.00    +0.076 C 
ATOM     29  C   UNL     1      31.253  13.388   2.203  0.00  0.00    +0.177 C 
ATOM     30  O   UNL     1      32.372  14.071   2.752  0.00  0.00    -0.221 OA
ATOM     31  C   UNL     1      30.949  13.874   0.752  0.00  0.00    +0.155 C 
BRANCH  31  32
ATOM     32  N   UNL     1      32.118  13.683  -0.103  0.00  0.00    -0.202 NA
ATOM     33  C   UNL     1      32.827  14.592  -0.818  0.00  0.00    +0.242 C 
ATOM     34  C   UNL     1      34.163  14.176  -1.377  0.00  0.00    +0.096 C 
ATOM     35  O   UNL     1      32.371  15.720  -0.991  0.00  0.00    -0.273 OA
ENDBRANCH  31  32
BRANCH  27  36
ATOM     36  C   UNL     1      29.016  11.209   2.750  0.00  0.00    +0.391 C 
ATOM     37  O   UNL     1      29.535  11.114   3.989  0.00  0.00    -0.243 OA
ATOM     38  O   UNL     1      28.307  10.602   1.790  0.00  0.00    -0.243 OA
ENDBRANCH  27  36
ENDBRANCH  23  25
ENDBRANCH  21  23
ENDBRANCH  20  21
ENDBRANCH   2  20
TORSDOF 11
