REMARK VINA RESULT:    -7.246      2.352      8.930
REMARK INTER + INTRA:         -14.145
REMARK INTER:                 -11.267
REMARK INTRA:                  -2.878
REMARK UNBOUND:                -1.815
REMARK  Name = lig_assembled_71.pdb
REMARK  12 active torsions:
REMARK  status: ('A' for Active; 'I' for Inactive)
REMARK    1  A    between atoms: _2  and  _11
REMARK    2  A    between atoms: _8  and  _9
REMARK    3  A    between atoms: _8  and  _17
REMARK    4  A    between atoms: _11  and  _12
REMARK    5  A    between atoms: _17  and  _19
REMARK    6  A    between atoms: _18  and  _23
REMARK    7  A    between atoms: _19  and  _22
REMARK    8  A    between atoms: _27  and  _37
REMARK    9  A    between atoms: _29  and  _30
REMARK   10  A    between atoms: _31  and  _33
REMARK   11  A    between atoms: _33  and  _35
REMARK   12  A    between atoms: _35  and  _37
REMARK                            x       y       z     vdW  Elec       q    Type
REMARK                         _______ _______ _______ _____ _____    ______ ____
ROOT
ATOM      1  C   UNL     1      25.657  15.940  -4.112  0.00  0.00    +0.400 C 
ATOM      2  N   UNL     1      24.329  15.594  -4.033  0.00  0.00    -0.278 N 
ATOM      3  H   UNL     1      24.160  15.053  -4.939  0.00  0.00    +0.152 HD
ATOM      4  O   UNL     1      26.333  15.443  -5.009  0.00  0.00    -0.226 OA
ENDROOT
BRANCH   2   5
ATOM      5  C   UNL     1      23.078  15.622  -3.279  0.00  0.00    +0.152 C 
BRANCH   5   6
ATOM      6  C   UNL     1      22.922  14.547  -2.183  0.00  0.00    +0.193 C 
ATOM      7  O   UNL     1      21.515  14.483  -1.862  0.00  0.00    -0.219 OA
BRANCH   6   8
ATOM      8  C   UNL     1      23.301  13.095  -2.547  0.00  0.00    +0.212 C 
ATOM      9  O   UNL     1      23.399  12.943  -3.972  0.00  0.00    -0.218 OA
BRANCH   8  10
ATOM     10  C   UNL     1      24.656  12.621  -1.896  0.00  0.00    +0.171 C 
ATOM     11  O   UNL     1      25.643  12.288  -2.866  0.00  0.00    -0.343 OA
ATOM     12  C   UNL     1      26.835  11.618  -2.580  0.00  0.00    +0.220 C 
ATOM     13  C   UNL     1      26.588  10.337  -1.764  0.00  0.00    +0.076 C 
ATOM     14  C   UNL     1      25.753  10.728  -0.533  0.00  0.00    +0.177 C 
ATOM     15  O   UNL     1      25.529   9.585   0.280  0.00  0.00    -0.221 OA
ATOM     16  C   UNL     1      24.407  11.379  -0.980  0.00  0.00    +0.155 C 
BRANCH  16  17
ATOM     17  N   UNL     1      23.608  11.745   0.187  0.00  0.00    -0.202 NA
ATOM     18  C   UNL     1      22.342  11.386   0.519  0.00  0.00    +0.242 C 
ATOM     19  C   UNL     1      21.864  11.665   1.920  0.00  0.00    +0.096 C 
ATOM     20  O   UNL     1      21.624  10.847  -0.320  0.00  0.00    -0.273 OA
ENDBRANCH  16  17
BRANCH  12  21
ATOM     21  C   UNL     1      27.958  12.563  -1.884  0.00  0.00    +0.391 C 
ATOM     22  O   UNL     1      28.793  11.708  -1.261  0.00  0.00    -0.243 OA
ATOM     23  O   UNL     1      27.811  13.776  -2.429  0.00  0.00    -0.243 OA
ENDBRANCH  12  21
ENDBRANCH   8  10
ENDBRANCH   6   8
ENDBRANCH   5   6
ENDBRANCH   2   5
BRANCH   1  24
ATOM     24  O   UNL     1      26.065  16.797  -3.234  0.00  0.00    -0.450 OA
BRANCH  24  25
ATOM     25  C   UNL     1      27.246  17.471  -2.868  0.00  0.00    +0.240 C 
BRANCH  25  26
ATOM     26  C   UNL     1      27.423  17.842  -1.384  0.00  0.00    +0.100 C 
BRANCH  26  28
ATOM     27  N   UNL     1      29.782  17.404  -0.742  0.00  0.00    -0.134 NA
ATOM     28  C   UNL     1      28.470  17.005  -0.768  0.00  0.00    +0.086 A 
ATOM     29  C   UNL     1      28.364  15.781  -0.150  0.00  0.00    +0.134 A 
ATOM     30  N   UNL     1      29.642  15.477   0.215  0.00  0.00    -0.243 N 
ATOM     31  N   UNL     1      30.490  16.464  -0.129  0.00  0.00    -0.065 NA
BRANCH  30  32
ATOM     32  C   UNL     1      30.120  14.346   0.984  0.00  0.00    +0.241 C 
BRANCH  32  33
ATOM     33  C   UNL     1      31.384  13.768   0.403  0.00  0.00    +0.241 C 
ATOM     34  O   UNL     1      32.290  13.394   1.147  0.00  0.00    -0.273 OA
ATOM     35  N   UNL     1      31.438  13.779  -0.975  0.00  0.00    -0.253 N 
ATOM     36  H   UNL     1      30.764  14.277  -1.535  0.00  0.00    +0.158 HD
ATOM     37  C   UNL     1      32.501  13.269  -1.711  0.00  0.00    +0.221 A 
ATOM     38  N   UNL     1      32.522  13.621  -3.006  0.00  0.00    -0.223 NA
ATOM     39  C   UNL     1      33.588  13.198  -3.719  0.00  0.00    +0.116 A 
ATOM     40  C   UNL     1      34.600  12.426  -3.200  0.00  0.00    +0.039 A 
ATOM     41  C   UNL     1      34.456  12.086  -1.881  0.00  0.00    +0.116 A 
ATOM     42  N   UNL     1      33.422  12.495  -1.129  0.00  0.00    -0.223 NA
ENDBRANCH  32  33
ENDBRANCH  30  32
ENDBRANCH  26  28
ENDBRANCH  25  26
ENDBRANCH  24  25
ENDBRANCH   1  24
TORSDOF 12
