REMARK VINA RESULT:    -6.454      2.243      4.126
REMARK INTER + INTRA:         -12.821
REMARK INTER:                 -11.247
REMARK INTRA:                  -1.574
REMARK UNBOUND:                -1.839
REMARK  Name = lig_assembled_61.pdb
REMARK  12 active torsions:
REMARK  status: ('A' for Active; 'I' for Inactive)
REMARK    1  A    between atoms: _2  and  _8
REMARK    2  A    between atoms: _5  and  _6
REMARK    3  A    between atoms: _5  and  _12
REMARK    4  A    between atoms: _8  and  _9
REMARK    5  A    between atoms: _12  and  _14
REMARK    6  A    between atoms: _13  and  _18
REMARK    7  A    between atoms: _14  and  _17
REMARK    8  A    between atoms: _22  and  _32
REMARK    9  A    between atoms: _24  and  _25
REMARK   10  A    between atoms: _26  and  _28
REMARK   11  A    between atoms: _28  and  _30
REMARK   12  A    between atoms: _30  and  _32
REMARK                            x       y       z     vdW  Elec       q    Type
REMARK                         _______ _______ _______ _____ _____    ______ ____
ROOT
ATOM      1  C   UNL     1      30.757  16.478  -0.223  0.00  0.00    +0.152 C 
ENDROOT
BRANCH   1   3
ATOM      2  C   UNL     1      28.263  17.543  -0.529  0.00  0.00    +0.400 C 
ATOM      3  N   UNL     1      29.500  17.199  -0.037  0.00  0.00    -0.278 N 
ATOM      4  H   UNL     1      29.528  17.679   0.917  0.00  0.00    +0.152 HD
ATOM      5  O   UNL     1      27.473  18.100   0.228  0.00  0.00    -0.226 OA
BRANCH   2   6
ATOM      6  O   UNL     1      28.060  17.267  -1.776  0.00  0.00    -0.450 OA
BRANCH   6   7
ATOM      7  C   UNL     1      27.142  17.568  -2.801  0.00  0.00    +0.240 C 
BRANCH   7   8
ATOM      8  C   UNL     1      26.962  16.527  -3.923  0.00  0.00    +0.100 C 
BRANCH   8  10
ATOM      9  N   UNL     1      25.246  14.939  -4.733  0.00  0.00    -0.134 NA
ATOM     10  C   UNL     1      25.637  15.889  -3.825  0.00  0.00    +0.086 A 
ATOM     11  C   UNL     1      24.625  16.082  -2.910  0.00  0.00    +0.134 A 
ATOM     12  N   UNL     1      23.626  15.265  -3.351  0.00  0.00    -0.247 N 
ATOM     13  N   UNL     1      24.017  14.549  -4.421  0.00  0.00    -0.065 NA
BRANCH  12  14
ATOM     14  C   UNL     1      22.299  15.084  -2.790  0.00  0.00    +0.180 C 
BRANCH  14  15
ATOM     15  C   UNL     1      22.271  13.979  -1.770  0.00  0.00    -0.019 A 
ATOM     16  C   UNL     1      23.435  13.294  -1.279  0.00  0.00    +0.013 A 
ATOM     17  C   UNL     1      23.127  12.296  -0.380  0.00  0.00    +0.045 A 
ATOM     18  S   UNL     1      21.447  12.178  -0.105  0.00  0.00    -0.105 S 
ATOM     19  C   UNL     1      21.125  13.452  -1.198  0.00  0.00    +0.050 A 
ENDBRANCH  14  15
ENDBRANCH  12  14
ENDBRANCH   8  10
ENDBRANCH   7   8
ENDBRANCH   6   7
ENDBRANCH   2   6
ENDBRANCH   1   3
BRANCH   1  20
ATOM     20  C   UNL     1      30.671  14.939  -0.171  0.00  0.00    +0.193 C 
ATOM     21  O   UNL     1      31.661  14.437  -1.095  0.00  0.00    -0.219 OA
BRANCH  20  22
ATOM     22  C   UNL     1      31.010  14.249   1.169  0.00  0.00    +0.212 C 
ATOM     23  O   UNL     1      31.214  15.229   2.201  0.00  0.00    -0.218 OA
BRANCH  22  24
ATOM     24  C   UNL     1      29.902  13.236   1.648  0.00  0.00    +0.171 C 
ATOM     25  O   UNL     1      28.596  13.803   1.628  0.00  0.00    -0.343 OA
ATOM     26  C   UNL     1      27.474  13.221   2.223  0.00  0.00    +0.220 C 
ATOM     27  C   UNL     1      27.746  12.822   3.684  0.00  0.00    +0.076 C 
ATOM     28  C   UNL     1      29.012  11.950   3.698  0.00  0.00    +0.177 C 
ATOM     29  O   UNL     1      29.287  11.520   5.023  0.00  0.00    -0.221 OA
ATOM     30  C   UNL     1      30.216  12.741   3.098  0.00  0.00    +0.155 C 
BRANCH  30  31
ATOM     31  N   UNL     1      31.423  11.918   3.115  0.00  0.00    -0.202 NA
ATOM     32  C   UNL     1      32.576  12.084   3.813  0.00  0.00    +0.242 C 
ATOM     33  C   UNL     1      33.546  10.933   3.873  0.00  0.00    +0.096 C 
ATOM     34  O   UNL     1      32.798  13.155   4.373  0.00  0.00    -0.273 OA
ENDBRANCH  30  31
BRANCH  26  35
ATOM     35  C   UNL     1      26.860  11.982   1.370  0.00  0.00    +0.391 C 
ATOM     36  O   UNL     1      25.769  11.593   2.059  0.00  0.00    -0.243 OA
ATOM     37  O   UNL     1      27.473  12.011   0.181  0.00  0.00    -0.243 OA
ENDBRANCH  26  35
ENDBRANCH  22  24
ENDBRANCH  20  22
ENDBRANCH   1  20
TORSDOF 12
