REMARK VINA RESULT:    -6.897      3.306      6.530
REMARK INTER + INTRA:         -13.842
REMARK INTER:                 -11.626
REMARK INTRA:                  -2.216
REMARK UNBOUND:                -1.904
REMARK  Name = lig_assembled_73.pdb
REMARK  13 active torsions:
REMARK  status: ('A' for Active; 'I' for Inactive)
REMARK    1  A    between atoms: _2  and  _9
REMARK    2  A    between atoms: _3  and  _13
REMARK    3  A    between atoms: _6  and  _7
REMARK    4  A    between atoms: _6  and  _17
REMARK    5  A    between atoms: _12  and  _15
REMARK    6  A    between atoms: _17  and  _19
REMARK    7  A    between atoms: _18  and  _23
REMARK    8  A    between atoms: _19  and  _22
REMARK    9  A    between atoms: _27  and  _37
REMARK   10  A    between atoms: _29  and  _30
REMARK   11  A    between atoms: _31  and  _33
REMARK   12  A    between atoms: _33  and  _35
REMARK   13  A    between atoms: _35  and  _37
REMARK                            x       y       z     vdW  Elec       q    Type
REMARK                         _______ _______ _______ _____ _____    ______ ____
ROOT
ATOM      1  C   UNL     1      33.952  13.452   0.777  0.00  0.00    +0.400 C 
ATOM      2  N   UNL     1      34.851  13.293   1.805  0.00  0.00    -0.278 N 
ATOM      3  H   UNL     1      35.451  12.469   1.484  0.00  0.00    +0.152 HD
ATOM      4  O   UNL     1      34.134  12.813  -0.256  0.00  0.00    -0.226 OA
ENDROOT
BRANCH   2   5
ATOM      5  C   UNL     1      35.352  13.744   3.101  0.00  0.00    +0.152 C 
BRANCH   5   6
ATOM      6  C   UNL     1      34.595  13.224   4.340  0.00  0.00    +0.193 C 
ATOM      7  O   UNL     1      34.234  14.383   5.123  0.00  0.00    -0.219 OA
BRANCH   6   8
ATOM      8  C   UNL     1      33.258  12.487   4.104  0.00  0.00    +0.212 C 
ATOM      9  O   UNL     1      33.490  11.214   3.480  0.00  0.00    -0.218 OA
BRANCH   8  10
ATOM     10  C   UNL     1      32.430  12.256   5.426  0.00  0.00    +0.171 C 
ATOM     11  O   UNL     1      33.092  11.390   6.343  0.00  0.00    -0.343 OA
ATOM     12  C   UNL     1      32.490  10.827   7.470  0.00  0.00    +0.220 C 
ATOM     13  C   UNL     1      31.155  10.144   7.122  0.00  0.00    +0.076 C 
ATOM     14  C   UNL     1      30.292  11.171   6.372  0.00  0.00    +0.177 C 
ATOM     15  O   UNL     1      29.028  10.602   6.061  0.00  0.00    -0.221 OA
ATOM     16  C   UNL     1      31.028  11.654   5.084  0.00  0.00    +0.155 C 
BRANCH  16  17
ATOM     17  N   UNL     1      30.208  12.625   4.365  0.00  0.00    -0.202 NA
ATOM     18  C   UNL     1      29.525  12.491   3.199  0.00  0.00    +0.242 C 
ATOM     19  C   UNL     1      28.521  13.552   2.831  0.00  0.00    +0.096 C 
ATOM     20  O   UNL     1      29.738  11.517   2.480  0.00  0.00    -0.273 OA
ENDBRANCH  16  17
BRANCH  12  21
ATOM     21  C   UNL     1      32.323  11.870   8.704  0.00  0.00    +0.391 C 
ATOM     22  O   UNL     1      31.313  11.373   9.445  0.00  0.00    -0.243 OA
ATOM     23  O   UNL     1      33.418  12.640   8.688  0.00  0.00    -0.243 OA
ENDBRANCH  12  21
ENDBRANCH   8  10
ENDBRANCH   6   8
ENDBRANCH   5   6
ENDBRANCH   2   5
BRANCH   1  24
ATOM     24  O   UNL     1      32.965  14.252   1.016  0.00  0.00    -0.450 OA
BRANCH  24  25
ATOM     25  C   UNL     1      31.600  14.390   0.695  0.00  0.00    +0.240 C 
BRANCH  25  26
ATOM     26  C   UNL     1      30.907  15.708   1.090  0.00  0.00    +0.100 C 
BRANCH  26  28
ATOM     27  N   UNL     1      29.830  17.351  -0.414  0.00  0.00    -0.134 NA
ATOM     28  C   UNL     1      29.900  16.080   0.078  0.00  0.00    +0.086 A 
ATOM     29  C   UNL     1      28.928  15.313  -0.520  0.00  0.00    +0.139 A 
ATOM     30  N   UNL     1      28.285  16.165  -1.386  0.00  0.00    -0.220 N 
ATOM     31  N   UNL     1      28.846  17.394  -1.303  0.00  0.00    -0.061 NA
BRANCH  30  32
ATOM     32  C   UNL     1      27.198  15.894  -2.258  0.00  0.00    +0.074 A 
ATOM     33  C   UNL     1      26.753  16.888  -3.148  0.00  0.00    +0.032 A 
ATOM     34  C   UNL     1      25.677  16.647  -4.012  0.00  0.00    +0.054 A 
ATOM     35  C   UNL     1      25.032  15.411  -3.992  0.00  0.00    +0.195 A 
ATOM     36  C   UNL     1      25.477  14.430  -3.109  0.00  0.00    +0.316 A 
ATOM     37  C   UNL     1      26.558  14.648  -2.242  0.00  0.00    +0.116 A 
BRANCH  36  38
ATOM     38  N   UNL     1      24.820  13.139  -3.057  0.00  0.00    +0.083 N 
ATOM     39  O   UNL     1      23.602  13.124  -2.837  0.00  0.00    +0.042 OA
ATOM     40  O   UNL     1      25.550  12.141  -3.146  0.00  0.00    -0.576 OA
ENDBRANCH  36  38
BRANCH  35  41
ATOM     41  O   UNL     1      23.998  15.170  -4.847  0.00  0.00    -0.501 OA
ATOM     42  H   UNL     1      23.600  14.304  -4.652  0.00  0.00    +0.292 HD
ENDBRANCH  35  41
ENDBRANCH  30  32
ENDBRANCH  26  28
ENDBRANCH  25  26
ENDBRANCH  24  25
ENDBRANCH   1  24
TORSDOF 13
