REMARK VINA RESULT:    -7.020      1.900      3.610
REMARK INTER + INTRA:         -13.702
REMARK INTER:                 -11.976
REMARK INTRA:                  -1.726
REMARK UNBOUND:                -2.168
REMARK  Name = lig_assembled_86.pdb
REMARK  12 active torsions:
REMARK  status: ('A' for Active; 'I' for Inactive)
REMARK    1  A    between atoms: _2  and  _9
REMARK    2  A    between atoms: _3  and  _12
REMARK    3  A    between atoms: _6  and  _7
REMARK    4  A    between atoms: _6  and  _16
REMARK    5  A    between atoms: _16  and  _18
REMARK    6  A    between atoms: _17  and  _22
REMARK    7  A    between atoms: _18  and  _21
REMARK    8  A    between atoms: _26  and  _36
REMARK    9  A    between atoms: _28  and  _29
REMARK   10  A    between atoms: _30  and  _32
REMARK   11  A    between atoms: _32  and  _34
REMARK   12  A    between atoms: _34  and  _36
REMARK                            x       y       z     vdW  Elec       q    Type
REMARK                         _______ _______ _______ _____ _____    ______ ____
ROOT
ATOM      1  C   UNL     1      28.709  16.919  -0.474  0.00  0.00    +0.400 C 
ATOM      2  N   UNL     1      28.775  15.786   0.303  0.00  0.00    -0.278 N 
ATOM      3  H   UNL     1      29.488  16.044   1.056  0.00  0.00    +0.152 HD
ATOM      4  O   UNL     1      29.271  17.933  -0.069  0.00  0.00    -0.226 OA
ENDROOT
BRANCH   1   5
ATOM      5  O   UNL     1      28.073  16.794  -1.592  0.00  0.00    -0.450 OA
BRANCH   5   6
ATOM      6  C   UNL     1      27.119  17.487  -2.362  0.00  0.00    +0.240 C 
BRANCH   6   7
ATOM      7  C   UNL     1      27.011  17.124  -3.856  0.00  0.00    +0.100 C 
BRANCH   7   9
ATOM      8  N   UNL     1      25.744  15.533  -5.274  0.00  0.00    -0.134 NA
ATOM      9  C   UNL     1      25.916  16.160  -4.067  0.00  0.00    +0.086 A 
ATOM     10  C   UNL     1      24.949  15.720  -3.194  0.00  0.00    +0.134 A 
ATOM     11  N   UNL     1      24.245  14.804  -3.915  0.00  0.00    -0.248 N 
ATOM     12  N   UNL     1      24.705  14.715  -5.174  0.00  0.00    -0.065 NA
BRANCH  11  13
ATOM     13  C   UNL     1      23.137  13.981  -3.453  0.00  0.00    +0.112 C 
ATOM     14  C   UNL     1      23.336  12.494  -3.812  0.00  0.00    +0.045 C 
ATOM     15  C   UNL     1      23.049  11.516  -2.670  0.00  0.00    +0.059 C 
ATOM     16  C   UNL     1      24.197  11.501  -1.654  0.00  0.00    +0.020 C 
ATOM     17  C   UNL     1      23.778  12.509  -0.586  0.00  0.00    +0.020 C 
ATOM     18  C   UNL     1      22.462  13.092  -1.104  0.00  0.00    +0.059 C 
ATOM     19  N   UNL     1      21.928  11.940  -1.831  0.00  0.00    -0.299 NA
ATOM     20  C   UNL     1      20.651  12.128  -2.492  0.00  0.00    +0.105 C 
ATOM     21  C   UNL     1      22.707  14.310  -2.005  0.00  0.00    +0.045 C 
ENDBRANCH  11  13
ENDBRANCH   7   9
ENDBRANCH   6   7
ENDBRANCH   5   6
ENDBRANCH   1   5
BRANCH   2  22
ATOM     22  C   UNL     1      28.308  14.427   0.564  0.00  0.00    +0.152 C 
BRANCH  22  23
ATOM     23  C   UNL     1      28.596  13.868   1.972  0.00  0.00    +0.193 C 
ATOM     24  O   UNL     1      27.383  13.222   2.419  0.00  0.00    -0.219 OA
BRANCH  23  25
ATOM     25  C   UNL     1      29.682  12.777   2.100  0.00  0.00    +0.212 C 
ATOM     26  O   UNL     1      29.289  11.591   1.391  0.00  0.00    -0.218 OA
BRANCH  25  27
ATOM     27  C   UNL     1      31.094  13.237   1.570  0.00  0.00    +0.171 C 
ATOM     28  O   UNL     1      31.224  13.089   0.160  0.00  0.00    -0.343 OA
ATOM     29  C   UNL     1      32.432  13.187  -0.535  0.00  0.00    +0.220 C 
ATOM     30  C   UNL     1      33.523  12.302   0.091  0.00  0.00    +0.076 C 
ATOM     31  C   UNL     1      33.605  12.656   1.586  0.00  0.00    +0.177 C 
ATOM     32  O   UNL     1      34.630  11.892   2.206  0.00  0.00    -0.221 OA
ATOM     33  C   UNL     1      32.225  12.415   2.271  0.00  0.00    +0.155 C 
BRANCH  33  34
ATOM     34  N   UNL     1      32.300  12.744   3.693  0.00  0.00    -0.202 NA
ATOM     35  C   UNL     1      32.104  11.952   4.778  0.00  0.00    +0.242 C 
ATOM     36  C   UNL     1      32.533  12.469   6.127  0.00  0.00    +0.096 C 
ATOM     37  O   UNL     1      31.588  10.845   4.637  0.00  0.00    -0.273 OA
ENDBRANCH  33  34
BRANCH  29  38
ATOM     38  C   UNL     1      32.943  14.716  -0.731  0.00  0.00    +0.391 C 
ATOM     39  O   UNL     1      34.240  14.607  -1.080  0.00  0.00    -0.243 OA
ATOM     40  O   UNL     1      31.839  15.473  -0.771  0.00  0.00    -0.243 OA
ENDBRANCH  29  38
ENDBRANCH  25  27
ENDBRANCH  23  25
ENDBRANCH  22  23
ENDBRANCH   2  22
TORSDOF 11
