REMARK VINA RESULT:    -6.457      2.162      2.835
REMARK INTER + INTRA:         -14.226
REMARK INTER:                 -11.244
REMARK INTRA:                  -2.982
REMARK UNBOUND:                -2.486
REMARK  Name = lig_assembled_29.pdb
REMARK  16 active torsions:
REMARK  status: ('A' for Active; 'I' for Inactive)
REMARK    1  A    between atoms: _2  and  _8
REMARK    2  A    between atoms: _5  and  _6
REMARK    3  A    between atoms: _5  and  _18
REMARK    4  A    between atoms: _8  and  _9
REMARK    5  A    between atoms: _11  and  _17
REMARK    6  A    between atoms: _12  and  _17
REMARK    7  A    between atoms: _13  and  _16
REMARK    8  A    between atoms: _14  and  _16
REMARK    9  A    between atoms: _18  and  _20
REMARK   10  A    between atoms: _19  and  _24
REMARK   11  A    between atoms: _20  and  _23
REMARK   12  A    between atoms: _28  and  _38
REMARK   13  A    between atoms: _30  and  _31
REMARK   14  A    between atoms: _32  and  _34
REMARK   15  A    between atoms: _34  and  _36
REMARK   16  A    between atoms: _36  and  _38
REMARK                            x       y       z     vdW  Elec       q    Type
REMARK                         _______ _______ _______ _____ _____    ______ ____
ROOT
ATOM      1  C   UNL     1      27.869  17.306  -0.992  0.00  0.00    +0.400 C 
ATOM      2  N   UNL     1      28.259  16.360  -0.074  0.00  0.00    -0.278 N 
ATOM      3  H   UNL     1      28.636  16.943   0.738  0.00  0.00    +0.152 HD
ATOM      4  O   UNL     1      27.858  18.484  -0.641  0.00  0.00    -0.226 OA
ENDROOT
BRANCH   2   5
ATOM      5  C   UNL     1      28.374  14.949   0.286  0.00  0.00    +0.152 C 
BRANCH   5   6
ATOM      6  C   UNL     1      29.700  14.257  -0.090  0.00  0.00    +0.193 C 
ATOM      7  O   UNL     1      29.725  14.160  -1.531  0.00  0.00    -0.219 OA
BRANCH   6   8
ATOM      8  C   UNL     1      31.014  14.986   0.270  0.00  0.00    +0.212 C 
ATOM      9  O   UNL     1      30.735  16.190   1.003  0.00  0.00    -0.218 OA
BRANCH   8  10
ATOM     10  C   UNL     1      32.008  14.101   1.114  0.00  0.00    +0.171 C 
ATOM     11  O   UNL     1      32.301  14.668   2.386  0.00  0.00    -0.343 OA
ATOM     12  C   UNL     1      33.325  14.228   3.229  0.00  0.00    +0.220 C 
ATOM     13  C   UNL     1      34.669  14.124   2.487  0.00  0.00    +0.076 C 
ATOM     14  C   UNL     1      34.441  13.257   1.237  0.00  0.00    +0.177 C 
ATOM     15  O   UNL     1      35.664  13.095   0.534  0.00  0.00    -0.221 OA
ATOM     16  C   UNL     1      33.346  13.899   0.330  0.00  0.00    +0.155 C 
BRANCH  16  17
ATOM     17  N   UNL     1      33.132  13.083  -0.862  0.00  0.00    -0.202 NA
ATOM     18  C   UNL     1      33.221  13.421  -2.174  0.00  0.00    +0.242 C 
ATOM     19  C   UNL     1      33.240  12.316  -3.198  0.00  0.00    +0.096 C 
ATOM     20  O   UNL     1      33.285  14.606  -2.492  0.00  0.00    -0.273 OA
ENDBRANCH  16  17
BRANCH  12  21
ATOM     21  C   UNL     1      32.969  12.852   4.016  0.00  0.00    +0.391 C 
ATOM     22  O   UNL     1      34.143  12.428   4.522  0.00  0.00    -0.243 OA
ATOM     23  O   UNL     1      31.635  12.821   4.121  0.00  0.00    -0.243 OA
ENDBRANCH  12  21
ENDBRANCH   8  10
ENDBRANCH   6   8
ENDBRANCH   5   6
ENDBRANCH   2   5
BRANCH   1  24
ATOM     24  O   UNL     1      27.574  16.858  -2.168  0.00  0.00    -0.450 OA
BRANCH  24  25
ATOM     25  C   UNL     1      26.880  17.266  -3.324  0.00  0.00    +0.240 C 
BRANCH  25  26
ATOM     26  C   UNL     1      26.391  16.165  -4.285  0.00  0.00    +0.100 C 
BRANCH  26  28
ATOM     27  N   UNL     1      24.579  14.956  -3.100  0.00  0.00    -0.134 NA
ATOM     28  C   UNL     1      25.880  15.008  -3.526  0.00  0.00    +0.086 A 
ATOM     29  C   UNL     1      26.523  13.851  -3.154  0.00  0.00    +0.134 A 
ATOM     30  N   UNL     1      25.537  13.096  -2.588  0.00  0.00    -0.247 N 
ATOM     31  N   UNL     1      24.381  13.781  -2.515  0.00  0.00    -0.065 NA
BRANCH  30  32
ATOM     32  C   UNL     1      25.607  11.716  -2.145  0.00  0.00    +0.180 C 
BRANCH  32  33
ATOM     33  C   UNL     1      26.205  11.627  -0.759  0.00  0.00    -0.022 A 
ATOM     34  C   UNL     1      27.513  11.144  -0.583  0.00  0.00    +0.054 A 
ATOM     35  C   UNL     1      28.108  11.130   0.687  0.00  0.00    +0.162 A 
ATOM     36  C   UNL     1      27.382  11.598   1.801  0.00  0.00    +0.162 A 
ATOM     37  C   UNL     1      26.081  12.078   1.623  0.00  0.00    +0.050 A 
ATOM     38  C   UNL     1      25.496  12.090   0.354  0.00  0.00    +0.009 A 
BRANCH  36  39
ATOM     39  O   UNL     1      28.030  11.547   3.012  0.00  0.00    -0.491 OA
ATOM     40  C   UNL     1      27.851  12.638   3.903  0.00  0.00    +0.277 C 
ENDBRANCH  36  39
BRANCH  35  41
ATOM     41  O   UNL     1      29.385  10.695   0.939  0.00  0.00    -0.491 OA
ATOM     42  C   UNL     1      29.668   9.316   0.741  0.00  0.00    +0.277 C 
ENDBRANCH  35  41
ENDBRANCH  32  33
ENDBRANCH  30  32
ENDBRANCH  26  28
ENDBRANCH  25  26
ENDBRANCH  24  25
ENDBRANCH   1  24
TORSDOF 14
