REMARK VINA RESULT:    -6.255     22.216     25.311
REMARK INTER + INTRA:         -13.609
REMARK INTER:                 -11.482
REMARK INTRA:                  -2.128
REMARK UNBOUND:                -2.235
REMARK  Name = lig_assembled_50.pdb
REMARK  15 active torsions:
REMARK  status: ('A' for Active; 'I' for Inactive)
REMARK    1  A    between atoms: _2  and  _8
REMARK    2  A    between atoms: _4  and  _9
REMARK    3  A    between atoms: _4  and  _10
REMARK    4  A    between atoms: _5  and  _6
REMARK    5  A    between atoms: _5  and  _12
REMARK    6  A    between atoms: _8  and  _9
REMARK    7  A    between atoms: _9  and  _11
REMARK    8  A    between atoms: _12  and  _14
REMARK    9  A    between atoms: _13  and  _18
REMARK   10  A    between atoms: _14  and  _17
REMARK   11  A    between atoms: _22  and  _32
REMARK   12  A    between atoms: _24  and  _25
REMARK   13  A    between atoms: _26  and  _28
REMARK   14  A    between atoms: _28  and  _30
REMARK   15  A    between atoms: _30  and  _32
REMARK                            x       y       z     vdW  Elec       q    Type
REMARK                         _______ _______ _______ _____ _____    ______ ____
ROOT
ATOM      1  C   UNL     1      44.713  26.652  10.917  0.00  0.00    +0.400 C 
ATOM      2  N   UNL     1      45.543  25.967  10.062  0.00  0.00    -0.278 N 
ATOM      3  H   UNL     1      44.908  25.735   9.234  0.00  0.00    +0.152 HD
ATOM      4  O   UNL     1      43.603  26.982  10.507  0.00  0.00    -0.226 OA
ENDROOT
BRANCH   2   5
ATOM      5  C   UNL     1      46.874  25.438   9.777  0.00  0.00    +0.152 C 
BRANCH   5   6
ATOM      6  C   UNL     1      47.047  23.913   9.929  0.00  0.00    +0.193 C 
ATOM      7  O   UNL     1      48.340  23.699  10.537  0.00  0.00    -0.219 OA
BRANCH   6   8
ATOM      8  C   UNL     1      46.058  23.170  10.854  0.00  0.00    +0.212 C 
ATOM      9  O   UNL     1      44.718  23.277  10.346  0.00  0.00    -0.218 OA
BRANCH   8  10
ATOM     10  C   UNL     1      46.405  21.644  11.042  0.00  0.00    +0.171 C 
ATOM     11  O   UNL     1      45.622  20.797  10.208  0.00  0.00    -0.343 OA
ATOM     12  C   UNL     1      45.548  19.408  10.342  0.00  0.00    +0.220 C 
ATOM     13  C   UNL     1      45.237  18.990  11.790  0.00  0.00    +0.076 C 
ATOM     14  C   UNL     1      46.270  19.674  12.700  0.00  0.00    +0.177 C 
ATOM     15  O   UNL     1      46.053  19.289  14.050  0.00  0.00    -0.221 OA
ATOM     16  C   UNL     1      46.192  21.224  12.533  0.00  0.00    +0.155 C 
BRANCH  16  17
ATOM     17  N   UNL     1      47.167  21.878  13.402  0.00  0.00    -0.202 NA
ATOM     18  C   UNL     1      46.971  22.740  14.432  0.00  0.00    +0.242 C 
ATOM     19  C   UNL     1      48.130  23.034  15.349  0.00  0.00    +0.096 C 
ATOM     20  O   UNL     1      45.866  23.254  14.593  0.00  0.00    -0.273 OA
ENDBRANCH  16  17
BRANCH  12  21
ATOM     21  C   UNL     1      46.853  18.632   9.763  0.00  0.00    +0.391 C 
ATOM     22  O   UNL     1      46.768  17.386  10.269  0.00  0.00    -0.243 OA
ATOM     23  O   UNL     1      47.340  19.407   8.786  0.00  0.00    -0.243 OA
ENDBRANCH  12  21
ENDBRANCH   8  10
ENDBRANCH   6   8
ENDBRANCH   5   6
ENDBRANCH   2   5
BRANCH   1  24
ATOM     24  O   UNL     1      45.180  26.860  12.104  0.00  0.00    -0.450 OA
BRANCH  24  25
ATOM     25  C   UNL     1      46.216  26.399  12.940  0.00  0.00    +0.240 C 
BRANCH  25  26
ATOM     26  C   UNL     1      46.865  27.418  13.896  0.00  0.00    +0.100 C 
BRANCH  26  28
ATOM     27  N   UNL     1      45.132  28.210  15.480  0.00  0.00    -0.134 NA
ATOM     28  C   UNL     1      46.197  27.387  15.212  0.00  0.00    +0.086 A 
ATOM     29  C   UNL     1      46.457  26.611  16.323  0.00  0.00    +0.133 A 
ATOM     30  N   UNL     1      45.527  27.013  17.228  0.00  0.00    -0.249 N 
ATOM     31  N   UNL     1      44.721  27.962  16.715  0.00  0.00    -0.065 NA
BRANCH  30  32
ATOM     32  C   UNL     1      45.343  26.561  18.587  0.00  0.00    +0.178 C 
BRANCH  32  33
ATOM     33  C   UNL     1      44.262  25.485  18.746  0.00  0.00    +0.161 C 
BRANCH  33  34
ATOM     34  O   UNL     1      43.151  25.685  17.866  0.00  0.00    -0.388 OA
ATOM     35  H   UNL     1      42.408  26.055  18.383  0.00  0.00    +0.210 HD
ENDBRANCH  33  34
BRANCH  33  36
ATOM     36  C   UNL     1      44.793  24.054  18.594  0.00  0.00    +0.189 C 
BRANCH  36  37
ATOM     37  O   UNL     1      43.888  23.241  17.848  0.00  0.00    -0.392 OA
ATOM     38  H   UNL     1      44.386  22.482  17.488  0.00  0.00    +0.210 HD
ENDBRANCH  36  37
ENDBRANCH  33  36
ENDBRANCH  32  33
ENDBRANCH  30  32
ENDBRANCH  26  28
ENDBRANCH  25  26
ENDBRANCH  24  25
ENDBRANCH   1  24
TORSDOF 15
