REMARK VINA RESULT:    -7.311      1.263      1.602
REMARK INTER + INTRA:         -14.444
REMARK INTER:                 -13.083
REMARK INTRA:                  -1.361
REMARK UNBOUND:                -1.577
REMARK  Name = lig_assembled_66.pdb
REMARK  13 active torsions:
REMARK  status: ('A' for Active; 'I' for Inactive)
REMARK    1  A    between atoms: _2  and  _9
REMARK    2  A    between atoms: _6  and  _7
REMARK    3  A    between atoms: _6  and  _16
REMARK    4  A    between atoms: _9  and  _10
REMARK    5  A    between atoms: _14  and  _15
REMARK    6  A    between atoms: _16  and  _18
REMARK    7  A    between atoms: _17  and  _22
REMARK    8  A    between atoms: _18  and  _21
REMARK    9  A    between atoms: _26  and  _36
REMARK   10  A    between atoms: _28  and  _29
REMARK   11  A    between atoms: _30  and  _32
REMARK   12  A    between atoms: _32  and  _34
REMARK   13  A    between atoms: _34  and  _36
REMARK                            x       y       z     vdW  Elec       q    Type
REMARK                         _______ _______ _______ _____ _____    ______ ____
ROOT
ATOM      1  C   UNL     1      28.614  17.000  -0.507  0.00  0.00    +0.400 C 
ATOM      2  N   UNL     1      28.901  15.905   0.273  0.00  0.00    -0.278 N 
ATOM      3  H   UNL     1      29.568  16.295   1.012  0.00  0.00    +0.152 HD
ATOM      4  O   UNL     1      28.987  18.104  -0.116  0.00  0.00    -0.226 OA
ENDROOT
BRANCH   1   5
ATOM      5  O   UNL     1      27.993  16.753  -1.613  0.00  0.00    -0.450 OA
BRANCH   5   6
ATOM      6  C   UNL     1      26.966  17.299  -2.407  0.00  0.00    +0.240 C 
BRANCH   6   7
ATOM      7  C   UNL     1      26.790  16.734  -3.830  0.00  0.00    +0.100 C 
BRANCH   7   9
ATOM      8  N   UNL     1      25.210  15.212  -4.981  0.00  0.00    -0.134 NA
ATOM      9  C   UNL     1      25.816  15.626  -3.824  0.00  0.00    +0.086 A 
ATOM     10  C   UNL     1      25.390  14.830  -2.783  0.00  0.00    +0.134 A 
ATOM     11  N   UNL     1      24.570  13.916  -3.381  0.00  0.00    -0.247 N 
ATOM     12  N   UNL     1      24.450  14.160  -4.698  0.00  0.00    -0.065 NA
BRANCH  11  13
ATOM     13  C   UNL     1      24.090  12.666  -2.823  0.00  0.00    +0.180 C 
BRANCH  13  14
ATOM     14  C   UNL     1      22.945  12.843  -1.858  0.00  0.00    -0.025 A 
ATOM     15  C   UNL     1      21.891  13.717  -2.162  0.00  0.00    +0.005 A 
ATOM     16  C   UNL     1      20.787  13.824  -1.315  0.00  0.00    +0.002 A 
ATOM     17  C   UNL     1      20.731  13.073  -0.141  0.00  0.00    +0.019 A 
ATOM     18  C   UNL     1      21.789  12.224   0.196  0.00  0.00    +0.052 A 
ATOM     19  C   UNL     1      22.891  12.109  -0.661  0.00  0.00    +0.024 A 
BRANCH  18  20
ATOM     20  C   UNL     1      21.741  11.464   1.411  0.00  0.00    +0.099 C 
ATOM     21  N   UNL     1      21.712  10.852   2.397  0.00  0.00    -0.191 NA
ENDBRANCH  18  20
ENDBRANCH  13  14
ENDBRANCH  11  13
ENDBRANCH   7   9
ENDBRANCH   6   7
ENDBRANCH   5   6
ENDBRANCH   1   5
BRANCH   2  22
ATOM     22  C   UNL     1      28.698  14.485   0.546  0.00  0.00    +0.152 C 
BRANCH  22  23
ATOM     23  C   UNL     1      29.912  13.721   1.113  0.00  0.00    +0.193 C 
ATOM     24  O   UNL     1      30.156  12.609   0.223  0.00  0.00    -0.219 OA
BRANCH  23  25
ATOM     25  C   UNL     1      31.262  14.469   1.174  0.00  0.00    +0.212 C 
ATOM     26  O   UNL     1      31.147  15.645   1.991  0.00  0.00    -0.218 OA
BRANCH  25  27
ATOM     27  C   UNL     1      32.442  13.583   1.730  0.00  0.00    +0.171 C 
ATOM     28  O   UNL     1      32.845  13.967   3.040  0.00  0.00    -0.343 OA
ATOM     29  C   UNL     1      34.011  13.521   3.668  0.00  0.00    +0.220 C 
ATOM     30  C   UNL     1      35.247  13.699   2.770  0.00  0.00    +0.076 C 
ATOM     31  C   UNL     1      34.940  13.026   1.422  0.00  0.00    +0.177 C 
ATOM     32  O   UNL     1      36.069  13.127   0.565  0.00  0.00    -0.221 OA
ATOM     33  C   UNL     1      33.677  13.672   0.774  0.00  0.00    +0.155 C 
BRANCH  33  34
ATOM     34  N   UNL     1      33.386  13.040  -0.511  0.00  0.00    -0.202 NA
ATOM     35  C   UNL     1      33.261  13.596  -1.743  0.00  0.00    +0.242 C 
ATOM     36  C   UNL     1      33.252  12.684  -2.942  0.00  0.00    +0.096 C 
ATOM     37  O   UNL     1      33.160  14.817  -1.851  0.00  0.00    -0.273 OA
ENDBRANCH  33  34
BRANCH  29  38
ATOM     38  C   UNL     1      33.899  12.003   4.236  0.00  0.00    +0.391 C 
ATOM     39  O   UNL     1      34.812  11.934   5.225  0.00  0.00    -0.243 OA
ATOM     40  O   UNL     1      32.766  11.501   3.730  0.00  0.00    -0.243 OA
ENDBRANCH  29  38
ENDBRANCH  25  27
ENDBRANCH  23  25
ENDBRANCH  22  23
ENDBRANCH   2  22
TORSDOF 13
