REMARK VINA RESULT:    -6.292      1.636      2.013
REMARK INTER + INTRA:         -16.559
REMARK INTER:                 -14.077
REMARK INTRA:                  -2.481
REMARK UNBOUND:                -2.358
REMARK  Name = lig_assembled_30.pdb
REMARK  22 active torsions:
REMARK  status: ('A' for Active; 'I' for Inactive)
REMARK    1  A    between atoms: _2  and  _8
REMARK    2  A    between atoms: _4  and  _17
REMARK    3  A    between atoms: _4  and  _18
REMARK    4  A    between atoms: _5  and  _6
REMARK    5  A    between atoms: _5  and  _20
REMARK    6  A    between atoms: _8  and  _9
REMARK    7  A    between atoms: _9  and  _10
REMARK    8  A    between atoms: _10  and  _11
REMARK    9  A    between atoms: _11  and  _12
REMARK   10  A    between atoms: _12  and  _13
REMARK   11  A    between atoms: _13  and  _14
REMARK   12  A    between atoms: _14  and  _15
REMARK   13  A    between atoms: _15  and  _16
REMARK   14  A    between atoms: _16  and  _17
REMARK   15  A    between atoms: _20  and  _22
REMARK   16  A    between atoms: _21  and  _26
REMARK   17  A    between atoms: _22  and  _25
REMARK   18  A    between atoms: _30  and  _40
REMARK   19  A    between atoms: _32  and  _33
REMARK   20  A    between atoms: _34  and  _36
REMARK   21  A    between atoms: _36  and  _38
REMARK   22  A    between atoms: _38  and  _40
REMARK                            x       y       z     vdW  Elec       q    Type
REMARK                         _______ _______ _______ _____ _____    ______ ____
ROOT
ATOM      1  C   UNL     1      28.331  17.452  -0.499  0.00  0.00    +0.400 C 
ATOM      2  N   UNL     1      29.586  17.234   0.019  0.00  0.00    -0.278 N 
ATOM      3  H   UNL     1      29.611  17.867   0.880  0.00  0.00    +0.152 HD
ATOM      4  O   UNL     1      27.533  18.103   0.170  0.00  0.00    -0.226 OA
ENDROOT
BRANCH   1   5
ATOM      5  O   UNL     1      28.121  16.967  -1.679  0.00  0.00    -0.450 OA
BRANCH   5   6
ATOM      6  C   UNL     1      27.056  16.775  -2.581  0.00  0.00    +0.240 C 
BRANCH   6   7
ATOM      7  C   UNL     1      26.781  15.337  -3.059  0.00  0.00    +0.100 C 
BRANCH   7   9
ATOM      8  N   UNL     1      24.971  14.599  -4.579  0.00  0.00    -0.134 NA
ATOM      9  C   UNL     1      25.355  15.174  -3.395  0.00  0.00    +0.086 A 
ATOM     10  C   UNL     1      24.231  15.527  -2.680  0.00  0.00    +0.133 A 
ATOM     11  N   UNL     1      23.201  15.139  -3.481  0.00  0.00    -0.251 N 
ATOM     12  N   UNL     1      23.645  14.585  -4.621  0.00  0.00    -0.065 NA
BRANCH  11  13
ATOM     13  C   UNL     1      21.783  15.304  -3.248  0.00  0.00    +0.145 C 
BRANCH  13  14
ATOM     14  C   UNL     1      21.003  14.076  -3.702  0.00  0.00    +0.023 C 
BRANCH  14  15
ATOM     15  C   UNL     1      20.358  13.343  -2.527  0.00  0.00    +0.002 C 
BRANCH  15  16
ATOM     16  C   UNL     1      20.856  13.927  -1.204  0.00  0.00    +0.000 C 
BRANCH  16  17
ATOM     17  C   UNL     1      20.618  12.973  -0.038  0.00  0.00    +0.000 C 
BRANCH  17  18
ATOM     18  C   UNL     1      21.484  11.719  -0.178  0.00  0.00    +0.000 C 
BRANCH  18  19
ATOM     19  C   UNL     1      22.905  11.982   0.310  0.00  0.00    +0.000 C 
BRANCH  19  20
ATOM     20  C   UNL     1      23.928  11.802  -0.813  0.00  0.00    +0.001 C 
BRANCH  20  21
ATOM     21  C   UNL     1      25.172  12.647  -0.541  0.00  0.00    +0.011 C 
BRANCH  21  22
ATOM     22  C   UNL     1      26.021  12.065   0.586  0.00  0.00    +0.120 C 
BRANCH  22  23
ATOM     23  C   UNL     1      27.405  12.674   0.606  0.00  0.00    +0.305 C 
ATOM     24  O   UNL     1      28.428  12.098   0.939  0.00  0.00    -0.251 OA
BRANCH  23  25
ATOM     25  O   UNL     1      27.404  13.966   0.206  0.00  0.00    -0.481 OA
ATOM     26  H   UNL     1      28.207  14.225  -0.285  0.00  0.00    +0.295 HD
ENDBRANCH  23  25
ENDBRANCH  22  23
ENDBRANCH  21  22
ENDBRANCH  20  21
ENDBRANCH  19  20
ENDBRANCH  18  19
ENDBRANCH  17  18
ENDBRANCH  16  17
ENDBRANCH  15  16
ENDBRANCH  14  15
ENDBRANCH  13  14
ENDBRANCH  11  13
ENDBRANCH   7   9
ENDBRANCH   6   7
ENDBRANCH   5   6
ENDBRANCH   1   5
BRANCH   2  27
ATOM     27  C   UNL     1      30.864  16.533  -0.069  0.00  0.00    +0.152 C 
BRANCH  27  28
ATOM     28  C   UNL     1      30.800  14.993  -0.002  0.00  0.00    +0.193 C 
ATOM     29  O   UNL     1      29.869  14.572  -1.024  0.00  0.00    -0.219 OA
BRANCH  28  30
ATOM     30  C   UNL     1      32.094  14.209  -0.313  0.00  0.00    +0.212 C 
ATOM     31  O   UNL     1      33.039  15.050  -0.993  0.00  0.00    -0.218 OA
BRANCH  30  32
ATOM     32  C   UNL     1      32.785  13.610   0.971  0.00  0.00    +0.171 C 
ATOM     33  O   UNL     1      32.703  14.483   2.094  0.00  0.00    -0.343 OA
ATOM     34  C   UNL     1      33.430  14.317   3.275  0.00  0.00    +0.220 C 
ATOM     35  C   UNL     1      34.930  14.114   2.998  0.00  0.00    +0.076 C 
ATOM     36  C   UNL     1      35.062  12.960   1.990  0.00  0.00    +0.177 C 
ATOM     37  O   UNL     1      36.434  12.704   1.729  0.00  0.00    -0.221 OA
ATOM     38  C   UNL     1      34.289  13.303   0.678  0.00  0.00    +0.155 C 
BRANCH  38  39
ATOM     39  N   UNL     1      34.418  12.213  -0.286  0.00  0.00    -0.202 NA
ATOM     40  C   UNL     1      35.138  12.150  -1.435  0.00  0.00    +0.242 C 
ATOM     41  C   UNL     1      35.330  10.806  -2.087  0.00  0.00    +0.096 C 
ATOM     42  O   UNL     1      35.614  13.180  -1.910  0.00  0.00    -0.273 OA
ENDBRANCH  38  39
BRANCH  34  43
ATOM     43  C   UNL     1      32.838  13.152   4.241  0.00  0.00    +0.391 C 
ATOM     44  O   UNL     1      31.653  12.817   3.696  0.00  0.00    -0.243 OA
ATOM     45  O   UNL     1      33.857  12.761   5.016  0.00  0.00    -0.243 OA
ENDBRANCH  34  43
ENDBRANCH  30  32
ENDBRANCH  28  30
ENDBRANCH  27  28
ENDBRANCH   2  27
TORSDOF 22
