REMARK VINA RESULT:    -6.703      3.043      6.227
REMARK INTER + INTRA:         -13.181
REMARK INTER:                 -11.060
REMARK INTRA:                  -2.121
REMARK UNBOUND:                -2.168
REMARK  Name = lig_assembled_86.pdb
REMARK  12 active torsions:
REMARK  status: ('A' for Active; 'I' for Inactive)
REMARK    1  A    between atoms: _2  and  _9
REMARK    2  A    between atoms: _3  and  _12
REMARK    3  A    between atoms: _6  and  _7
REMARK    4  A    between atoms: _6  and  _16
REMARK    5  A    between atoms: _16  and  _18
REMARK    6  A    between atoms: _17  and  _22
REMARK    7  A    between atoms: _18  and  _21
REMARK    8  A    between atoms: _26  and  _36
REMARK    9  A    between atoms: _28  and  _29
REMARK   10  A    between atoms: _30  and  _32
REMARK   11  A    between atoms: _32  and  _34
REMARK   12  A    between atoms: _34  and  _36
REMARK                            x       y       z     vdW  Elec       q    Type
REMARK                         _______ _______ _______ _____ _____    ______ ____
ROOT
ATOM      1  C   UNL     1      30.783  12.632   0.360  0.00  0.00    +0.400 C 
ATOM      2  N   UNL     1      29.855  12.750   1.367  0.00  0.00    -0.278 N 
ATOM      3  H   UNL     1      29.186  11.937   1.182  0.00  0.00    +0.152 HD
ATOM      4  O   UNL     1      30.757  11.621  -0.338  0.00  0.00    -0.226 OA
ENDROOT
BRANCH   1   5
ATOM      5  O   UNL     1      31.590  13.633   0.223  0.00  0.00    -0.450 OA
BRANCH   5   6
ATOM      6  C   UNL     1      31.620  14.907  -0.376  0.00  0.00    +0.240 C 
BRANCH   6   7
ATOM      7  C   UNL     1      30.809  16.029   0.299  0.00  0.00    +0.100 C 
BRANCH   7   9
ATOM      8  N   UNL     1      29.327  17.554  -0.977  0.00  0.00    -0.134 NA
ATOM      9  C   UNL     1      29.583  16.306  -0.472  0.00  0.00    +0.086 A 
ATOM     10  C   UNL     1      28.555  15.463  -0.823  0.00  0.00    +0.134 A 
ATOM     11  N   UNL     1      27.726  16.246  -1.569  0.00  0.00    -0.248 N 
ATOM     12  N   UNL     1      28.176  17.510  -1.635  0.00  0.00    -0.065 NA
BRANCH  11  13
ATOM     13  C   UNL     1      26.503  15.841  -2.246  0.00  0.00    +0.112 C 
ATOM     14  C   UNL     1      26.246  16.677  -3.516  0.00  0.00    +0.045 C 
ATOM     15  C   UNL     1      25.850  15.861  -4.750  0.00  0.00    +0.059 C 
ATOM     16  C   UNL     1      27.069  15.165  -5.366  0.00  0.00    +0.020 C 
ATOM     17  C   UNL     1      27.076  13.774  -4.736  0.00  0.00    +0.020 C 
ATOM     18  C   UNL     1      25.913  13.797  -3.743  0.00  0.00    +0.059 C 
ATOM     19  N   UNL     1      25.000  14.716  -4.422  0.00  0.00    -0.299 NA
ATOM     20  C   UNL     1      23.750  15.003  -3.746  0.00  0.00    +0.105 C 
ATOM     21  C   UNL     1      26.364  14.305  -2.367  0.00  0.00    +0.045 C 
ENDBRANCH  11  13
ENDBRANCH   7   9
ENDBRANCH   6   7
ENDBRANCH   5   6
ENDBRANCH   1   5
BRANCH   2  22
ATOM     22  C   UNL     1      29.392  13.461   2.555  0.00  0.00    +0.152 C 
BRANCH  22  23
ATOM     23  C   UNL     1      28.811  12.587   3.687  0.00  0.00    +0.193 C 
ATOM     24  O   UNL     1      27.967  11.599   3.056  0.00  0.00    -0.219 OA
BRANCH  23  25
ATOM     25  C   UNL     1      29.804  11.762   4.535  0.00  0.00    +0.212 C 
ATOM     26  O   UNL     1      30.057  10.491   3.915  0.00  0.00    -0.218 OA
BRANCH  25  27
ATOM     27  C   UNL     1      31.182  12.492   4.768  0.00  0.00    +0.171 C 
ATOM     28  O   UNL     1      32.088  12.309   3.686  0.00  0.00    -0.343 OA
ATOM     29  C   UNL     1      33.446  12.634   3.732  0.00  0.00    +0.220 C 
ATOM     30  C   UNL     1      34.134  12.038   4.973  0.00  0.00    +0.076 C 
ATOM     31  C   UNL     1      33.322  12.472   6.205  0.00  0.00    +0.177 C 
ATOM     32  O   UNL     1      33.939  11.979   7.386  0.00  0.00    -0.221 OA
ATOM     33  C   UNL     1      31.850  11.970   6.082  0.00  0.00    +0.155 C 
BRANCH  33  34
ATOM     34  N   UNL     1      31.077  12.374   7.254  0.00  0.00    -0.202 NA
ATOM     35  C   UNL     1      30.472  11.611   8.200  0.00  0.00    +0.242 C 
ATOM     36  C   UNL     1      29.993  12.281   9.461  0.00  0.00    +0.096 C 
ATOM     37  O   UNL     1      30.331  10.404   8.008  0.00  0.00    -0.273 OA
ENDBRANCH  33  34
BRANCH  29  38
ATOM     38  C   UNL     1      33.735  14.227   3.597  0.00  0.00    +0.391 C 
ATOM     39  O   UNL     1      35.067  14.354   3.758  0.00  0.00    -0.243 OA
ATOM     40  O   UNL     1      32.619  14.764   3.088  0.00  0.00    -0.243 OA
ENDBRANCH  29  38
ENDBRANCH  25  27
ENDBRANCH  23  25
ENDBRANCH  22  23
ENDBRANCH   2  22
TORSDOF 11
