REMARK VINA RESULT:    -5.712      1.683      2.183
REMARK INTER + INTRA:         -12.922
REMARK INTER:                 -11.400
REMARK INTRA:                  -1.522
REMARK UNBOUND:                -3.035
REMARK  Name = lig_assembled_22.pdb
REMARK  15 active torsions:
REMARK  status: ('A' for Active; 'I' for Inactive)
REMARK    1  A    between atoms: _2  and  _8
REMARK    2  A    between atoms: _4  and  _8
REMARK    3  A    between atoms: _4  and  _11
REMARK    4  A    between atoms: _5  and  _6
REMARK    5  A    between atoms: _5  and  _13
REMARK    6  A    between atoms: _8  and  _9
REMARK    7  A    between atoms: _8  and  _10
REMARK    8  A    between atoms: _13  and  _15
REMARK    9  A    between atoms: _14  and  _19
REMARK   10  A    between atoms: _15  and  _18
REMARK   11  A    between atoms: _23  and  _33
REMARK   12  A    between atoms: _25  and  _26
REMARK   13  A    between atoms: _27  and  _29
REMARK   14  A    between atoms: _29  and  _31
REMARK   15  A    between atoms: _31  and  _33
REMARK                            x       y       z     vdW  Elec       q    Type
REMARK                         _______ _______ _______ _____ _____    ______ ____
ROOT
ATOM      1  C   UNL     1      28.801  17.054  -0.521  0.00  0.00    +0.400 C 
ATOM      2  N   UNL     1      28.864  15.912   0.242  0.00  0.00    -0.278 N 
ATOM      3  H   UNL     1      29.549  16.171   1.020  0.00  0.00    +0.152 HD
ATOM      4  O   UNL     1      29.332  18.072  -0.084  0.00  0.00    -0.226 OA
ENDROOT
BRANCH   1   5
ATOM      5  O   UNL     1      28.202  16.934  -1.660  0.00  0.00    -0.450 OA
BRANCH   5   6
ATOM      6  C   UNL     1      27.082  17.454  -2.338  0.00  0.00    +0.240 C 
BRANCH   6   7
ATOM      7  C   UNL     1      26.938  17.117  -3.835  0.00  0.00    +0.100 C 
BRANCH   7   9
ATOM      8  N   UNL     1      25.693  15.511  -5.238  0.00  0.00    -0.134 NA
ATOM      9  C   UNL     1      25.846  16.148  -4.038  0.00  0.00    +0.086 A 
ATOM     10  C   UNL     1      24.859  15.722  -3.175  0.00  0.00    +0.135 A 
ATOM     11  N   UNL     1      24.135  14.825  -3.908  0.00  0.00    -0.235 N 
ATOM     12  N   UNL     1      24.645  14.709  -5.149  0.00  0.00    -0.064 NA
BRANCH  11  13
ATOM     13  C   UNL     1      22.948  14.056  -3.528  0.00  0.00    +0.155 C 
ATOM     14  C   UNL     1      23.274  12.954  -2.497  0.00  0.00    +0.048 C 
ATOM     15  C   UNL     1      22.368  13.387  -4.789  0.00  0.00    +0.048 C 
BRANCH  13  16
ATOM     16  C   UNL     1      21.896  14.977  -2.904  0.00  0.00    +0.332 C 
ATOM     17  O   UNL     1      21.359  15.906  -3.494  0.00  0.00    -0.248 OA
BRANCH  16  18
ATOM     18  O   UNL     1      21.574  14.701  -1.617  0.00  0.00    -0.479 OA
ATOM     19  H   UNL     1      21.880  15.342  -0.945  0.00  0.00    +0.295 HD
ENDBRANCH  16  18
ENDBRANCH  13  16
ENDBRANCH  11  13
ENDBRANCH   7   9
ENDBRANCH   6   7
ENDBRANCH   5   6
ENDBRANCH   1   5
BRANCH   2  20
ATOM     20  C   UNL     1      28.415  14.541   0.468  0.00  0.00    +0.152 C 
BRANCH  20  21
ATOM     21  C   UNL     1      28.965  13.845   1.730  0.00  0.00    +0.193 C 
ATOM     22  O   UNL     1      27.900  13.852   2.706  0.00  0.00    -0.219 OA
BRANCH  21  23
ATOM     23  C   UNL     1      29.367  12.358   1.609  0.00  0.00    +0.212 C 
ATOM     24  O   UNL     1      29.308  11.932   0.238  0.00  0.00    -0.218 OA
BRANCH  23  25
ATOM     25  C   UNL     1      30.809  12.054   2.169  0.00  0.00    +0.171 C 
ATOM     26  O   UNL     1      30.857  12.062   3.592  0.00  0.00    -0.343 OA
ATOM     27  C   UNL     1      32.036  12.065   4.341  0.00  0.00    +0.220 C 
ATOM     28  C   UNL     1      33.006  13.164   3.873  0.00  0.00    +0.076 C 
ATOM     29  C   UNL     1      33.202  12.994   2.358  0.00  0.00    +0.177 C 
ATOM     30  O   UNL     1      34.124  13.964   1.880  0.00  0.00    -0.221 OA
ATOM     31  C   UNL     1      31.830  13.105   1.623  0.00  0.00    +0.155 C 
BRANCH  31  32
ATOM     32  N   UNL     1      32.013  12.951   0.182  0.00  0.00    -0.202 NA
ATOM     33  C   UNL     1      32.073  13.895  -0.791  0.00  0.00    +0.242 C 
ATOM     34  C   UNL     1      32.564  13.486  -2.156  0.00  0.00    +0.096 C 
ATOM     35  O   UNL     1      31.732  15.049  -0.540  0.00  0.00    -0.273 OA
ENDBRANCH  31  32
BRANCH  27  36
ATOM     36  C   UNL     1      32.765  10.614   4.407  0.00  0.00    +0.391 C 
ATOM     37  O   UNL     1      34.030  10.878   4.789  0.00  0.00    -0.243 OA
ATOM     38  O   UNL     1      31.784   9.705   4.356  0.00  0.00    -0.243 OA
ENDBRANCH  27  36
ENDBRANCH  23  25
ENDBRANCH  21  23
ENDBRANCH  20  21
ENDBRANCH   2  20
TORSDOF 13
