REMARK VINA RESULT:    -7.416      1.996      3.289
REMARK INTER + INTRA:         -13.853
REMARK INTER:                 -11.723
REMARK INTRA:                  -2.130
REMARK UNBOUND:                -1.669
REMARK  Name = lig_assembled_70.pdb
REMARK  11 active torsions:
REMARK  status: ('A' for Active; 'I' for Inactive)
REMARK    1  A    between atoms: _2  and  _9
REMARK    2  A    between atoms: _6  and  _7
REMARK    3  A    between atoms: _6  and  _17
REMARK    4  A    between atoms: _17  and  _19
REMARK    5  A    between atoms: _18  and  _23
REMARK    6  A    between atoms: _19  and  _22
REMARK    7  A    between atoms: _27  and  _37
REMARK    8  A    between atoms: _29  and  _30
REMARK    9  A    between atoms: _31  and  _33
REMARK   10  A    between atoms: _33  and  _35
REMARK   11  A    between atoms: _35  and  _37
REMARK                            x       y       z     vdW  Elec       q    Type
REMARK                         _______ _______ _______ _____ _____    ______ ____
ROOT
ATOM      1  C   UNL     1      28.279  17.654  -0.626  0.00  0.00    +0.400 C 
ATOM      2  N   UNL     1      29.492  17.353  -0.051  0.00  0.00    -0.278 N 
ATOM      3  H   UNL     1      29.488  17.928   0.850  0.00  0.00    +0.152 HD
ATOM      4  O   UNL     1      27.466  18.293   0.038  0.00  0.00    -0.226 OA
ENDROOT
BRANCH   1   5
ATOM      5  O   UNL     1      28.123  17.255  -1.845  0.00  0.00    -0.450 OA
BRANCH   5   6
ATOM      6  C   UNL     1      27.083  17.008  -2.763  0.00  0.00    +0.240 C 
BRANCH   6   7
ATOM      7  C   UNL     1      26.999  15.598  -3.379  0.00  0.00    +0.100 C 
BRANCH   7   9
ATOM      8  N   UNL     1      27.714  14.004  -1.621  0.00  0.00    -0.134 NA
ATOM      9  C   UNL     1      26.713  14.596  -2.336  0.00  0.00    +0.086 A 
ATOM     10  C   UNL     1      25.504  14.101  -1.907  0.00  0.00    +0.140 A 
ATOM     11  N   UNL     1      25.817  13.207  -0.909  0.00  0.00    -0.218 N 
ATOM     12  N   UNL     1      27.161  13.156  -0.761  0.00  0.00    -0.060 NA
BRANCH  11  13
ATOM     13  C   UNL     1      24.940  12.450  -0.106  0.00  0.00    +0.086 A 
ATOM     14  C   UNL     1      23.601  12.334  -0.444  0.00  0.00    +0.139 A 
ATOM     15  N   UNL     1      22.711  11.585   0.257  0.00  0.00    -0.253 NA
ATOM     16  C   UNL     1      23.155  10.911   1.334  0.00  0.00    +0.071 A 
ATOM     17  C   UNL     1      24.497  10.982   1.762  0.00  0.00    +0.002 A 
ATOM     18  C   UNL     1      24.922  10.263   2.893  0.00  0.00    +0.010 A 
ATOM     19  C   UNL     1      24.029   9.456   3.590  0.00  0.00    +0.001 A 
ATOM     20  C   UNL     1      22.708   9.374   3.168  0.00  0.00    +0.002 A 
ATOM     21  C   UNL     1      22.283  10.105   2.054  0.00  0.00    +0.028 A 
ATOM     22  C   UNL     1      25.388  11.773   1.028  0.00  0.00    +0.039 A 
ENDBRANCH  11  13
ENDBRANCH   7   9
ENDBRANCH   6   7
ENDBRANCH   5   6
ENDBRANCH   1   5
BRANCH   2  23
ATOM     23  C   UNL     1      30.746  16.607  -0.111  0.00  0.00    +0.152 C 
BRANCH  23  24
ATOM     24  C   UNL     1      30.679  15.129   0.324  0.00  0.00    +0.193 C 
ATOM     25  O   UNL     1      31.113  14.343  -0.808  0.00  0.00    -0.219 OA
BRANCH  24  26
ATOM     26  C   UNL     1      31.599  14.681   1.481  0.00  0.00    +0.212 C 
ATOM     27  O   UNL     1      31.645  15.689   2.504  0.00  0.00    -0.218 OA
BRANCH  26  28
ATOM     28  C   UNL     1      31.159  13.317   2.137  0.00  0.00    +0.171 C 
ATOM     29  O   UNL     1      29.757  13.252   2.377  0.00  0.00    -0.343 OA
ATOM     30  C   UNL     1      29.136  12.276   3.160  0.00  0.00    +0.220 C 
ATOM     31  C   UNL     1      29.814  12.129   4.533  0.00  0.00    +0.076 C 
ATOM     32  C   UNL     1      31.315  11.903   4.287  0.00  0.00    +0.177 C 
ATOM     33  O   UNL     1      31.985  11.722   5.526  0.00  0.00    -0.221 OA
ATOM     34  C   UNL     1      31.915  13.103   3.489  0.00  0.00    +0.155 C 
BRANCH  34  35
ATOM     35  N   UNL     1      33.342  12.895   3.258  0.00  0.00    -0.202 NA
ATOM     36  C   UNL     1      34.410  13.538   3.795  0.00  0.00    +0.242 C 
ATOM     37  C   UNL     1      35.777  12.931   3.612  0.00  0.00    +0.096 C 
ATOM     38  O   UNL     1      34.240  14.588   4.412  0.00  0.00    -0.273 OA
ENDBRANCH  34  35
BRANCH  30  39
ATOM     39  C   UNL     1      28.990  10.842   2.410  0.00  0.00    +0.391 C 
ATOM     40  O   UNL     1      28.554   9.995   3.363  0.00  0.00    -0.243 OA
ATOM     41  O   UNL     1      29.063  11.101   1.099  0.00  0.00    -0.243 OA
ENDBRANCH  30  39
ENDBRANCH  26  28
ENDBRANCH  24  26
ENDBRANCH  23  24
ENDBRANCH   2  23
TORSDOF 11
