REMARK VINA RESULT:    -6.306      3.347      9.555
REMARK INTER + INTRA:         -12.610
REMARK INTER:                 -10.351
REMARK INTRA:                  -2.260
REMARK UNBOUND:                -1.696
REMARK  Name = lig_assembled_72.pdb
REMARK  15 active torsions:
REMARK  status: ('A' for Active; 'I' for Inactive)
REMARK    1  A    between atoms: _2  and  _8
REMARK    2  A    between atoms: _4  and  _8
REMARK    3  A    between atoms: _4  and  _11
REMARK    4  A    between atoms: _5  and  _6
REMARK    5  A    between atoms: _5  and  _12
REMARK    6  A    between atoms: _8  and  _9
REMARK    7  A    between atoms: _8  and  _10
REMARK    8  A    between atoms: _12  and  _14
REMARK    9  A    between atoms: _13  and  _18
REMARK   10  A    between atoms: _14  and  _17
REMARK   11  A    between atoms: _22  and  _32
REMARK   12  A    between atoms: _24  and  _25
REMARK   13  A    between atoms: _26  and  _28
REMARK   14  A    between atoms: _28  and  _30
REMARK   15  A    between atoms: _30  and  _32
REMARK                            x       y       z     vdW  Elec       q    Type
REMARK                         _______ _______ _______ _____ _____    ______ ____
ROOT
ATOM      1  C   UNL     1      26.403  16.399  -4.196  0.00  0.00    +0.152 C 
ENDROOT
BRANCH   1   3
ATOM      2  C   UNL     1      27.501  17.449  -1.929  0.00  0.00    +0.400 C 
ATOM      3  N   UNL     1      26.704  17.219  -3.025  0.00  0.00    -0.278 N 
ATOM      4  H   UNL     1      25.999  18.023  -2.991  0.00  0.00    +0.152 HD
ATOM      5  O   UNL     1      27.369  18.512  -1.329  0.00  0.00    -0.226 OA
BRANCH   2   6
ATOM      6  O   UNL     1      28.308  16.489  -1.613  0.00  0.00    -0.450 OA
BRANCH   6   7
ATOM      7  C   UNL     1      28.277  15.234  -0.976  0.00  0.00    +0.240 C 
BRANCH   7   8
ATOM      8  C   UNL     1      29.211  15.025   0.231  0.00  0.00    +0.100 C 
BRANCH   8  10
ATOM      9  N   UNL     1      31.387  15.903  -0.551  0.00  0.00    -0.134 NA
ATOM     10  C   UNL     1      30.600  14.833  -0.223  0.00  0.00    +0.086 A 
ATOM     11  C   UNL     1      31.324  13.673  -0.396  0.00  0.00    +0.134 A 
ATOM     12  N   UNL     1      32.548  14.101  -0.831  0.00  0.00    -0.244 N 
ATOM     13  N   UNL     1      32.574  15.447  -0.921  0.00  0.00    -0.065 NA
BRANCH  12  14
ATOM     14  C   UNL     1      33.727  13.292  -1.170  0.00  0.00    +0.083 C 
ATOM     15  C   UNL     1      33.547  11.871  -0.604  0.00  0.00    +0.038 C 
ATOM     16  C   UNL     1      34.988  13.932  -0.556  0.00  0.00    +0.038 C 
BRANCH  14  17
ATOM     17  C   UNL     1      33.916  13.169  -2.707  0.00  0.00    +0.185 C 
BRANCH  17  18
ATOM     18  O   UNL     1      33.120  14.103  -3.436  0.00  0.00    -0.393 OA
ATOM     19  H   UNL     1      32.275  14.176  -2.944  0.00  0.00    +0.209 HD
ENDBRANCH  17  18
ENDBRANCH  14  17
ENDBRANCH  12  14
ENDBRANCH   8  10
ENDBRANCH   7   8
ENDBRANCH   6   7
ENDBRANCH   2   6
ENDBRANCH   1   3
BRANCH   1  20
ATOM     20  C   UNL     1      25.688  15.060  -3.922  0.00  0.00    +0.193 C 
ATOM     21  O   UNL     1      26.715  14.046  -3.854  0.00  0.00    -0.219 OA
BRANCH  20  22
ATOM     22  C   UNL     1      24.920  14.920  -2.589  0.00  0.00    +0.212 C 
ATOM     23  O   UNL     1      24.074  16.061  -2.374  0.00  0.00    -0.218 OA
BRANCH  22  24
ATOM     24  C   UNL     1      24.036  13.617  -2.512  0.00  0.00    +0.171 C 
ATOM     25  O   UNL     1      22.641  13.896  -2.576  0.00  0.00    -0.343 OA
ATOM     26  C   UNL     1      21.637  12.968  -2.289  0.00  0.00    +0.220 C 
ATOM     27  C   UNL     1      21.873  12.272  -0.937  0.00  0.00    +0.076 C 
ATOM     28  C   UNL     1      23.300  11.698  -0.955  0.00  0.00    +0.177 C 
ATOM     29  O   UNL     1      23.556  11.008   0.259  0.00  0.00    -0.221 OA
ATOM     30  C   UNL     1      24.336  12.841  -1.188  0.00  0.00    +0.155 C 
BRANCH  30  31
ATOM     31  N   UNL     1      25.693  12.301  -1.198  0.00  0.00    -0.202 NA
ATOM     32  C   UNL     1      26.575  12.150  -0.178  0.00  0.00    +0.242 C 
ATOM     33  C   UNL     1      27.795  11.296  -0.407  0.00  0.00    +0.096 C 
ATOM     34  O   UNL     1      26.362  12.707   0.897  0.00  0.00    -0.273 OA
ENDBRANCH  30  31
BRANCH  26  35
ATOM     35  C   UNL     1      21.392  11.891  -3.480  0.00  0.00    +0.391 C 
ATOM     36  O   UNL     1      20.644  10.919  -2.922  0.00  0.00    -0.243 OA
ATOM     37  O   UNL     1      21.754  12.504  -4.614  0.00  0.00    -0.243 OA
ENDBRANCH  26  35
ENDBRANCH  22  24
ENDBRANCH  20  22
ENDBRANCH   1  20
TORSDOF 13
