REMARK VINA RESULT:    -6.857      1.731      2.386
REMARK INTER + INTRA:         -13.645
REMARK INTER:                 -12.047
REMARK INTRA:                  -1.598
REMARK UNBOUND:                -1.577
REMARK  Name = lig_assembled_66.pdb
REMARK  13 active torsions:
REMARK  status: ('A' for Active; 'I' for Inactive)
REMARK    1  A    between atoms: _2  and  _9
REMARK    2  A    between atoms: _6  and  _7
REMARK    3  A    between atoms: _6  and  _16
REMARK    4  A    between atoms: _9  and  _10
REMARK    5  A    between atoms: _14  and  _15
REMARK    6  A    between atoms: _16  and  _18
REMARK    7  A    between atoms: _17  and  _22
REMARK    8  A    between atoms: _18  and  _21
REMARK    9  A    between atoms: _26  and  _36
REMARK   10  A    between atoms: _28  and  _29
REMARK   11  A    between atoms: _30  and  _32
REMARK   12  A    between atoms: _32  and  _34
REMARK   13  A    between atoms: _34  and  _36
REMARK                            x       y       z     vdW  Elec       q    Type
REMARK                         _______ _______ _______ _____ _____    ______ ____
ROOT
ATOM      1  C   UNL     1      26.801  13.109  -0.876  0.00  0.00    +0.400 C 
ATOM      2  N   UNL     1      27.578  13.558   0.165  0.00  0.00    -0.278 N 
ATOM      3  H   UNL     1      27.379  12.853   0.944  0.00  0.00    +0.152 HD
ATOM      4  O   UNL     1      26.259  12.012  -0.764  0.00  0.00    -0.226 OA
ENDROOT
BRANCH   1   5
ATOM      5  O   UNL     1      26.689  13.916  -1.880  0.00  0.00    -0.450 OA
BRANCH   5   6
ATOM      6  C   UNL     1      25.879  14.100  -3.017  0.00  0.00    +0.240 C 
BRANCH   6   7
ATOM      7  C   UNL     1      25.040  15.390  -3.092  0.00  0.00    +0.100 C 
BRANCH   7   9
ATOM      8  N   UNL     1      22.676  15.167  -3.800  0.00  0.00    -0.134 NA
ATOM      9  C   UNL     1      23.621  15.096  -2.811  0.00  0.00    +0.086 A 
ATOM     10  C   UNL     1      23.019  14.690  -1.641  0.00  0.00    +0.134 A 
ATOM     11  N   UNL     1      21.718  14.475  -1.997  0.00  0.00    -0.247 N 
ATOM     12  N   UNL     1      21.512  14.781  -3.291  0.00  0.00    -0.065 NA
BRANCH  11  13
ATOM     13  C   UNL     1      20.707  13.753  -1.247  0.00  0.00    +0.180 C 
BRANCH  13  14
ATOM     14  C   UNL     1      21.084  12.322  -0.961  0.00  0.00    -0.025 A 
ATOM     15  C   UNL     1      21.151  11.385  -2.002  0.00  0.00    +0.005 A 
ATOM     16  C   UNL     1      21.580  10.078  -1.760  0.00  0.00    +0.002 A 
ATOM     17  C   UNL     1      21.929   9.685  -0.469  0.00  0.00    +0.019 A 
ATOM     18  C   UNL     1      21.834  10.596   0.588  0.00  0.00    +0.052 A 
ATOM     19  C   UNL     1      21.415  11.910   0.341  0.00  0.00    +0.024 A 
BRANCH  18  20
ATOM     20  C   UNL     1      22.177  10.189   1.919  0.00  0.00    +0.099 C 
ATOM     21  N   UNL     1      22.455   9.851   2.994  0.00  0.00    -0.191 NA
ENDBRANCH  18  20
ENDBRANCH  13  14
ENDBRANCH  11  13
ENDBRANCH   7   9
ENDBRANCH   6   7
ENDBRANCH   5   6
ENDBRANCH   1   5
BRANCH   2  22
ATOM     22  C   UNL     1      28.541  14.534   0.668  0.00  0.00    +0.152 C 
BRANCH  22  23
ATOM     23  C   UNL     1      29.570  15.061  -0.352  0.00  0.00    +0.193 C 
ATOM     24  O   UNL     1      29.035  16.293  -0.884  0.00  0.00    -0.219 OA
BRANCH  23  25
ATOM     25  C   UNL     1      30.970  15.446   0.177  0.00  0.00    +0.212 C 
ATOM     26  O   UNL     1      30.893  16.635   0.979  0.00  0.00    -0.218 OA
BRANCH  25  27
ATOM     27  C   UNL     1      31.650  14.307   1.028  0.00  0.00    +0.171 C 
ATOM     28  O   UNL     1      31.901  14.703   2.372  0.00  0.00    -0.343 OA
ATOM     29  C   UNL     1      32.703  13.991   3.267  0.00  0.00    +0.220 C 
ATOM     30  C   UNL     1      34.074  13.651   2.658  0.00  0.00    +0.076 C 
ATOM     31  C   UNL     1      33.822  12.948   1.314  0.00  0.00    +0.177 C 
ATOM     32  O   UNL     1      35.060  12.575   0.726  0.00  0.00    -0.221 OA
ATOM     33  C   UNL     1      33.001  13.877   0.367  0.00  0.00    +0.155 C 
BRANCH  33  34
ATOM     34  N   UNL     1      32.765  13.215  -0.914  0.00  0.00    -0.202 NA
ATOM     35  C   UNL     1      33.062  13.629  -2.172  0.00  0.00    +0.242 C 
ATOM     36  C   UNL     1      32.979  12.625  -3.293  0.00  0.00    +0.096 C 
ATOM     37  O   UNL     1      33.390  14.797  -2.366  0.00  0.00    -0.273 OA
ENDBRANCH  33  34
BRANCH  29  38
ATOM     38  C   UNL     1      31.978  12.672   3.878  0.00  0.00    +0.391 C 
ATOM     39  O   UNL     1      32.982  11.916   4.361  0.00  0.00    -0.243 OA
ATOM     40  O   UNL     1      30.673  12.965   3.944  0.00  0.00    -0.243 OA
ENDBRANCH  29  38
ENDBRANCH  25  27
ENDBRANCH  23  25
ENDBRANCH  22  23
ENDBRANCH   2  22
TORSDOF 13
