REMARK VINA RESULT:    -6.514      2.594     10.282
REMARK INTER + INTRA:         -13.558
REMARK INTER:                 -12.267
REMARK INTRA:                  -1.290
REMARK UNBOUND:                -2.094
REMARK  Name = lig_assembled_24.pdb
REMARK  14 active torsions:
REMARK  status: ('A' for Active; 'I' for Inactive)
REMARK    1  A    between atoms: _2  and  _8
REMARK    2  A    between atoms: _5  and  _6
REMARK    3  A    between atoms: _5  and  _16
REMARK    4  A    between atoms: _8  and  _9
REMARK    5  A    between atoms: _12  and  _15
REMARK    6  A    between atoms: _13  and  _15
REMARK    7  A    between atoms: _16  and  _18
REMARK    8  A    between atoms: _17  and  _22
REMARK    9  A    between atoms: _18  and  _21
REMARK   10  A    between atoms: _26  and  _36
REMARK   11  A    between atoms: _28  and  _29
REMARK   12  A    between atoms: _30  and  _32
REMARK   13  A    between atoms: _32  and  _34
REMARK   14  A    between atoms: _34  and  _36
REMARK                            x       y       z     vdW  Elec       q    Type
REMARK                         _______ _______ _______ _____ _____    ______ ____
ROOT
ATOM      1  C   UNL     1      27.915  17.838  -1.097  0.00  0.00    +0.400 C 
ATOM      2  N   UNL     1      27.151  17.641  -2.222  0.00  0.00    -0.278 N 
ATOM      3  H   UNL     1      26.185  17.991  -1.930  0.00  0.00    +0.152 HD
ATOM      4  O   UNL     1      27.427  18.480  -0.170  0.00  0.00    -0.226 OA
ENDROOT
BRANCH   1   5
ATOM      5  O   UNL     1      29.086  17.290  -1.112  0.00  0.00    -0.450 OA
BRANCH   5   6
ATOM      6  C   UNL     1      30.045  16.794  -0.207  0.00  0.00    +0.240 C 
BRANCH   6   7
ATOM      7  C   UNL     1      30.078  15.272   0.029  0.00  0.00    +0.100 C 
BRANCH   7   9
ATOM      8  N   UNL     1      32.347  15.112  -0.948  0.00  0.00    -0.134 NA
ATOM      9  C   UNL     1      31.470  14.786   0.052  0.00  0.00    +0.086 A 
ATOM     10  C   UNL     1      32.119  14.009   0.985  0.00  0.00    +0.134 A 
ATOM     11  N   UNL     1      33.406  13.954   0.536  0.00  0.00    -0.247 N 
ATOM     12  N   UNL     1      33.526  14.590  -0.648  0.00  0.00    -0.065 NA
BRANCH  11  13
ATOM     13  C   UNL     1      34.601  13.392   1.145  0.00  0.00    +0.180 C 
BRANCH  13  14
ATOM     14  C   UNL     1      34.449  13.004   2.596  0.00  0.00    -0.026 A 
ATOM     15  C   UNL     1      34.475  13.980   3.600  0.00  0.00    +0.009 A 
ATOM     16  C   UNL     1      34.331  13.612   4.940  0.00  0.00    +0.046 A 
ATOM     17  C   UNL     1      34.142  12.276   5.296  0.00  0.00    +0.120 A 
ATOM     18  C   UNL     1      34.140  11.298   4.305  0.00  0.00    +0.046 A 
ATOM     19  C   UNL     1      34.291  11.658   2.961  0.00  0.00    +0.009 A 
BRANCH  17  20
ATOM     20  O   UNL     1      34.034  12.036   6.638  0.00  0.00    -0.495 OA
ATOM     21  C   UNL     1      32.717  12.134   7.173  0.00  0.00    +0.277 C 
ENDBRANCH  17  20
ENDBRANCH  13  14
ENDBRANCH  11  13
ENDBRANCH   7   9
ENDBRANCH   6   7
ENDBRANCH   5   6
ENDBRANCH   1   5
BRANCH   2  22
ATOM     22  C   UNL     1      27.073  17.191  -3.610  0.00  0.00    +0.152 C 
BRANCH  22  23
ATOM     23  C   UNL     1      25.901  16.249  -3.954  0.00  0.00    +0.193 C 
ATOM     24  O   UNL     1      26.018  15.936  -5.359  0.00  0.00    -0.219 OA
BRANCH  23  25
ATOM     25  C   UNL     1      25.861  14.872  -3.254  0.00  0.00    +0.212 C 
ATOM     26  O   UNL     1      26.381  14.973  -1.918  0.00  0.00    -0.218 OA
BRANCH  25  27
ATOM     27  C   UNL     1      24.416  14.247  -3.187  0.00  0.00    +0.171 C 
ATOM     28  O   UNL     1      23.390  15.232  -3.252  0.00  0.00    -0.343 OA
ATOM     29  C   UNL     1      22.043  14.986  -2.973  0.00  0.00    +0.220 C 
ATOM     30  C   UNL     1      21.862  14.267  -1.625  0.00  0.00    +0.076 C 
ATOM     31  C   UNL     1      22.757  13.017  -1.644  0.00  0.00    +0.177 C 
ATOM     32  O   UNL     1      22.597  12.291  -0.433  0.00  0.00    -0.221 OA
ATOM     33  C   UNL     1      24.247  13.426  -1.867  0.00  0.00    +0.155 C 
BRANCH  33  34
ATOM     34  N   UNL     1      25.101  12.241  -1.879  0.00  0.00    -0.202 NA
ATOM     35  C   UNL     1      25.849  11.701  -0.883  0.00  0.00    +0.242 C 
ATOM     36  C   UNL     1      26.402  10.313  -1.077  0.00  0.00    +0.096 C 
ATOM     37  O   UNL     1      26.054  12.347   0.142  0.00  0.00    -0.273 OA
ENDBRANCH  33  34
BRANCH  29  38
ATOM     38  C   UNL     1      21.264  14.214  -4.171  0.00  0.00    +0.391 C 
ATOM     39  O   UNL     1      20.231  13.593  -3.570  0.00  0.00    -0.243 OA
ATOM     40  O   UNL     1      21.747  14.720  -5.313  0.00  0.00    -0.243 OA
ENDBRANCH  29  38
ENDBRANCH  25  27
ENDBRANCH  23  25
ENDBRANCH  22  23
ENDBRANCH   2  22
TORSDOF 13
