REMARK VINA RESULT:    -6.128      2.456      8.502
REMARK INTER + INTRA:         -13.714
REMARK INTER:                 -12.044
REMARK INTRA:                  -1.670
REMARK UNBOUND:                -1.675
REMARK  Name = lig_assembled_33.pdb
REMARK  17 active torsions:
REMARK  status: ('A' for Active; 'I' for Inactive)
REMARK    1  A    between atoms: _2  and  _8
REMARK    2  A    between atoms: _4  and  _12
REMARK    3  A    between atoms: _4  and  _13
REMARK    4  A    between atoms: _5  and  _6
REMARK    5  A    between atoms: _5  and  _15
REMARK    6  A    between atoms: _8  and  _9
REMARK    7  A    between atoms: _9  and  _10
REMARK    8  A    between atoms: _10  and  _11
REMARK    9  A    between atoms: _11  and  _12
REMARK   10  A    between atoms: _15  and  _17
REMARK   11  A    between atoms: _16  and  _21
REMARK   12  A    between atoms: _17  and  _20
REMARK   13  A    between atoms: _25  and  _35
REMARK   14  A    between atoms: _27  and  _28
REMARK   15  A    between atoms: _29  and  _31
REMARK   16  A    between atoms: _31  and  _33
REMARK   17  A    between atoms: _33  and  _35
REMARK                            x       y       z     vdW  Elec       q    Type
REMARK                         _______ _______ _______ _____ _____    ______ ____
ROOT
ATOM      1  C   UNL     1      27.854  17.545  -0.866  0.00  0.00    +0.400 C 
ATOM      2  N   UNL     1      26.898  17.055  -1.724  0.00  0.00    -0.278 N 
ATOM      3  H   UNL     1      25.998  17.520  -1.384  0.00  0.00    +0.152 HD
ATOM      4  O   UNL     1      27.537  18.456  -0.105  0.00  0.00    -0.226 OA
ENDROOT
BRANCH   1   5
ATOM      5  O   UNL     1      29.008  16.966  -0.924  0.00  0.00    -0.450 OA
BRANCH   5   6
ATOM      6  C   UNL     1      29.979  16.431  -0.055  0.00  0.00    +0.240 C 
BRANCH   6   7
ATOM      7  C   UNL     1      30.300  14.929  -0.187  0.00  0.00    +0.100 C 
BRANCH   7   9
ATOM      8  N   UNL     1      32.367  13.678   0.339  0.00  0.00    -0.134 NA
ATOM      9  C   UNL     1      31.391  14.554   0.732  0.00  0.00    +0.086 A 
ATOM     10  C   UNL     1      31.635  14.948   2.029  0.00  0.00    +0.133 A 
ATOM     11  N   UNL     1      32.775  14.283   2.363  0.00  0.00    -0.251 N 
ATOM     12  N   UNL     1      33.203  13.507   1.353  0.00  0.00    -0.065 NA
BRANCH  11  13
ATOM     13  C   UNL     1      33.503  14.323   3.615  0.00  0.00    +0.145 C 
BRANCH  13  14
ATOM     14  C   UNL     1      34.481  13.157   3.747  0.00  0.00    +0.023 C 
BRANCH  14  15
ATOM     15  C   UNL     1      34.132  12.224   4.909  0.00  0.00    +0.002 C 
BRANCH  15  16
ATOM     16  C   UNL     1      33.269  12.968   5.932  0.00  0.00    +0.011 C 
BRANCH  16  17
ATOM     17  C   UNL     1      32.053  12.161   6.379  0.00  0.00    +0.120 C 
BRANCH  17  18
ATOM     18  C   UNL     1      31.835  12.278   7.871  0.00  0.00    +0.305 C 
ATOM     19  O   UNL     1      32.623  11.918   8.731  0.00  0.00    -0.251 OA
BRANCH  18  20
ATOM     20  O   UNL     1      30.644  12.846   8.175  0.00  0.00    -0.481 OA
ATOM     21  H   UNL     1      30.230  13.316   7.429  0.00  0.00    +0.295 HD
ENDBRANCH  18  20
ENDBRANCH  17  18
ENDBRANCH  16  17
ENDBRANCH  15  16
ENDBRANCH  14  15
ENDBRANCH  13  14
ENDBRANCH  11  13
ENDBRANCH   7   9
ENDBRANCH   6   7
ENDBRANCH   5   6
ENDBRANCH   1   5
BRANCH   2  22
ATOM     22  C   UNL     1      26.571  16.215  -2.874  0.00  0.00    +0.152 C 
BRANCH  22  23
ATOM     23  C   UNL     1      25.476  15.152  -2.650  0.00  0.00    +0.193 C 
ATOM     24  O   UNL     1      24.701  15.092  -3.867  0.00  0.00    -0.219 OA
BRANCH  23  25
ATOM     25  C   UNL     1      25.932  13.696  -2.411  0.00  0.00    +0.212 C 
ATOM     26  O   UNL     1      27.314  13.537  -2.772  0.00  0.00    -0.218 OA
BRANCH  25  27
ATOM     27  C   UNL     1      25.742  13.219  -0.921  0.00  0.00    +0.171 C 
ATOM     28  O   UNL     1      26.816  12.403  -0.466  0.00  0.00    -0.343 OA
ATOM     29  C   UNL     1      26.792  11.653   0.713  0.00  0.00    +0.220 C 
ATOM     30  C   UNL     1      25.524  10.787   0.812  0.00  0.00    +0.076 C 
ATOM     31  C   UNL     1      24.314  11.714   0.610  0.00  0.00    +0.177 C 
ATOM     32  O   UNL     1      23.111  10.968   0.732  0.00  0.00    -0.221 OA
ATOM     33  C   UNL     1      24.405  12.420  -0.779  0.00  0.00    +0.155 C 
BRANCH  33  34
ATOM     34  N   UNL     1      23.253  13.297  -0.978  0.00  0.00    -0.202 NA
ATOM     35  C   UNL     1      22.244  13.211  -1.882  0.00  0.00    +0.242 C 
ATOM     36  C   UNL     1      21.028  14.077  -1.679  0.00  0.00    +0.096 C 
ATOM     37  O   UNL     1      22.343  12.438  -2.832  0.00  0.00    -0.273 OA
ENDBRANCH  33  34
BRANCH  29  38
ATOM     38  C   UNL     1      27.012  12.545   2.052  0.00  0.00    +0.391 C 
ATOM     39  O   UNL     1      26.504  11.801   3.053  0.00  0.00    -0.243 OA
ATOM     40  O   UNL     1      27.864  13.520   1.712  0.00  0.00    -0.243 OA
ENDBRANCH  29  38
ENDBRANCH  25  27
ENDBRANCH  23  25
ENDBRANCH  22  23
ENDBRANCH   2  22
TORSDOF 17
