REMARK VINA RESULT:    -6.710     23.201     26.087
REMARK INTER + INTRA:         -16.308
REMARK INTER:                 -12.968
REMARK INTRA:                  -3.340
REMARK UNBOUND:                -3.125
REMARK  Name = lig_assembled_47.pdb
REMARK  17 active torsions:
REMARK  status: ('A' for Active; 'I' for Inactive)
REMARK    1  A    between atoms: _2  and  _8
REMARK    2  A    between atoms: _5  and  _6
REMARK    3  A    between atoms: _5  and  _25
REMARK    4  A    between atoms: _8  and  _9
REMARK    5  A    between atoms: _9  and  _10
REMARK    6  A    between atoms: _9  and  _11
REMARK    7  A    between atoms: _10  and  _23
REMARK    8  A    between atoms: _11  and  _12
REMARK    9  A    between atoms: _11  and  _18
REMARK   10  A    between atoms: _25  and  _27
REMARK   11  A    between atoms: _26  and  _31
REMARK   12  A    between atoms: _27  and  _30
REMARK   13  A    between atoms: _35  and  _45
REMARK   14  A    between atoms: _37  and  _38
REMARK   15  A    between atoms: _39  and  _41
REMARK   16  A    between atoms: _41  and  _43
REMARK   17  A    between atoms: _43  and  _45
REMARK                            x       y       z     vdW  Elec       q    Type
REMARK                         _______ _______ _______ _____ _____    ______ ____
ROOT
ATOM      1  C   UNL     1      22.595  37.783   8.277  0.00  0.00    +0.100 C 
ENDROOT
BRANCH   1   3
ATOM      2  N   UNL     1      23.788  39.576   7.040  0.00  0.00    -0.134 NA
ATOM      3  C   UNL     1      23.830  38.470   7.850  0.00  0.00    +0.086 A 
ATOM      4  C   UNL     1      25.147  38.163   8.116  0.00  0.00    +0.133 A 
ATOM      5  N   UNL     1      25.853  39.087   7.403  0.00  0.00    -0.251 N 
ATOM      6  N   UNL     1      25.034  39.946   6.774  0.00  0.00    -0.065 NA
BRANCH   5   7
ATOM      7  C   UNL     1      27.286  39.120   7.151  0.00  0.00    +0.160 C 
BRANCH   7   8
ATOM      8  C   UNL     1      27.845  37.815   6.574  0.00  0.00    +0.131 C 
BRANCH   8   9
ATOM      9  C   UNL     1      28.330  38.110   5.162  0.00  0.00    +0.311 C 
ATOM     10  O   UNL     1      29.459  37.845   4.779  0.00  0.00    -0.251 OA
BRANCH   9  11
ATOM     11  O   UNL     1      27.416  38.589   4.292  0.00  0.00    -0.480 OA
ATOM     12  H   UNL     1      27.466  38.312   3.362  0.00  0.00    +0.295 HD
ENDBRANCH   9  11
ENDBRANCH   8   9
BRANCH   8  13
ATOM     13  C   UNL     1      28.952  37.140   7.443  0.00  0.00    +0.064 C 
BRANCH  13  14
ATOM     14  C   UNL     1      29.616  38.037   8.488  0.00  0.00    -0.039 A 
ATOM     15  C   UNL     1      30.867  38.625   8.211  0.00  0.00    +0.004 A 
ATOM     16  C   UNL     1      31.501  39.450   9.146  0.00  0.00    +0.000 A 
ATOM     17  C   UNL     1      30.908  39.692  10.381  0.00  0.00    +0.000 A 
ATOM     18  C   UNL     1      29.683  39.105  10.681  0.00  0.00    +0.000 A 
ATOM     19  C   UNL     1      29.038  38.293   9.740  0.00  0.00    +0.004 A 
ENDBRANCH  13  14
BRANCH  13  20
ATOM     20  C   UNL     1      28.432  35.820   8.030  0.00  0.00    -0.039 A 
ATOM     21  C   UNL     1      27.054  35.552   8.064  0.00  0.00    +0.004 A 
ATOM     22  C   UNL     1      26.565  34.435   8.749  0.00  0.00    +0.000 A 
ATOM     23  C   UNL     1      27.442  33.560   9.384  0.00  0.00    +0.000 A 
ATOM     24  C   UNL     1      28.812  33.790   9.326  0.00  0.00    +0.000 A 
ATOM     25  C   UNL     1      29.301  34.909   8.655  0.00  0.00    +0.004 A 
ENDBRANCH  13  20
ENDBRANCH   8  13
ENDBRANCH   7   8
ENDBRANCH   5   7
ENDBRANCH   1   3
BRANCH   1  26
ATOM     26  C   UNL     1      22.392  37.906   9.799  0.00  0.00    +0.240 C 
BRANCH  26  27
ATOM     27  O   UNL     1      23.000  36.932  10.616  0.00  0.00    -0.450 OA
BRANCH  27  28
ATOM     28  C   UNL     1      23.021  35.648  10.761  0.00  0.00    +0.400 C 
ATOM     29  N   UNL     1      24.025  35.155  11.561  0.00  0.00    -0.278 N 
ATOM     30  H   UNL     1      23.748  34.133  11.704  0.00  0.00    +0.152 HD
ATOM     31  O   UNL     1      22.221  34.851  10.278  0.00  0.00    -0.226 OA
BRANCH  29  32
ATOM     32  C   UNL     1      25.277  35.393  12.275  0.00  0.00    +0.152 C 
BRANCH  32  33
ATOM     33  C   UNL     1      25.921  34.162  12.945  0.00  0.00    +0.193 C 
ATOM     34  O   UNL     1      27.289  34.107  12.484  0.00  0.00    -0.219 OA
BRANCH  33  35
ATOM     35  C   UNL     1      26.034  34.162  14.485  0.00  0.00    +0.212 C 
ATOM     36  O   UNL     1      25.239  33.105  15.047  0.00  0.00    -0.218 OA
BRANCH  35  37
ATOM     37  C   UNL     1      27.515  34.009  15.003  0.00  0.00    +0.171 C 
ATOM     38  O   UNL     1      27.668  32.920  15.908  0.00  0.00    -0.343 OA
ATOM     39  C   UNL     1      28.800  32.706  16.698  0.00  0.00    +0.220 C 
ATOM     40  C   UNL     1      29.201  33.971  17.477  0.00  0.00    +0.076 C 
ATOM     41  C   UNL     1      29.328  35.119  16.462  0.00  0.00    +0.177 C 
ATOM     42  O   UNL     1      29.736  36.306  17.126  0.00  0.00    -0.221 OA
ATOM     43  C   UNL     1      27.975  35.325  15.712  0.00  0.00    +0.155 C 
BRANCH  43  44
ATOM     44  N   UNL     1      28.089  36.419  14.751  0.00  0.00    -0.202 NA
ATOM     45  C   UNL     1      27.386  37.577  14.667  0.00  0.00    +0.242 C 
ATOM     46  C   UNL     1      27.904  38.664  13.761  0.00  0.00    +0.096 C 
ATOM     47  O   UNL     1      26.356  37.712  15.325  0.00  0.00    -0.273 OA
ENDBRANCH  43  44
BRANCH  39  48
ATOM     48  C   UNL     1      30.057  32.090  15.873  0.00  0.00    +0.391 C 
ATOM     49  O   UNL     1      31.131  32.319  16.654  0.00  0.00    -0.243 OA
ATOM     50  O   UNL     1      29.528  31.338  14.900  0.00  0.00    -0.243 OA
ENDBRANCH  39  48
ENDBRANCH  35  37
ENDBRANCH  33  35
ENDBRANCH  32  33
ENDBRANCH  29  32
ENDBRANCH  27  28
ENDBRANCH  26  27
ENDBRANCH   1  26
TORSDOF 17
