REMARK VINA RESULT:    -5.851      2.968      4.745
REMARK INTER + INTRA:         -12.874
REMARK INTER:                 -10.778
REMARK INTRA:                  -2.096
REMARK UNBOUND:                -2.235
REMARK  Name = lig_assembled_50.pdb
REMARK  15 active torsions:
REMARK  status: ('A' for Active; 'I' for Inactive)
REMARK    1  A    between atoms: _2  and  _8
REMARK    2  A    between atoms: _4  and  _9
REMARK    3  A    between atoms: _4  and  _10
REMARK    4  A    between atoms: _5  and  _6
REMARK    5  A    between atoms: _5  and  _12
REMARK    6  A    between atoms: _8  and  _9
REMARK    7  A    between atoms: _9  and  _11
REMARK    8  A    between atoms: _12  and  _14
REMARK    9  A    between atoms: _13  and  _18
REMARK   10  A    between atoms: _14  and  _17
REMARK   11  A    between atoms: _22  and  _32
REMARK   12  A    between atoms: _24  and  _25
REMARK   13  A    between atoms: _26  and  _28
REMARK   14  A    between atoms: _28  and  _30
REMARK   15  A    between atoms: _30  and  _32
REMARK                            x       y       z     vdW  Elec       q    Type
REMARK                         _______ _______ _______ _____ _____    ______ ____
ROOT
ATOM      1  C   UNL     1      24.888  12.124   0.064  0.00  0.00    +0.400 C 
ATOM      2  N   UNL     1      26.102  11.542   0.343  0.00  0.00    -0.278 N 
ATOM      3  H   UNL     1      26.733  11.899  -0.442  0.00  0.00    +0.152 HD
ATOM      4  O   UNL     1      24.845  12.983  -0.812  0.00  0.00    -0.226 OA
ENDROOT
BRANCH   2   5
ATOM      5  C   UNL     1      26.900  10.687   1.217  0.00  0.00    +0.152 C 
BRANCH   5   6
ATOM      6  C   UNL     1      27.504  11.365   2.465  0.00  0.00    +0.193 C 
ATOM      7  O   UNL     1      28.784  10.737   2.700  0.00  0.00    -0.219 OA
BRANCH   6   8
ATOM      8  C   UNL     1      27.824  12.873   2.374  0.00  0.00    +0.212 C 
ATOM      9  O   UNL     1      27.601  13.510   3.642  0.00  0.00    -0.218 OA
BRANCH   8  10
ATOM     10  C   UNL     1      29.302  13.170   1.914  0.00  0.00    +0.171 C 
ATOM     11  O   UNL     1      30.099  13.724   2.955  0.00  0.00    -0.343 OA
ATOM     12  C   UNL     1      31.357  14.301   2.763  0.00  0.00    +0.220 C 
ATOM     13  C   UNL     1      31.337  15.348   1.636  0.00  0.00    +0.076 C 
ATOM     14  C   UNL     1      30.737  14.676   0.390  0.00  0.00    +0.177 C 
ATOM     15  O   UNL     1      30.732  15.591  -0.696  0.00  0.00    -0.221 OA
ATOM     16  C   UNL     1      29.298  14.157   0.700  0.00  0.00    +0.155 C 
BRANCH  16  17
ATOM     17  N   UNL     1      28.721  13.524  -0.483  0.00  0.00    -0.202 NA
ATOM     18  C   UNL     1      28.037  14.076  -1.516  0.00  0.00    +0.242 C 
ATOM     19  C   UNL     1      27.811  13.243  -2.751  0.00  0.00    +0.096 C 
ATOM     20  O   UNL     1      27.624  15.231  -1.424  0.00  0.00    -0.273 OA
ENDBRANCH  16  17
BRANCH  12  21
ATOM     21  C   UNL     1      32.543  13.213   2.546  0.00  0.00    +0.391 C 
ATOM     22  O   UNL     1      32.109  12.098   3.166  0.00  0.00    -0.243 OA
ATOM     23  O   UNL     1      33.344  13.721   1.602  0.00  0.00    -0.243 OA
ENDBRANCH  12  21
ENDBRANCH   8  10
ENDBRANCH   6   8
ENDBRANCH   5   6
ENDBRANCH   2   5
BRANCH   1  24
ATOM     24  O   UNL     1      23.884  11.678   0.745  0.00  0.00    -0.450 OA
BRANCH  24  25
ATOM     25  C   UNL     1      22.716  10.915   0.551  0.00  0.00    +0.240 C 
BRANCH  25  26
ATOM     26  C   UNL     1      21.363  11.638   0.691  0.00  0.00    +0.100 C 
BRANCH  26  28
ATOM     27  N   UNL     1      20.427  13.733  -0.245  0.00  0.00    -0.134 NA
ATOM     28  C   UNL     1      21.174  12.596  -0.417  0.00  0.00    +0.086 A 
ATOM     29  C   UNL     1      21.658  12.566  -1.709  0.00  0.00    +0.133 A 
ATOM     30  N   UNL     1      21.166  13.702  -2.268  0.00  0.00    -0.249 N 
ATOM     31  N   UNL     1      20.440  14.411  -1.383  0.00  0.00    -0.065 NA
BRANCH  30  32
ATOM     32  C   UNL     1      21.328  14.179  -3.622  0.00  0.00    +0.178 C 
BRANCH  32  33
ATOM     33  C   UNL     1      22.223  15.418  -3.745  0.00  0.00    +0.161 C 
BRANCH  33  34
ATOM     34  O   UNL     1      21.642  16.580  -3.146  0.00  0.00    -0.388 OA
ATOM     35  H   UNL     1      21.848  16.574  -2.190  0.00  0.00    +0.210 HD
ENDBRANCH  33  34
BRANCH  33  36
ATOM     36  C   UNL     1      23.641  15.207  -3.199  0.00  0.00    +0.189 C 
BRANCH  36  37
ATOM     37  O   UNL     1      23.766  15.715  -1.871  0.00  0.00    -0.392 OA
ATOM     38  H   UNL     1      24.398  16.459  -1.887  0.00  0.00    +0.210 HD
ENDBRANCH  36  37
ENDBRANCH  33  36
ENDBRANCH  32  33
ENDBRANCH  30  32
ENDBRANCH  26  28
ENDBRANCH  25  26
ENDBRANCH  24  25
ENDBRANCH   1  24
TORSDOF 15
