REMARK VINA RESULT:    -7.148      3.145     10.081
REMARK INTER + INTRA:         -14.596
REMARK INTER:                 -13.201
REMARK INTRA:                  -1.395
REMARK UNBOUND:                -1.807
REMARK  Name = lig_assembled_75.pdb
REMARK  14 active torsions:
REMARK  status: ('A' for Active; 'I' for Inactive)
REMARK    1  A    between atoms: _2  and  _8
REMARK    2  A    between atoms: _5  and  _6
REMARK    3  A    between atoms: _5  and  _18
REMARK    4  A    between atoms: _10  and  _11
REMARK    5  A    between atoms: _12  and  _13
REMARK    6  A    between atoms: _13  and  _16
REMARK    7  A    between atoms: _18  and  _20
REMARK    8  A    between atoms: _19  and  _24
REMARK    9  A    between atoms: _20  and  _23
REMARK   10  A    between atoms: _28  and  _38
REMARK   11  A    between atoms: _30  and  _31
REMARK   12  A    between atoms: _32  and  _34
REMARK   13  A    between atoms: _34  and  _36
REMARK   14  A    between atoms: _36  and  _38
REMARK                            x       y       z     vdW  Elec       q    Type
REMARK                         _______ _______ _______ _____ _____    ______ ____
ROOT
ATOM      1  C   UNL     1      27.965  17.887  -1.035  0.00  0.00    +0.400 C 
ATOM      2  N   UNL     1      27.195  17.671  -2.153  0.00  0.00    -0.278 N 
ATOM      3  H   UNL     1      26.215  17.957  -1.838  0.00  0.00    +0.152 HD
ATOM      4  O   UNL     1      27.456  18.479  -0.086  0.00  0.00    -0.226 OA
ENDROOT
BRANCH   2   5
ATOM      5  C   UNL     1      27.120  17.248  -3.549  0.00  0.00    +0.152 C 
BRANCH   5   6
ATOM      6  C   UNL     1      26.012  16.232  -3.893  0.00  0.00    +0.193 C 
ATOM      7  O   UNL     1      26.115  15.968  -5.310  0.00  0.00    -0.219 OA
BRANCH   6   8
ATOM      8  C   UNL     1      26.092  14.837  -3.235  0.00  0.00    +0.212 C 
ATOM      9  O   UNL     1      26.709  14.927  -1.940  0.00  0.00    -0.218 OA
BRANCH   8  10
ATOM     10  C   UNL     1      24.687  14.140  -3.076  0.00  0.00    +0.171 C 
ATOM     11  O   UNL     1      23.604  15.056  -3.197  0.00  0.00    -0.343 OA
ATOM     12  C   UNL     1      22.280  14.762  -2.862  0.00  0.00    +0.220 C 
ATOM     13  C   UNL     1      22.171  14.153  -1.453  0.00  0.00    +0.076 C 
ATOM     14  C   UNL     1      23.136  12.958  -1.389  0.00  0.00    +0.177 C 
ATOM     15  O   UNL     1      23.045  12.333  -0.116  0.00  0.00    -0.221 OA
ATOM     16  C   UNL     1      24.594  13.429  -1.686  0.00  0.00    +0.155 C 
BRANCH  16  17
ATOM     17  N   UNL     1      25.516  12.298  -1.619  0.00  0.00    -0.202 NA
ATOM     18  C   UNL     1      26.255  11.842  -0.576  0.00  0.00    +0.242 C 
ATOM     19  C   UNL     1      26.895  10.483  -0.693  0.00  0.00    +0.096 C 
ATOM     20  O   UNL     1      26.383  12.538   0.429  0.00  0.00    -0.273 OA
ENDBRANCH  16  17
BRANCH  12  21
ATOM     21  C   UNL     1      21.521  13.846  -3.969  0.00  0.00    +0.391 C 
ATOM     22  O   UNL     1      20.411  13.400  -3.349  0.00  0.00    -0.243 OA
ATOM     23  O   UNL     1      22.109  14.118  -5.140  0.00  0.00    -0.243 OA
ENDBRANCH  12  21
ENDBRANCH   8  10
ENDBRANCH   6   8
ENDBRANCH   5   6
ENDBRANCH   2   5
BRANCH   1  24
ATOM     24  O   UNL     1      29.166  17.410  -1.080  0.00  0.00    -0.450 OA
BRANCH  24  25
ATOM     25  C   UNL     1      30.061  16.690  -0.265  0.00  0.00    +0.240 C 
BRANCH  25  26
ATOM     26  C   UNL     1      29.683  15.242   0.100  0.00  0.00    +0.100 C 
BRANCH  26  28
ATOM     27  N   UNL     1      31.803  13.983  -0.096  0.00  0.00    -0.134 NA
ATOM     28  C   UNL     1      30.840  14.544   0.690  0.00  0.00    +0.086 A 
ATOM     29  C   UNL     1      31.156  14.329   2.012  0.00  0.00    +0.139 A 
ATOM     30  N   UNL     1      32.337  13.623   1.985  0.00  0.00    -0.220 N 
ATOM     31  N   UNL     1      32.708  13.424   0.696  0.00  0.00    -0.061 NA
BRANCH  30  32
ATOM     32  C   UNL     1      33.097  13.116   3.070  0.00  0.00    +0.068 A 
ATOM     33  C   UNL     1      32.481  12.950   4.324  0.00  0.00    +0.035 A 
ATOM     34  C   UNL     1      33.218  12.514   5.434  0.00  0.00    -0.023 A 
ATOM     35  C   UNL     1      34.568  12.184   5.258  0.00  0.00    +0.008 A 
ATOM     36  C   UNL     1      35.179  12.326   4.010  0.00  0.00    +0.003 A 
ATOM     37  C   UNL     1      34.451  12.798   2.919  0.00  0.00    +0.028 A 
BRANCH  34  38
ATOM     38  C   UNL     1      32.623  12.372   6.771  0.00  0.00    +0.015 C 
ATOM     39  C   UNL     1      31.330  12.079   6.984  0.00  0.00    +0.092 C 
BRANCH  39  40
ATOM     40  C   UNL     1      30.814  12.009   8.366  0.00  0.00    +0.330 C 
ATOM     41  O   UNL     1      30.763  10.994   9.037  0.00  0.00    -0.246 OA
BRANCH  40  42
ATOM     42  O   UNL     1      30.413  13.215   8.815  0.00  0.00    -0.478 OA
ATOM     43  H   UNL     1      29.663  13.616   8.338  0.00  0.00    +0.295 HD
ENDBRANCH  40  42
ENDBRANCH  39  40
ENDBRANCH  34  38
ENDBRANCH  30  32
ENDBRANCH  26  28
ENDBRANCH  25  26
ENDBRANCH  24  25
ENDBRANCH   1  24
TORSDOF 14
