REMARK VINA RESULT:    -7.632      2.260      3.760
REMARK INTER + INTRA:         -14.307
REMARK INTER:                 -12.540
REMARK INTRA:                  -1.768
REMARK UNBOUND:                -1.768
REMARK  Name = lig_assembled_91.pdb
REMARK  11 active torsions:
REMARK  status: ('A' for Active; 'I' for Inactive)
REMARK    1  A    between atoms: _2  and  _9
REMARK    2  A    between atoms: _6  and  _7
REMARK    3  A    between atoms: _6  and  _21
REMARK    4  A    between atoms: _21  and  _23
REMARK    5  A    between atoms: _22  and  _27
REMARK    6  A    between atoms: _23  and  _26
REMARK    7  A    between atoms: _31  and  _41
REMARK    8  A    between atoms: _33  and  _34
REMARK    9  A    between atoms: _35  and  _37
REMARK   10  A    between atoms: _37  and  _39
REMARK   11  A    between atoms: _39  and  _41
REMARK                            x       y       z     vdW  Elec       q    Type
REMARK                         _______ _______ _______ _____ _____    ______ ____
ROOT
ATOM      1  C   UNL     1      27.835  17.216  -1.184  0.00  0.00    +0.400 C 
ATOM      2  N   UNL     1      28.072  15.942  -0.724  0.00  0.00    -0.278 N 
ATOM      3  H   UNL     1      28.321  16.092   0.304  0.00  0.00    +0.152 HD
ATOM      4  O   UNL     1      27.777  18.127  -0.361  0.00  0.00    -0.226 OA
ENDROOT
BRANCH   1   5
ATOM      5  O   UNL     1      27.725  17.338  -2.466  0.00  0.00    -0.450 OA
BRANCH   5   6
ATOM      6  C   UNL     1      26.720  17.478  -3.443  0.00  0.00    +0.240 C 
BRANCH   6   7
ATOM      7  C   UNL     1      26.544  16.327  -4.451  0.00  0.00    +0.100 C 
BRANCH   7   9
ATOM      8  N   UNL     1      25.762  13.993  -4.256  0.00  0.00    -0.134 NA
ATOM      9  C   UNL     1      25.627  15.303  -3.913  0.00  0.00    +0.086 A 
ATOM     10  C   UNL     1      24.574  15.427  -3.036  0.00  0.00    +0.139 A 
ATOM     11  N   UNL     1      24.053  14.155  -2.902  0.00  0.00    -0.219 N 
ATOM     12  N   UNL     1      24.812  13.306  -3.641  0.00  0.00    -0.060 NA
BRANCH  11  13
ATOM     13  C   UNL     1      22.919  13.709  -2.153  0.00  0.00    +0.085 A 
ATOM     14  C   UNL     1      23.098  12.841  -1.016  0.00  0.00    +0.026 A 
ATOM     15  C   UNL     1      21.915  12.442  -0.365  0.00  0.00    +0.074 A 
ATOM     16  C   UNL     1      21.960  11.606   0.741  0.00  0.00    +0.028 A 
ATOM     17  C   UNL     1      23.158  11.131   1.264  0.00  0.00    +0.002 A 
ATOM     18  C   UNL     1      24.345  11.526   0.680  0.00  0.00    +0.001 A 
ATOM     19  N   UNL     1      20.697  12.836  -0.729  0.00  0.00    -0.247 NA
ATOM     20  C   UNL     1      20.539  13.661  -1.764  0.00  0.00    +0.074 A 
ATOM     21  C   UNL     1      19.224  14.007  -2.058  0.00  0.00    +0.028 A 
ATOM     22  C   UNL     1      18.894  14.830  -3.130  0.00  0.00    +0.002 A 
ATOM     23  C   UNL     1      19.905  15.311  -3.940  0.00  0.00    +0.001 A 
ATOM     24  C   UNL     1      21.232  14.967  -3.660  0.00  0.00    +0.012 A 
ATOM     25  C   UNL     1      24.319  12.383  -0.425  0.00  0.00    +0.012 A 
ATOM     26  C   UNL     1      21.600  14.144  -2.547  0.00  0.00    +0.026 A 
ENDBRANCH  11  13
ENDBRANCH   7   9
ENDBRANCH   6   7
ENDBRANCH   5   6
ENDBRANCH   1   5
BRANCH   2  27
ATOM     27  C   UNL     1      28.121  14.509  -1.001  0.00  0.00    +0.152 C 
BRANCH  27  28
ATOM     28  C   UNL     1      29.289  13.732  -0.360  0.00  0.00    +0.193 C 
ATOM     29  O   UNL     1      30.504  14.400  -0.765  0.00  0.00    -0.219 OA
BRANCH  28  30
ATOM     30  C   UNL     1      29.364  13.698   1.183  0.00  0.00    +0.212 C 
ATOM     31  O   UNL     1      28.321  14.506   1.754  0.00  0.00    -0.218 OA
BRANCH  30  32
ATOM     32  C   UNL     1      29.259  12.244   1.782  0.00  0.00    +0.171 C 
ATOM     33  O   UNL     1      28.101  11.548   1.331  0.00  0.00    -0.343 OA
ATOM     34  C   UNL     1      27.636  10.352   1.882  0.00  0.00    +0.220 C 
ATOM     35  C   UNL     1      27.514  10.439   3.414  0.00  0.00    +0.076 C 
ATOM     36  C   UNL     1      28.869  10.920   3.959  0.00  0.00    +0.177 C 
ATOM     37  O   UNL     1      28.824  10.980   5.377  0.00  0.00    -0.221 OA
ATOM     38  C   UNL     1      29.235  12.306   3.344  0.00  0.00    +0.155 C 
BRANCH  38  39
ATOM     39  N   UNL     1      30.519  12.769   3.865  0.00  0.00    -0.202 NA
ATOM     40  C   UNL     1      31.767  12.276   3.662  0.00  0.00    +0.242 C 
ATOM     41  C   UNL     1      32.946  13.117   4.077  0.00  0.00    +0.096 C 
ATOM     42  O   UNL     1      31.905  11.167   3.149  0.00  0.00    -0.273 OA
ENDBRANCH  38  39
BRANCH  34  43
ATOM     43  C   UNL     1      28.495   9.051   1.425  0.00  0.00    +0.391 C 
ATOM     44  O   UNL     1      29.376   9.517   0.519  0.00  0.00    -0.243 OA
ATOM     45  O   UNL     1      28.218   8.093   2.318  0.00  0.00    -0.243 OA
ENDBRANCH  34  43
ENDBRANCH  30  32
ENDBRANCH  28  30
ENDBRANCH  27  28
ENDBRANCH   2  27
TORSDOF 11
