REMARK VINA RESULT:    -7.371      1.962      3.536
REMARK INTER + INTRA:         -15.227
REMARK INTER:                 -13.342
REMARK INTRA:                  -1.885
REMARK UNBOUND:                -1.823
REMARK  Name = lig_assembled_12.pdb
REMARK  14 active torsions:
REMARK  status: ('A' for Active; 'I' for Inactive)
REMARK    1  A    between atoms: _2  and  _8
REMARK    2  A    between atoms: _5  and  _6
REMARK    3  A    between atoms: _5  and  _16
REMARK    4  A    between atoms: _8  and  _15
REMARK    5  A    between atoms: _9  and  _10
REMARK    6  A    between atoms: _9  and  _15
REMARK    7  A    between atoms: _16  and  _18
REMARK    8  A    between atoms: _17  and  _22
REMARK    9  A    between atoms: _18  and  _21
REMARK   10  A    between atoms: _26  and  _36
REMARK   11  A    between atoms: _28  and  _29
REMARK   12  A    between atoms: _30  and  _32
REMARK   13  A    between atoms: _32  and  _34
REMARK   14  A    between atoms: _34  and  _36
REMARK                            x       y       z     vdW  Elec       q    Type
REMARK                         _______ _______ _______ _____ _____    ______ ____
ROOT
ATOM      1  C   UNL     1      28.325  17.614  -0.575  0.00  0.00    +0.400 C 
ATOM      2  N   UNL     1      29.493  17.606   0.150  0.00  0.00    -0.278 N 
ATOM      3  H   UNL     1      29.417  18.486   0.751  0.00  0.00    +0.152 HD
ATOM      4  O   UNL     1      27.458  18.429  -0.269  0.00  0.00    -0.226 OA
ENDROOT
BRANCH   2   5
ATOM      5  C   UNL     1      30.755  16.944   0.469  0.00  0.00    +0.152 C 
BRANCH   5   6
ATOM      6  C   UNL     1      30.836  15.440   0.137  0.00  0.00    +0.193 C 
ATOM      7  O   UNL     1      31.882  15.287  -0.848  0.00  0.00    -0.219 OA
BRANCH   6   8
ATOM      8  C   UNL     1      31.235  14.476   1.276  0.00  0.00    +0.212 C 
ATOM      9  O   UNL     1      31.553  15.213   2.468  0.00  0.00    -0.218 OA
BRANCH   8  10
ATOM     10  C   UNL     1      30.117  13.419   1.620  0.00  0.00    +0.171 C 
ATOM     11  O   UNL     1      28.837  14.015   1.802  0.00  0.00    -0.343 OA
ATOM     12  C   UNL     1      27.732  13.356   2.346  0.00  0.00    +0.220 C 
ATOM     13  C   UNL     1      28.077  12.666   3.677  0.00  0.00    +0.076 C 
ATOM     14  C   UNL     1      29.305  11.774   3.431  0.00  0.00    +0.177 C 
ATOM     15  O   UNL     1      29.643  11.080   4.624  0.00  0.00    -0.221 OA
ATOM     16  C   UNL     1      30.501  12.636   2.918  0.00  0.00    +0.155 C 
BRANCH  16  17
ATOM     17  N   UNL     1      31.672  11.793   2.690  0.00  0.00    -0.202 NA
ATOM     18  C   UNL     1      32.885  11.810   3.298  0.00  0.00    +0.242 C 
ATOM     19  C   UNL     1      33.812  10.643   3.079  0.00  0.00    +0.096 C 
ATOM     20  O   UNL     1      33.196  12.766   4.006  0.00  0.00    -0.273 OA
ENDBRANCH  16  17
BRANCH  12  21
ATOM     21  C   UNL     1      27.015  12.330   1.310  0.00  0.00    +0.391 C 
ATOM     22  O   UNL     1      26.177  11.599   2.069  0.00  0.00    -0.243 OA
ATOM     23  O   UNL     1      27.292  12.790   0.083  0.00  0.00    -0.243 OA
ENDBRANCH  12  21
ENDBRANCH   8  10
ENDBRANCH   6   8
ENDBRANCH   5   6
ENDBRANCH   2   5
BRANCH   1  24
ATOM     24  O   UNL     1      28.264  16.765  -1.548  0.00  0.00    -0.450 OA
BRANCH  24  25
ATOM     25  C   UNL     1      27.464  15.688  -1.977  0.00  0.00    +0.240 C 
BRANCH  25  26
ATOM     26  C   UNL     1      26.572  15.913  -3.213  0.00  0.00    +0.100 C 
BRANCH  26  28
ATOM     27  N   UNL     1      25.225  13.855  -2.904  0.00  0.00    -0.134 NA
ATOM     28  C   UNL     1      25.282  15.218  -3.052  0.00  0.00    +0.086 A 
ATOM     29  C   UNL     1      24.006  15.727  -3.021  0.00  0.00    +0.136 A 
ATOM     30  N   UNL     1      23.213  14.626  -2.882  0.00  0.00    -0.226 N 
ATOM     31  N   UNL     1      23.951  13.503  -2.788  0.00  0.00    -0.063 NA
BRANCH  30  32
ATOM     32  C   UNL     1      21.765  14.558  -2.781  0.00  0.00    +0.305 C 
BRANCH  32  33
ATOM     33  O   UNL     1      21.400  14.357  -1.418  0.00  0.00    -0.353 OA
BRANCH  33  34
ATOM     34  C   UNL     1      20.484  13.281  -1.272  0.00  0.00    +0.197 C 
BRANCH  34  35
ATOM     35  C   UNL     1      21.078  12.312  -0.288  0.00  0.00    -0.022 A 
ATOM     36  C   UNL     1      21.618  11.094  -0.724  0.00  0.00    +0.006 A 
ATOM     37  C   UNL     1      22.133  10.177   0.194  0.00  0.00    +0.000 A 
ATOM     38  C   UNL     1      22.106  10.464   1.557  0.00  0.00    +0.000 A 
ATOM     39  C   UNL     1      21.561  11.666   2.004  0.00  0.00    +0.000 A 
ATOM     40  C   UNL     1      21.045  12.585   1.087  0.00  0.00    +0.006 A 
ENDBRANCH  34  35
ENDBRANCH  33  34
ENDBRANCH  32  33
ENDBRANCH  30  32
ENDBRANCH  26  28
ENDBRANCH  25  26
ENDBRANCH  24  25
ENDBRANCH   1  24
TORSDOF 14
