REMARK VINA RESULT:    -6.861      2.017      3.912
REMARK INTER + INTRA:         -15.245
REMARK INTER:                 -13.057
REMARK INTRA:                  -2.188
REMARK UNBOUND:                -1.965
REMARK  Name = lig_assembled_11.pdb
REMARK  17 active torsions:
REMARK  status: ('A' for Active; 'I' for Inactive)
REMARK    1  A    between atoms: _2  and  _8
REMARK    2  A    between atoms: _4  and  _8
REMARK    3  A    between atoms: _4  and  _12
REMARK    4  A    between atoms: _5  and  _6
REMARK    5  A    between atoms: _5  and  _16
REMARK    6  A    between atoms: _8  and  _9
REMARK    7  A    between atoms: _9  and  _10
REMARK    8  A    between atoms: _10  and  _11
REMARK    9  A    between atoms: _11  and  _14
REMARK   10  A    between atoms: _16  and  _18
REMARK   11  A    between atoms: _17  and  _22
REMARK   12  A    between atoms: _18  and  _21
REMARK   13  A    between atoms: _26  and  _36
REMARK   14  A    between atoms: _28  and  _29
REMARK   15  A    between atoms: _30  and  _32
REMARK   16  A    between atoms: _32  and  _34
REMARK   17  A    between atoms: _34  and  _36
REMARK                            x       y       z     vdW  Elec       q    Type
REMARK                         _______ _______ _______ _____ _____    ______ ____
ROOT
ATOM      1  C   UNL     1      27.522  13.047   2.782  0.00  0.00    +0.400 C 
ATOM      2  N   UNL     1      28.246  14.007   2.117  0.00  0.00    -0.278 N 
ATOM      3  H   UNL     1      28.735  14.538   2.906  0.00  0.00    +0.152 HD
ATOM      4  O   UNL     1      27.722  12.899   3.985  0.00  0.00    -0.226 OA
ENDROOT
BRANCH   1   5
ATOM      5  O   UNL     1      26.660  12.400   2.068  0.00  0.00    -0.450 OA
BRANCH   5   6
ATOM      6  C   UNL     1      26.620  11.599   0.909  0.00  0.00    +0.240 C 
BRANCH   6   7
ATOM      7  C   UNL     1      25.234  11.271   0.320  0.00  0.00    +0.100 C 
BRANCH   7   9
ATOM      8  N   UNL     1      23.418  12.686  -0.588  0.00  0.00    -0.134 NA
ATOM      9  C   UNL     1      24.750  12.390  -0.509  0.00  0.00    +0.086 A 
ATOM     10  C   UNL     1      25.454  13.281  -1.287  0.00  0.00    +0.134 A 
ATOM     11  N   UNL     1      24.493  14.069  -1.850  0.00  0.00    -0.238 N 
ATOM     12  N   UNL     1      23.271  13.723  -1.401  0.00  0.00    -0.065 NA
BRANCH  11  13
ATOM     13  C   UNL     1      24.615  15.249  -2.702  0.00  0.00    +0.217 C 
BRANCH  13  14
ATOM     14  C   UNL     1      23.367  15.550  -3.516  0.00  0.00    +0.330 C 
ATOM     15  O   UNL     1      22.995  14.942  -4.508  0.00  0.00    -0.249 OA
BRANCH  14  16
ATOM     16  O   UNL     1      22.647  16.604  -3.053  0.00  0.00    -0.479 OA
ATOM     17  H   UNL     1      23.095  17.210  -2.431  0.00  0.00    +0.295 HD
ENDBRANCH  14  16
ENDBRANCH  13  14
BRANCH  13  18
ATOM     18  C   UNL     1      25.890  15.203  -3.565  0.00  0.00    +0.049 C 
BRANCH  18  19
ATOM     19  C   UNL     1      26.456  16.574  -3.953  0.00  0.00    +0.123 C 
BRANCH  19  20
ATOM     20  C   UNL     1      27.053  17.273  -2.752  0.00  0.00    +0.305 C 
ATOM     21  O   UNL     1      27.684  16.719  -1.867  0.00  0.00    -0.251 OA
BRANCH  20  22
ATOM     22  O   UNL     1      26.792  18.599  -2.739  0.00  0.00    -0.481 OA
ATOM     23  H   UNL     1      26.485  18.943  -1.880  0.00  0.00    +0.295 HD
ENDBRANCH  20  22
ENDBRANCH  19  20
ENDBRANCH  18  19
ENDBRANCH  13  18
ENDBRANCH  11  13
ENDBRANCH   7   9
ENDBRANCH   6   7
ENDBRANCH   5   6
ENDBRANCH   1   5
BRANCH   2  24
ATOM     24  C   UNL     1      28.650  14.604   0.847  0.00  0.00    +0.152 C 
BRANCH  24  25
ATOM     25  C   UNL     1      29.988  14.111   0.259  0.00  0.00    +0.193 C 
ATOM     26  O   UNL     1      29.894  14.266  -1.175  0.00  0.00    -0.219 OA
BRANCH  25  27
ATOM     27  C   UNL     1      31.268  14.884   0.647  0.00  0.00    +0.212 C 
ATOM     28  O   UNL     1      30.939  16.024   1.457  0.00  0.00    -0.218 OA
BRANCH  27  29
ATOM     29  C   UNL     1      32.320  14.002   1.421  0.00  0.00    +0.171 C 
ATOM     30  O   UNL     1      32.662  14.546   2.691  0.00  0.00    -0.343 OA
ATOM     31  C   UNL     1      33.734  14.109   3.473  0.00  0.00    +0.220 C 
ATOM     32  C   UNL     1      35.042  14.052   2.665  0.00  0.00    +0.076 C 
ATOM     33  C   UNL     1      34.773  13.210   1.407  0.00  0.00    +0.177 C 
ATOM     34  O   UNL     1      35.964  13.091   0.642  0.00  0.00    -0.221 OA
ATOM     35  C   UNL     1      33.622  13.848   0.569  0.00  0.00    +0.155 C 
BRANCH  35  36
ATOM     36  N   UNL     1      33.368  13.055  -0.631  0.00  0.00    -0.202 NA
ATOM     37  C   UNL     1      33.311  13.441  -1.931  0.00  0.00    +0.242 C 
ATOM     38  C   UNL     1      33.326  12.375  -2.995  0.00  0.00    +0.096 C 
ATOM     39  O   UNL     1      33.250  14.638  -2.207  0.00  0.00    -0.273 OA
ENDBRANCH  35  36
BRANCH  31  40
ATOM     40  C   UNL     1      33.446  12.708   4.242  0.00  0.00    +0.391 C 
ATOM     41  O   UNL     1      34.658  12.273   4.637  0.00  0.00    -0.243 OA
ATOM     42  O   UNL     1      32.125  12.668   4.455  0.00  0.00    -0.243 OA
ENDBRANCH  31  40
ENDBRANCH  27  29
ENDBRANCH  25  27
ENDBRANCH  24  25
ENDBRANCH   2  24
TORSDOF 17
