REMARK VINA RESULT:    -8.005      1.891      3.800
REMARK INTER + INTRA:         -15.028
REMARK INTER:                 -13.223
REMARK INTRA:                  -1.804
REMARK UNBOUND:                -1.407
REMARK  Name = lig_assembled_82.pdb
REMARK  14 active torsions:
REMARK  status: ('A' for Active; 'I' for Inactive)
REMARK    1  A    between atoms: _2  and  _8
REMARK    2  A    between atoms: _4  and  _15
REMARK    3  A    between atoms: _5  and  _6
REMARK    4  A    between atoms: _5  and  _17
REMARK    5  A    between atoms: _8  and  _9
REMARK    6  A    between atoms: _15  and  _16
REMARK    7  A    between atoms: _17  and  _19
REMARK    8  A    between atoms: _18  and  _23
REMARK    9  A    between atoms: _19  and  _22
REMARK   10  A    between atoms: _27  and  _37
REMARK   11  A    between atoms: _29  and  _30
REMARK   12  A    between atoms: _31  and  _33
REMARK   13  A    between atoms: _33  and  _35
REMARK   14  A    between atoms: _35  and  _37
REMARK                            x       y       z     vdW  Elec       q    Type
REMARK                         _______ _______ _______ _____ _____    ______ ____
ROOT
ATOM      1  C   UNL     1      28.335  17.652  -0.531  0.00  0.00    +0.400 C 
ATOM      2  N   UNL     1      29.515  17.546   0.167  0.00  0.00    -0.278 N 
ATOM      3  H   UNL     1      29.436  18.316   0.904  0.00  0.00    +0.152 HD
ATOM      4  O   UNL     1      27.462  18.392  -0.084  0.00  0.00    -0.226 OA
ENDROOT
BRANCH   2   5
ATOM      5  C   UNL     1      30.791  16.861   0.358  0.00  0.00    +0.152 C 
BRANCH   5   6
ATOM      6  C   UNL     1      30.784  15.336   0.129  0.00  0.00    +0.193 C 
ATOM      7  O   UNL     1      31.765  15.065  -0.896  0.00  0.00    -0.219 OA
BRANCH   6   8
ATOM      8  C   UNL     1      31.203  14.434   1.311  0.00  0.00    +0.212 C 
ATOM      9  O   UNL     1      31.527  15.232   2.461  0.00  0.00    -0.218 OA
BRANCH   8  10
ATOM     10  C   UNL     1      30.098  13.387   1.720  0.00  0.00    +0.171 C 
ATOM     11  O   UNL     1      28.786  13.942   1.708  0.00  0.00    -0.343 OA
ATOM     12  C   UNL     1      27.662  13.319   2.255  0.00  0.00    +0.220 C 
ATOM     13  C   UNL     1      27.915  12.849   3.698  0.00  0.00    +0.076 C 
ATOM     14  C   UNL     1      29.190  11.990   3.688  0.00  0.00    +0.177 C 
ATOM     15  O   UNL     1      29.449  11.495   4.994  0.00  0.00    -0.221 OA
ATOM     16  C   UNL     1      30.395  12.822   3.148  0.00  0.00    +0.155 C 
BRANCH  16  17
ATOM     17  N   UNL     1      31.610  12.011   3.143  0.00  0.00    -0.202 NA
ATOM     18  C   UNL     1      32.691  12.063   3.962  0.00  0.00    +0.242 C 
ATOM     19  C   UNL     1      33.673  10.921   3.924  0.00  0.00    +0.096 C 
ATOM     20  O   UNL     1      32.842  13.028   4.708  0.00  0.00    -0.273 OA
ENDBRANCH  16  17
BRANCH  12  21
ATOM     21  C   UNL     1      27.073  12.119   1.331  0.00  0.00    +0.391 C 
ATOM     22  O   UNL     1      26.154  11.506   2.102  0.00  0.00    -0.243 OA
ATOM     23  O   UNL     1      27.490  12.374   0.085  0.00  0.00    -0.243 OA
ENDBRANCH  12  21
ENDBRANCH   8  10
ENDBRANCH   6   8
ENDBRANCH   5   6
ENDBRANCH   2   5
BRANCH   1  24
ATOM     24  O   UNL     1      28.270  16.970  -1.627  0.00  0.00    -0.450 OA
BRANCH  24  25
ATOM     25  C   UNL     1      27.361  16.149  -2.322  0.00  0.00    +0.240 C 
BRANCH  25  26
ATOM     26  C   UNL     1      26.643  16.756  -3.542  0.00  0.00    +0.100 C 
BRANCH  26  28
ATOM     27  N   UNL     1      25.546  15.338  -5.246  0.00  0.00    -0.134 NA
ATOM     28  C   UNL     1      25.546  15.892  -3.988  0.00  0.00    +0.086 A 
ATOM     29  C   UNL     1      24.396  15.492  -3.334  0.00  0.00    +0.134 A 
ATOM     30  N   UNL     1      23.688  14.814  -4.287  0.00  0.00    -0.247 N 
ATOM     31  N   UNL     1      24.423  14.651  -5.402  0.00  0.00    -0.065 NA
BRANCH  30  32
ATOM     32  C   UNL     1      22.290  14.377  -4.245  0.00  0.00    +0.176 C 
BRANCH  32  33
ATOM     33  C   UNL     1      21.921  13.739  -2.929  0.00  0.00    -0.049 C 
ATOM     34  C   UNL     1      22.152  12.269  -2.778  0.00  0.00    +0.023 C 
ATOM     35  C   UNL     1      22.621  11.717  -1.356  0.00  0.00    -0.025 C 
ATOM     36  C   UNL     1      23.505  12.344  -0.271  0.00  0.00    +0.012 C 
ATOM     37  C   UNL     1      21.082  11.968  -0.997  0.00  0.00    -0.000 C 
ATOM     38  C   UNL     1      20.702  13.466  -0.777  0.00  0.00    +0.031 C 
ATOM     39  C   UNL     1      23.260  10.344  -1.684  0.00  0.00    +0.012 C 
ATOM     40  C   UNL     1      20.777  11.556  -2.461  0.00  0.00    +0.012 C 
ATOM     41  C   UNL     1      21.235  14.314  -1.921  0.00  0.00    -0.025 C 
ENDBRANCH  32  33
ENDBRANCH  30  32
ENDBRANCH  26  28
ENDBRANCH  25  26
ENDBRANCH  24  25
ENDBRANCH   1  24
TORSDOF 12
