REMARK VINA RESULT:    -6.073      2.521      4.217
REMARK INTER + INTRA:         -11.978
REMARK INTER:                  -9.979
REMARK INTRA:                  -1.999
REMARK UNBOUND:                -1.999
REMARK  Name = lig_assembled_57.pdb
REMARK  12 active torsions:
REMARK  status: ('A' for Active; 'I' for Inactive)
REMARK    1  A    between atoms: _2  and  _9
REMARK    2  A    between atoms: _3  and  _12
REMARK    3  A    between atoms: _6  and  _7
REMARK    4  A    between atoms: _6  and  _14
REMARK    5  A    between atoms: _14  and  _16
REMARK    6  A    between atoms: _15  and  _20
REMARK    7  A    between atoms: _16  and  _19
REMARK    8  A    between atoms: _24  and  _34
REMARK    9  A    between atoms: _26  and  _27
REMARK   10  A    between atoms: _28  and  _30
REMARK   11  A    between atoms: _30  and  _32
REMARK   12  A    between atoms: _32  and  _34
REMARK                            x       y       z     vdW  Elec       q    Type
REMARK                         _______ _______ _______ _____ _____    ______ ____
ROOT
ATOM      1  C   UNL     1      26.020  15.843  -4.669  0.00  0.00    +0.400 C 
ATOM      2  N   UNL     1      24.699  15.487  -4.535  0.00  0.00    -0.278 N 
ATOM      3  H   UNL     1      24.464  15.048  -5.480  0.00  0.00    +0.152 HD
ATOM      4  O   UNL     1      26.628  15.449  -5.661  0.00  0.00    -0.226 OA
ENDROOT
BRANCH   1   5
ATOM      5  O   UNL     1      26.494  16.599  -3.734  0.00  0.00    -0.450 OA
BRANCH   5   6
ATOM      6  C   UNL     1      26.510  16.675  -2.327  0.00  0.00    +0.240 C 
BRANCH   6   7
ATOM      7  C   UNL     1      27.519  17.642  -1.679  0.00  0.00    +0.100 C 
BRANCH   7   9
ATOM      8  N   UNL     1      29.740  17.497  -0.610  0.00  0.00    -0.134 NA
ATOM      9  C   UNL     1      28.589  16.881  -1.011  0.00  0.00    +0.086 A 
ATOM     10  C   UNL     1      28.646  15.548  -0.661  0.00  0.00    +0.134 A 
ATOM     11  N   UNL     1      29.816  15.434   0.028  0.00  0.00    -0.248 N 
ATOM     12  N   UNL     1      30.501  16.596  -0.010  0.00  0.00    -0.065 NA
BRANCH  11  13
ATOM     13  C   UNL     1      30.365  14.329   0.806  0.00  0.00    +0.111 C 
ATOM     14  C   UNL     1      30.083  12.986   0.116  0.00  0.00    +0.042 C 
ATOM     15  C   UNL     1      30.990  12.807  -1.098  0.00  0.00    +0.086 C 
ATOM     16  N   UNL     1      32.417  12.854  -0.760  0.00  0.00    -0.305 NA
ATOM     17  C   UNL     1      32.780  14.070  -0.031  0.00  0.00    +0.086 C 
ATOM     18  C   UNL     1      32.869  11.637  -0.095  0.00  0.00    +0.104 C 
ATOM     19  C   UNL     1      31.861  14.417   1.150  0.00  0.00    +0.042 C 
ENDBRANCH  11  13
ENDBRANCH   7   9
ENDBRANCH   6   7
ENDBRANCH   5   6
ENDBRANCH   1   5
BRANCH   2  20
ATOM     20  C   UNL     1      23.505  15.427  -3.695  0.00  0.00    +0.152 C 
BRANCH  20  21
ATOM     21  C   UNL     1      23.539  14.409  -2.537  0.00  0.00    +0.193 C 
ATOM     22  O   UNL     1      22.327  14.605  -1.776  0.00  0.00    -0.219 OA
BRANCH  21  23
ATOM     23  C   UNL     1      23.526  12.908  -2.903  0.00  0.00    +0.212 C 
ATOM     24  O   UNL     1      24.215  12.689  -4.144  0.00  0.00    -0.218 OA
BRANCH  23  25
ATOM     25  C   UNL     1      24.173  11.990  -1.798  0.00  0.00    +0.171 C 
ATOM     26  O   UNL     1      23.212  11.478  -0.880  0.00  0.00    -0.343 OA
ATOM     27  C   UNL     1      23.531  10.845   0.324  0.00  0.00    +0.220 C 
ATOM     28  C   UNL     1      24.522  11.675   1.159  0.00  0.00    +0.076 C 
ATOM     29  C   UNL     1      25.726  12.000   0.260  0.00  0.00    +0.177 C 
ATOM     30  O   UNL     1      26.693  12.734   0.997  0.00  0.00    -0.221 OA
ATOM     31  C   UNL     1      25.257  12.788  -1.002  0.00  0.00    +0.155 C 
BRANCH  31  32
ATOM     32  N   UNL     1      26.399  13.105  -1.856  0.00  0.00    -0.202 NA
ATOM     33  C   UNL     1      27.249  12.275  -2.512  0.00  0.00    +0.242 C 
ATOM     34  C   UNL     1      28.158  12.863  -3.559  0.00  0.00    +0.096 C 
ATOM     35  O   UNL     1      27.257  11.076  -2.241  0.00  0.00    -0.273 OA
ENDBRANCH  31  32
BRANCH  27  36
ATOM     36  C   UNL     1      24.044   9.315   0.135  0.00  0.00    +0.391 C 
ATOM     37  O   UNL     1      24.612   8.991   1.313  0.00  0.00    -0.243 OA
ATOM     38  O   UNL     1      23.455   8.863  -0.979  0.00  0.00    -0.243 OA
ENDBRANCH  27  36
ENDBRANCH  23  25
ENDBRANCH  21  23
ENDBRANCH  20  21
ENDBRANCH   2  20
TORSDOF 11
