REMARK VINA RESULT:    -7.912      1.955      4.016
REMARK INTER + INTRA:         -15.085
REMARK INTER:                 -13.404
REMARK INTRA:                  -1.681
REMARK UNBOUND:                -2.085
REMARK  Name = lig_assembled_51.pdb
REMARK  11 active torsions:
REMARK  status: ('A' for Active; 'I' for Inactive)
REMARK    1  A    between atoms: _2  and  _8
REMARK    2  A    between atoms: _5  and  _6
REMARK    3  A    between atoms: _5  and  _17
REMARK    4  A    between atoms: _17  and  _19
REMARK    5  A    between atoms: _18  and  _23
REMARK    6  A    between atoms: _19  and  _22
REMARK    7  A    between atoms: _27  and  _37
REMARK    8  A    between atoms: _29  and  _30
REMARK    9  A    between atoms: _31  and  _33
REMARK   10  A    between atoms: _33  and  _35
REMARK   11  A    between atoms: _35  and  _37
REMARK                            x       y       z     vdW  Elec       q    Type
REMARK                         _______ _______ _______ _____ _____    ______ ____
ROOT
ATOM      1  C   UNL     1      28.343  17.703  -0.532  0.00  0.00    +0.400 C 
ATOM      2  N   UNL     1      29.533  17.577   0.144  0.00  0.00    -0.278 N 
ATOM      3  H   UNL     1      29.463  18.319   0.909  0.00  0.00    +0.152 HD
ATOM      4  O   UNL     1      27.474  18.424  -0.046  0.00  0.00    -0.226 OA
ENDROOT
BRANCH   1   5
ATOM      5  O   UNL     1      28.263  17.060  -1.651  0.00  0.00    -0.450 OA
BRANCH   5   6
ATOM      6  C   UNL     1      27.452  16.089  -2.270  0.00  0.00    +0.240 C 
BRANCH   6   7
ATOM      7  C   UNL     1      26.599  16.536  -3.472  0.00  0.00    +0.100 C 
BRANCH   7   9
ATOM      8  N   UNL     1      24.987  15.196  -4.788  0.00  0.00    -0.134 NA
ATOM      9  C   UNL     1      25.390  15.700  -3.583  0.00  0.00    +0.086 A 
ATOM     10  C   UNL     1      24.506  15.295  -2.610  0.00  0.00    +0.134 A 
ATOM     11  N   UNL     1      23.579  14.549  -3.284  0.00  0.00    -0.245 N 
ATOM     12  N   UNL     1      23.879  14.494  -4.595  0.00  0.00    -0.065 NA
BRANCH  11  13
ATOM     13  C   UNL     1      22.396  13.879  -2.736  0.00  0.00    +0.066 C 
ATOM     14  C   UNL     1      21.969  12.708  -3.661  0.00  0.00    +0.034 C 
ATOM     15  C   UNL     1      20.757  11.963  -3.079  0.00  0.00    -0.008 C 
ATOM     16  C   UNL     1      21.120  11.412  -1.691  0.00  0.00    +0.007 C 
ATOM     17  C   UNL     1      21.501  12.565  -0.747  0.00  0.00    -0.008 C 
ATOM     18  C   UNL     1      20.317  13.536  -0.628  0.00  0.00    +0.007 C 
ATOM     19  C   UNL     1      19.957  14.097  -2.012  0.00  0.00    -0.008 C 
ATOM     20  C   UNL     1      19.577  12.937  -2.946  0.00  0.00    +0.007 C 
ATOM     21  C   UNL     1      22.715  13.311  -1.326  0.00  0.00    +0.034 C 
ATOM     22  C   UNL     1      21.175  14.837  -2.593  0.00  0.00    +0.034 C 
ENDBRANCH  11  13
ENDBRANCH   7   9
ENDBRANCH   6   7
ENDBRANCH   5   6
ENDBRANCH   1   5
BRANCH   2  23
ATOM     23  C   UNL     1      30.814  16.890   0.291  0.00  0.00    +0.152 C 
BRANCH  23  24
ATOM     24  C   UNL     1      30.790  15.360   0.100  0.00  0.00    +0.193 C 
ATOM     25  O   UNL     1      31.770  15.052  -0.916  0.00  0.00    -0.219 OA
BRANCH  24  26
ATOM     26  C   UNL     1      31.197  14.483   1.305  0.00  0.00    +0.212 C 
ATOM     27  O   UNL     1      31.474  15.303   2.452  0.00  0.00    -0.218 OA
BRANCH  26  28
ATOM     28  C   UNL     1      30.103  13.418   1.700  0.00  0.00    +0.171 C 
ATOM     29  O   UNL     1      28.789  13.966   1.724  0.00  0.00    -0.343 OA
ATOM     30  C   UNL     1      27.676  13.321   2.269  0.00  0.00    +0.220 C 
ATOM     31  C   UNL     1      27.954  12.811   3.693  0.00  0.00    +0.076 C 
ATOM     32  C   UNL     1      29.233  11.959   3.639  0.00  0.00    +0.177 C 
ATOM     33  O   UNL     1      29.513  11.428   4.926  0.00  0.00    -0.221 OA
ATOM     34  C   UNL     1      30.425  12.813   3.105  0.00  0.00    +0.155 C 
BRANCH  34  35
ATOM     35  N   UNL     1      31.644  12.010   3.059  0.00  0.00    -0.202 NA
ATOM     36  C   UNL     1      32.789  12.127   3.778  0.00  0.00    +0.242 C 
ATOM     37  C   UNL     1      33.776  10.989   3.742  0.00  0.00    +0.096 C 
ATOM     38  O   UNL     1      32.992  13.146   4.435  0.00  0.00    -0.273 OA
ENDBRANCH  34  35
BRANCH  30  39
ATOM     39  C   UNL     1      27.080  12.146   1.319  0.00  0.00    +0.391 C 
ATOM     40  O   UNL     1      26.255  11.440   2.117  0.00  0.00    -0.243 OA
ATOM     41  O   UNL     1      27.385  12.495   0.063  0.00  0.00    -0.243 OA
ENDBRANCH  30  39
ENDBRANCH  26  28
ENDBRANCH  24  26
ENDBRANCH  23  24
ENDBRANCH   2  23
TORSDOF 11
