REMARK VINA RESULT:    -5.949      2.601      4.104
REMARK INTER + INTRA:         -13.582
REMARK INTER:                 -11.532
REMARK INTRA:                  -2.050
REMARK UNBOUND:                -1.720
REMARK  Name = lig_assembled_54.pdb
REMARK  19 active torsions:
REMARK  status: ('A' for Active; 'I' for Inactive)
REMARK    1  A    between atoms: _2  and  _8
REMARK    2  A    between atoms: _4  and  _13
REMARK    3  A    between atoms: _5  and  _6
REMARK    4  A    between atoms: _5  and  _16
REMARK    5  A    between atoms: _8  and  _9
REMARK    6  A    between atoms: _9  and  _10
REMARK    7  A    between atoms: _10  and  _14
REMARK    8  A    between atoms: _10  and  _15
REMARK    9  A    between atoms: _11  and  _12
REMARK   10  A    between atoms: _11  and  _15
REMARK   11  A    between atoms: _13  and  _14
REMARK   12  A    between atoms: _16  and  _18
REMARK   13  A    between atoms: _17  and  _22
REMARK   14  A    between atoms: _18  and  _21
REMARK   15  A    between atoms: _26  and  _36
REMARK   16  A    between atoms: _28  and  _29
REMARK   17  A    between atoms: _30  and  _32
REMARK   18  A    between atoms: _32  and  _34
REMARK   19  A    between atoms: _34  and  _36
REMARK                            x       y       z     vdW  Elec       q    Type
REMARK                         _______ _______ _______ _____ _____    ______ ____
ROOT
ATOM      1  C   UNL     1      30.850  15.830   0.276  0.00  0.00    +0.400 C 
ATOM      2  N   UNL     1      31.455  14.693  -0.208  0.00  0.00    -0.278 N 
ATOM      3  H   UNL     1      32.282  14.552   0.454  0.00  0.00    +0.152 HD
ATOM      4  O   UNL     1      31.233  16.275   1.355  0.00  0.00    -0.226 OA
ENDROOT
BRANCH   1   5
ATOM      5  O   UNL     1      29.941  16.347  -0.483  0.00  0.00    -0.450 OA
BRANCH   5   6
ATOM      6  C   UNL     1      28.554  16.592  -0.473  0.00  0.00    +0.240 C 
BRANCH   6   7
ATOM      7  C   UNL     1      27.992  17.539  -1.550  0.00  0.00    +0.100 C 
BRANCH   7   9
ATOM      8  N   UNL     1      26.616  17.376  -3.603  0.00  0.00    -0.134 NA
ATOM      9  C   UNL     1      27.102  16.795  -2.462  0.00  0.00    +0.086 A 
ATOM     10  C   UNL     1      26.639  15.499  -2.384  0.00  0.00    +0.133 A 
ATOM     11  N   UNL     1      25.910  15.342  -3.524  0.00  0.00    -0.251 N 
ATOM     12  N   UNL     1      25.893  16.473  -4.252  0.00  0.00    -0.065 NA
BRANCH  11  13
ATOM     13  C   UNL     1      25.258  14.145  -4.017  0.00  0.00    +0.150 C 
BRANCH  13  14
ATOM     14  C   UNL     1      24.227  13.617  -3.031  0.00  0.00    +0.084 C 
BRANCH  14  15
ATOM     15  C   UNL     1      23.213  14.676  -2.583  0.00  0.00    +0.252 C 
BRANCH  15  16
ATOM     16  O   UNL     1      22.593  14.277  -1.358  0.00  0.00    -0.352 OA
BRANCH  16  17
ATOM     17  C   UNL     1      22.351  12.875  -1.255  0.00  0.00    +0.159 C 
ATOM     18  C   UNL     1      21.110  12.653  -0.414  0.00  0.00    +0.034 C 
ENDBRANCH  16  17
ENDBRANCH  15  16
BRANCH  15  19
ATOM     19  O   UNL     1      22.224  14.792  -3.614  0.00  0.00    -0.352 OA
BRANCH  19  20
ATOM     20  C   UNL     1      21.087  15.550  -3.196  0.00  0.00    +0.159 C 
ATOM     21  C   UNL     1      20.539  16.317  -4.383  0.00  0.00    +0.034 C 
ENDBRANCH  19  20
ENDBRANCH  15  19
ENDBRANCH  14  15
ENDBRANCH  13  14
ENDBRANCH  11  13
ENDBRANCH   7   9
ENDBRANCH   6   7
ENDBRANCH   5   6
ENDBRANCH   1   5
BRANCH   2  22
ATOM     22  C   UNL     1      31.464  13.610  -1.188  0.00  0.00    +0.152 C 
BRANCH  22  23
ATOM     23  C   UNL     1      32.357  12.398  -0.852  0.00  0.00    +0.193 C 
ATOM     24  O   UNL     1      32.459  11.611  -2.059  0.00  0.00    -0.219 OA
BRANCH  23  25
ATOM     25  C   UNL     1      33.822  12.679  -0.450  0.00  0.00    +0.212 C 
ATOM     26  O   UNL     1      34.244  13.957  -0.952  0.00  0.00    -0.218 OA
BRANCH  25  27
ATOM     27  C   UNL     1      34.059  12.646   1.108  0.00  0.00    +0.171 C 
ATOM     28  O   UNL     1      33.320  13.651   1.795  0.00  0.00    -0.343 OA
ATOM     29  C   UNL     1      33.525  14.004   3.131  0.00  0.00    +0.220 C 
ATOM     30  C   UNL     1      35.009  14.285   3.427  0.00  0.00    +0.076 C 
ATOM     31  C   UNL     1      35.814  13.065   2.949  0.00  0.00    +0.177 C 
ATOM     32  O   UNL     1      37.192  13.256   3.235  0.00  0.00    -0.221 OA
ATOM     33  C   UNL     1      35.579  12.829   1.424  0.00  0.00    +0.155 C 
BRANCH  33  34
ATOM     34  N   UNL     1      36.348  11.676   0.965  0.00  0.00    -0.202 NA
ATOM     35  C   UNL     1      37.369  11.613   0.072  0.00  0.00    +0.242 C 
ATOM     36  C   UNL     1      38.180  10.345   0.001  0.00  0.00    +0.096 C 
ATOM     37  O   UNL     1      37.607  12.580  -0.648  0.00  0.00    -0.273 OA
ENDBRANCH  33  34
BRANCH  29  38
ATOM     38  C   UNL     1      32.898  12.939   4.186  0.00  0.00    +0.391 C 
ATOM     39  O   UNL     1      33.499  13.215   5.359  0.00  0.00    -0.243 OA
ATOM     40  O   UNL     1      31.828  12.407   3.581  0.00  0.00    -0.243 OA
ENDBRANCH  29  38
ENDBRANCH  25  27
ENDBRANCH  23  25
ENDBRANCH  22  23
ENDBRANCH   2  22
TORSDOF 17
