REMARK VINA RESULT:    -6.568      1.786      2.197
REMARK INTER + INTRA:         -13.015
REMARK INTER:                 -11.502
REMARK INTRA:                  -1.513
REMARK UNBOUND:                -1.839
REMARK  Name = lig_assembled_61.pdb
REMARK  12 active torsions:
REMARK  status: ('A' for Active; 'I' for Inactive)
REMARK    1  A    between atoms: _2  and  _8
REMARK    2  A    between atoms: _5  and  _6
REMARK    3  A    between atoms: _5  and  _12
REMARK    4  A    between atoms: _8  and  _9
REMARK    5  A    between atoms: _12  and  _14
REMARK    6  A    between atoms: _13  and  _18
REMARK    7  A    between atoms: _14  and  _17
REMARK    8  A    between atoms: _22  and  _32
REMARK    9  A    between atoms: _24  and  _25
REMARK   10  A    between atoms: _26  and  _28
REMARK   11  A    between atoms: _28  and  _30
REMARK   12  A    between atoms: _30  and  _32
REMARK                            x       y       z     vdW  Elec       q    Type
REMARK                         _______ _______ _______ _____ _____    ______ ____
ROOT
ATOM      1  C   UNL     1      28.671  14.583   0.148  0.00  0.00    +0.152 C 
ENDROOT
BRANCH   1   3
ATOM      2  C   UNL     1      28.213  17.113  -0.764  0.00  0.00    +0.400 C 
ATOM      3  N   UNL     1      28.610  16.033  -0.012  0.00  0.00    -0.278 N 
ATOM      4  H   UNL     1      29.070  16.483   0.842  0.00  0.00    +0.152 HD
ATOM      5  O   UNL     1      28.289  18.231  -0.259  0.00  0.00    -0.226 OA
BRANCH   2   6
ATOM      6  O   UNL     1      27.819  16.844  -1.966  0.00  0.00    -0.450 OA
BRANCH   6   7
ATOM      7  C   UNL     1      27.047  17.423  -2.992  0.00  0.00    +0.240 C 
BRANCH   7   8
ATOM      8  C   UNL     1      26.348  16.470  -3.979  0.00  0.00    +0.100 C 
BRANCH   8  10
ATOM      9  N   UNL     1      26.243  14.050  -3.469  0.00  0.00    -0.134 NA
ATOM     10  C   UNL     1      25.768  15.319  -3.262  0.00  0.00    +0.086 A 
ATOM     11  C   UNL     1      24.746  15.274  -2.338  0.00  0.00    +0.134 A 
ATOM     12  N   UNL     1      24.611  13.944  -2.068  0.00  0.00    -0.247 N 
ATOM     13  N   UNL     1      25.538  13.216  -2.716  0.00  0.00    -0.065 NA
BRANCH  12  14
ATOM     14  C   UNL     1      23.657  13.300  -1.182  0.00  0.00    +0.180 C 
BRANCH  14  15
ATOM     15  C   UNL     1      22.284  13.234  -1.793  0.00  0.00    -0.019 A 
ATOM     16  C   UNL     1      21.336  14.314  -1.783  0.00  0.00    +0.013 A 
ATOM     17  C   UNL     1      20.139  13.977  -2.376  0.00  0.00    +0.045 A 
ATOM     18  S   UNL     1      20.143  12.374  -2.963  0.00  0.00    -0.105 S 
ATOM     19  C   UNL     1      21.741  12.121  -2.413  0.00  0.00    +0.050 A 
ENDBRANCH  14  15
ENDBRANCH  12  14
ENDBRANCH   8  10
ENDBRANCH   7   8
ENDBRANCH   6   7
ENDBRANCH   2   6
ENDBRANCH   1   3
BRANCH   1  20
ATOM     20  C   UNL     1      30.078  13.978   0.335  0.00  0.00    +0.193 C 
ATOM     21  O   UNL     1      29.934  12.546   0.212  0.00  0.00    -0.219 OA
BRANCH  20  22
ATOM     22  C   UNL     1      31.159  14.348  -0.704  0.00  0.00    +0.212 C 
ATOM     23  O   UNL     1      31.497  15.741  -0.603  0.00  0.00    -0.218 OA
BRANCH  22  24
ATOM     24  C   UNL     1      32.479  13.499  -0.560  0.00  0.00    +0.171 C 
ATOM     25  O   UNL     1      33.299  13.938   0.518  0.00  0.00    -0.343 OA
ATOM     26  C   UNL     1      34.620  13.530   0.721  0.00  0.00    +0.220 C 
ATOM     27  C   UNL     1      35.467  13.688  -0.554  0.00  0.00    +0.076 C 
ATOM     28  C   UNL     1      34.732  12.959  -1.691  0.00  0.00    +0.177 C 
ATOM     29  O   UNL     1      35.495  13.040  -2.887  0.00  0.00    -0.221 OA
ATOM     30  C   UNL     1      33.307  13.565  -1.885  0.00  0.00    +0.155 C 
BRANCH  30  31
ATOM     31  N   UNL     1      32.608  12.880  -2.969  0.00  0.00    -0.202 NA
ATOM     32  C   UNL     1      32.626  13.124  -4.304  0.00  0.00    +0.242 C 
ATOM     33  C   UNL     1      32.048  12.085  -5.230  0.00  0.00    +0.096 C 
ATOM     34  O   UNL     1      33.109  14.175  -4.723  0.00  0.00    -0.273 OA
ENDBRANCH  30  31
BRANCH  26  35
ATOM     35  C   UNL     1      34.747  12.034   1.341  0.00  0.00    +0.391 C 
ATOM     36  O   UNL     1      36.005  11.645   1.055  0.00  0.00    -0.243 OA
ATOM     37  O   UNL     1      33.689  11.877   2.146  0.00  0.00    -0.243 OA
ENDBRANCH  26  35
ENDBRANCH  22  24
ENDBRANCH  20  22
ENDBRANCH   1  20
TORSDOF 12
