REMARK VINA RESULT:    -6.857      2.294      9.337
REMARK INTER + INTRA:         -16.051
REMARK INTER:                 -13.472
REMARK INTRA:                  -2.580
REMARK UNBOUND:                -2.580
REMARK  Name = lig_assembled_90.pdb
REMARK  17 active torsions:
REMARK  status: ('A' for Active; 'I' for Inactive)
REMARK    1  A    between atoms: _2  and  _12
REMARK    2  A    between atoms: _3  and  _14
REMARK    3  A    between atoms: _4  and  _16
REMARK    4  A    between atoms: _9  and  _10
REMARK    5  A    between atoms: _9  and  _23
REMARK    6  A    between atoms: _12  and  _13
REMARK    7  A    between atoms: _14  and  _15
REMARK    8  A    between atoms: _15  and  _16
REMARK    9  A    between atoms: _15  and  _21
REMARK   10  A    between atoms: _23  and  _25
REMARK   11  A    between atoms: _24  and  _29
REMARK   12  A    between atoms: _25  and  _28
REMARK   13  A    between atoms: _33  and  _43
REMARK   14  A    between atoms: _35  and  _36
REMARK   15  A    between atoms: _37  and  _39
REMARK   16  A    between atoms: _39  and  _41
REMARK   17  A    between atoms: _41  and  _43
REMARK                            x       y       z     vdW  Elec       q    Type
REMARK                         _______ _______ _______ _____ _____    ______ ____
ROOT
ATOM      1  C   UNL     1      29.160  13.605   0.996  0.00  0.00    +0.240 C 
ENDROOT
BRANCH   1   2
ATOM      2  O   UNL     1      28.725  13.762   2.327  0.00  0.00    -0.450 OA
BRANCH   2   3
ATOM      3  C   UNL     1      28.102  13.092   3.240  0.00  0.00    +0.400 C 
ATOM      4  N   UNL     1      28.723  11.940   3.661  0.00  0.00    -0.278 N 
ATOM      5  H   UNL     1      28.162  11.659   4.526  0.00  0.00    +0.152 HD
ATOM      6  O   UNL     1      27.041  13.406   3.773  0.00  0.00    -0.226 OA
BRANCH   4   7
ATOM      7  C   UNL     1      29.771  10.944   3.453  0.00  0.00    +0.152 C 
BRANCH   7   8
ATOM      8  C   UNL     1      31.199  11.491   3.254  0.00  0.00    +0.193 C 
ATOM      9  O   UNL     1      31.927  11.204   4.469  0.00  0.00    -0.219 OA
BRANCH   8  10
ATOM     10  C   UNL     1      32.057  10.862   2.134  0.00  0.00    +0.212 C 
ATOM     11  O   UNL     1      31.468   9.632   1.682  0.00  0.00    -0.218 OA
BRANCH  10  12
ATOM     12  C   UNL     1      32.255  11.812   0.891  0.00  0.00    +0.171 C 
ATOM     13  O   UNL     1      32.285  11.101  -0.342  0.00  0.00    -0.343 OA
ATOM     14  C   UNL     1      32.685  11.654  -1.561  0.00  0.00    +0.220 C 
ATOM     15  C   UNL     1      34.043  12.369  -1.444  0.00  0.00    +0.076 C 
ATOM     16  C   UNL     1      33.941  13.370  -0.281  0.00  0.00    +0.177 C 
ATOM     17  O   UNL     1      35.161  14.087  -0.155  0.00  0.00    -0.221 OA
ATOM     18  C   UNL     1      33.584  12.623   1.041  0.00  0.00    +0.155 C 
BRANCH  18  19
ATOM     19  N   UNL     1      33.492  13.569   2.150  0.00  0.00    -0.202 NA
ATOM     20  C   UNL     1      34.235  13.653   3.283  0.00  0.00    +0.242 C 
ATOM     21  C   UNL     1      34.126  14.901   4.119  0.00  0.00    +0.096 C 
ATOM     22  O   UNL     1      34.972  12.720   3.596  0.00  0.00    -0.273 OA
ENDBRANCH  18  19
BRANCH  14  23
ATOM     23  C   UNL     1      31.562  12.614  -2.236  0.00  0.00    +0.391 C 
ATOM     24  O   UNL     1      32.251  13.431  -3.056  0.00  0.00    -0.243 OA
ATOM     25  O   UNL     1      30.380  12.047  -1.965  0.00  0.00    -0.243 OA
ENDBRANCH  14  23
ENDBRANCH  10  12
ENDBRANCH   8  10
ENDBRANCH   7   8
ENDBRANCH   4   7
ENDBRANCH   2   3
ENDBRANCH   1   2
BRANCH   1  26
ATOM     26  C   UNL     1      30.243  14.573   0.484  0.00  0.00    +0.100 C 
BRANCH  26  28
ATOM     27  N   UNL     1      30.270  16.948  -0.230  0.00  0.00    -0.134 NA
ATOM     28  C   UNL     1      29.623  15.740  -0.172  0.00  0.00    +0.086 A 
ATOM     29  C   UNL     1      28.401  15.855  -0.794  0.00  0.00    +0.134 A 
ATOM     30  N   UNL     1      28.372  17.146  -1.228  0.00  0.00    -0.243 N 
ATOM     31  N   UNL     1      29.487  17.807  -0.872  0.00  0.00    -0.065 NA
BRANCH  30  32
ATOM     32  C   UNL     1      27.291  17.846  -1.882  0.00  0.00    +0.240 C 
BRANCH  32  33
ATOM     33  C   UNL     1      26.508  16.924  -2.788  0.00  0.00    +0.235 C 
ATOM     34  O   UNL     1      26.822  16.719  -3.959  0.00  0.00    -0.274 OA
ATOM     35  N   UNL     1      25.440  16.279  -2.191  0.00  0.00    -0.311 N 
ATOM     36  H   UNL     1      25.052  16.669  -1.335  0.00  0.00    +0.149 HD
BRANCH  35  37
ATOM     37  C   UNL     1      24.557  15.430  -2.978  0.00  0.00    +0.137 C 
BRANCH  37  38
ATOM     38  C   UNL     1      23.430  14.849  -2.111  0.00  0.00    +0.151 C 
BRANCH  38  39
ATOM     39  O   UNL     1      22.203  15.506  -2.453  0.00  0.00    -0.388 OA
ATOM     40  H   UNL     1      22.013  16.192  -1.783  0.00  0.00    +0.210 HD
ENDBRANCH  38  39
BRANCH  38  41
ATOM     41  C   UNL     1      23.312  13.328  -2.280  0.00  0.00    +0.162 C 
BRANCH  41  42
ATOM     42  N   UNL     1      22.716  12.683  -1.119  0.00  0.00    -0.269 N 
ATOM     43  C   UNL     1      21.354  12.564  -0.943  0.00  0.00    +0.113 A 
ATOM     44  C   UNL     1      21.188  11.946   0.274  0.00  0.00    +0.137 A 
ATOM     45  N   UNL     1      22.402  11.686   0.853  0.00  0.00    -0.172 NA
ATOM     46  C   UNL     1      23.304  12.127  -0.010  0.00  0.00    +0.450 A 
ATOM     47  N   UNL     1      24.722  12.024   0.236  0.00  0.00    +0.120 N 
ATOM     48  O   UNL     1      25.490  12.365  -0.674  0.00  0.00    +0.045 OA
ATOM     49  O   UNL     1      25.077  11.610   1.347  0.00  0.00    -0.573 OA
ENDBRANCH  41  42
ENDBRANCH  38  41
ENDBRANCH  37  38
ENDBRANCH  35  37
ENDBRANCH  32  33
ENDBRANCH  30  32
ENDBRANCH  26  28
ENDBRANCH   1  26
TORSDOF 17
