REMARK VINA RESULT:    -6.736      2.247      3.074
REMARK INTER + INTRA:         -13.219
REMARK INTER:                 -11.878
REMARK INTRA:                  -1.341
REMARK UNBOUND:                -2.544
REMARK  Name = lig_assembled_65.pdb
REMARK  11 active torsions:
REMARK  status: ('A' for Active; 'I' for Inactive)
REMARK    1  A    between atoms: _8  and  _14
REMARK    2  A    between atoms: _9  and  _10
REMARK    3  A    between atoms: _9  and  _15
REMARK    4  A    between atoms: _15  and  _17
REMARK    5  A    between atoms: _16  and  _21
REMARK    6  A    between atoms: _17  and  _20
REMARK    7  A    between atoms: _25  and  _35
REMARK    8  A    between atoms: _27  and  _28
REMARK    9  A    between atoms: _29  and  _31
REMARK   10  A    between atoms: _31  and  _33
REMARK   11  A    between atoms: _33  and  _35
REMARK                            x       y       z     vdW  Elec       q    Type
REMARK                         _______ _______ _______ _____ _____    ______ ____
ROOT
ATOM      1  C   UNL     1      27.777  17.654  -1.211  0.00  0.00    +0.400 C 
ATOM      2  N   UNL     1      28.352  16.772  -0.326  0.00  0.00    -0.278 N 
ATOM      3  H   UNL     1      28.520  17.370   0.544  0.00  0.00    +0.152 HD
ATOM      4  O   UNL     1      27.441  18.759  -0.792  0.00  0.00    -0.226 OA
ENDROOT
BRANCH   1   5
ATOM      5  O   UNL     1      27.672  17.235  -2.429  0.00  0.00    -0.450 OA
BRANCH   5   6
ATOM      6  C   UNL     1      26.763  17.294  -3.504  0.00  0.00    +0.240 C 
BRANCH   6   7
ATOM      7  C   UNL     1      26.383  15.966  -4.187  0.00  0.00    +0.100 C 
BRANCH   7   9
ATOM      8  N   UNL     1      26.361  14.185  -2.467  0.00  0.00    -0.134 NA
ATOM      9  C   UNL     1      25.678  15.083  -3.238  0.00  0.00    +0.087 A 
ATOM     10  C   UNL     1      24.336  14.984  -2.960  0.00  0.00    +0.146 A 
ATOM     11  N   UNL     1      24.243  13.994  -2.006  0.00  0.00    -0.155 N 
ATOM     12  C   UNL     1      23.055  13.496  -1.395  0.00  0.00    +0.416 C 
ATOM     13  N   UNL     1      23.163  12.525  -0.479  0.00  0.00    +0.041 NA
ATOM     14  C   UNL     1      22.010  12.103   0.034  0.00  0.00    +0.339 C 
ATOM     15  C   UNL     1      22.065  11.008   1.054  0.00  0.00    +0.149 C 
ATOM     16  N   UNL     1      20.812  12.578  -0.306  0.00  0.00    +0.007 NA
ATOM     17  C   UNL     1      20.814  13.526  -1.230  0.00  0.00    +0.386 C 
ATOM     18  N   UNL     1      19.594  14.036  -1.619  0.00  0.00    -0.296 N 
ATOM     19  H   UNL     1      18.896  13.879  -0.905  0.00  0.00    +0.148 HD
ATOM     20  H   UNL     1      19.687  14.974  -1.983  0.00  0.00    +0.148 HD
ATOM     21  N   UNL     1      21.895  14.038  -1.792  0.00  0.00    -0.290 NA
ATOM     22  N   UNL     1      25.484  13.527  -1.716  0.00  0.00    -0.056 NA
ENDBRANCH   7   9
ENDBRANCH   6   7
ENDBRANCH   5   6
ENDBRANCH   1   5
BRANCH   2  23
ATOM     23  C   UNL     1      28.811  15.415  -0.043  0.00  0.00    +0.152 C 
BRANCH  23  24
ATOM     24  C   UNL     1      30.337  15.193  -0.080  0.00  0.00    +0.193 C 
ATOM     25  O   UNL     1      30.948  16.502  -0.067  0.00  0.00    -0.219 OA
BRANCH  24  26
ATOM     26  C   UNL     1      30.982  14.456   1.115  0.00  0.00    +0.212 C 
ATOM     27  O   UNL     1      31.313  15.385   2.159  0.00  0.00    -0.218 OA
BRANCH  26  28
ATOM     28  C   UNL     1      30.065  13.325   1.719  0.00  0.00    +0.171 C 
ATOM     29  O   UNL     1      30.023  13.355   3.141  0.00  0.00    -0.343 OA
ATOM     30  C   UNL     1      29.493  12.336   3.936  0.00  0.00    +0.220 C 
ATOM     31  C   UNL     1      30.064  10.959   3.554  0.00  0.00    +0.076 C 
ATOM     32  C   UNL     1      29.855  10.776   2.042  0.00  0.00    +0.177 C 
ATOM     33  O   UNL     1      30.331   9.498   1.642  0.00  0.00    -0.221 OA
ATOM     34  C   UNL     1      30.571  11.919   1.257  0.00  0.00    +0.155 C 
BRANCH  34  35
ATOM     35  N   UNL     1      30.381  11.744  -0.180  0.00  0.00    -0.202 NA
ATOM     36  C   UNL     1      29.241  11.787  -0.916  0.00  0.00    +0.242 C 
ATOM     37  C   UNL     1      29.361  11.868  -2.416  0.00  0.00    +0.096 C 
ATOM     38  O   UNL     1      28.151  11.762  -0.350  0.00  0.00    -0.273 OA
ENDBRANCH  34  35
BRANCH  30  39
ATOM     39  C   UNL     1      27.869  12.320   3.971  0.00  0.00    +0.391 C 
ATOM     40  O   UNL     1      27.502  13.568   3.622  0.00  0.00    -0.243 OA
ATOM     41  O   UNL     1      27.513  11.031   4.032  0.00  0.00    -0.243 OA
ENDBRANCH  30  39
ENDBRANCH  26  28
ENDBRANCH  24  26
ENDBRANCH  23  24
ENDBRANCH   2  23
TORSDOF 10
