REMARK VINA RESULT:    -8.114      1.361      3.108
REMARK INTER + INTRA:         -15.094
REMARK INTER:                 -13.580
REMARK INTRA:                  -1.515
REMARK UNBOUND:                -1.762
REMARK  Name = lig_assembled_25.pdb
REMARK  11 active torsions:
REMARK  status: ('A' for Active; 'I' for Inactive)
REMARK    1  A    between atoms: _2  and  _8
REMARK    2  A    between atoms: _5  and  _6
REMARK    3  A    between atoms: _5  and  _20
REMARK    4  A    between atoms: _20  and  _22
REMARK    5  A    between atoms: _21  and  _26
REMARK    6  A    between atoms: _22  and  _25
REMARK    7  A    between atoms: _30  and  _40
REMARK    8  A    between atoms: _32  and  _33
REMARK    9  A    between atoms: _34  and  _36
REMARK   10  A    between atoms: _36  and  _38
REMARK   11  A    between atoms: _38  and  _40
REMARK                            x       y       z     vdW  Elec       q    Type
REMARK                         _______ _______ _______ _____ _____    ______ ____
ROOT
ATOM      1  C   UNL     1      28.480  16.991  -0.619  0.00  0.00    +0.400 C 
ATOM      2  N   UNL     1      28.673  15.902   0.197  0.00  0.00    -0.278 N 
ATOM      3  H   UNL     1      29.255  16.297   1.002  0.00  0.00    +0.152 HD
ATOM      4  O   UNL     1      28.812  18.096  -0.199  0.00  0.00    -0.226 OA
ENDROOT
BRANCH   1   5
ATOM      5  O   UNL     1      27.985  16.735  -1.786  0.00  0.00    -0.450 OA
BRANCH   5   6
ATOM      6  C   UNL     1      27.134  17.328  -2.739  0.00  0.00    +0.240 C 
BRANCH   6   7
ATOM      7  C   UNL     1      26.676  16.457  -3.924  0.00  0.00    +0.100 C 
BRANCH   7   9
ATOM      8  N   UNL     1      24.803  14.960  -4.516  0.00  0.00    -0.134 NA
ATOM      9  C   UNL     1      25.447  15.719  -3.576  0.00  0.00    +0.086 A 
ATOM     10  C   UNL     1      24.751  15.656  -2.390  0.00  0.00    +0.134 A 
ATOM     11  N   UNL     1      23.679  14.855  -2.673  0.00  0.00    -0.240 N 
ATOM     12  N   UNL     1      23.725  14.431  -3.956  0.00  0.00    -0.065 NA
BRANCH  11  13
ATOM     13  C   UNL     1      22.534  14.503  -1.851  0.00  0.00    +0.170 C 
ATOM     14  C   UNL     1      22.564  13.048  -1.403  0.00  0.00    -0.011 A 
ATOM     15  C   UNL     1      21.371  12.400  -1.793  0.00  0.00    -0.012 A 
ATOM     16  C   UNL     1      20.534  13.343  -2.507  0.00  0.00    -0.012 A 
ATOM     17  C   UNL     1      19.268  13.187  -3.047  0.00  0.00    +0.009 A 
ATOM     18  C   UNL     1      18.669  14.289  -3.664  0.00  0.00    +0.001 A 
ATOM     19  C   UNL     1      19.335  15.524  -3.739  0.00  0.00    +0.000 A 
ATOM     20  C   UNL     1      20.612  15.684  -3.196  0.00  0.00    +0.006 A 
ATOM     21  C   UNL     1      21.159  11.069  -1.474  0.00  0.00    +0.009 A 
ATOM     22  C   UNL     1      22.151  10.391  -0.758  0.00  0.00    +0.001 A 
ATOM     23  C   UNL     1      23.334  11.042  -0.369  0.00  0.00    +0.000 A 
ATOM     24  C   UNL     1      23.548  12.383  -0.687  0.00  0.00    +0.006 A 
ATOM     25  C   UNL     1      21.202  14.587  -2.585  0.00  0.00    -0.011 A 
ENDBRANCH  11  13
ENDBRANCH   7   9
ENDBRANCH   6   7
ENDBRANCH   5   6
ENDBRANCH   1   5
BRANCH   2  26
ATOM     26  C   UNL     1      28.434  14.485   0.460  0.00  0.00    +0.152 C 
BRANCH  26  27
ATOM     27  C   UNL     1      28.553  14.037   1.931  0.00  0.00    +0.193 C 
ATOM     28  O   UNL     1      27.433  13.162   2.191  0.00  0.00    -0.219 OA
BRANCH  27  29
ATOM     29  C   UNL     1      29.792  13.203   2.325  0.00  0.00    +0.212 C 
ATOM     30  O   UNL     1      29.582  11.815   2.019  0.00  0.00    -0.218 OA
BRANCH  29  31
ATOM     31  C   UNL     1      31.117  13.680   1.617  0.00  0.00    +0.171 C 
ATOM     32  O   UNL     1      31.062  13.542   0.201  0.00  0.00    -0.343 OA
ATOM     33  C   UNL     1      32.167  13.657  -0.646  0.00  0.00    +0.220 C 
ATOM     34  C   UNL     1      33.340  12.779  -0.175  0.00  0.00    +0.076 C 
ATOM     35  C   UNL     1      33.614  13.126   1.297  0.00  0.00    +0.177 C 
ATOM     36  O   UNL     1      34.719  12.369   1.772  0.00  0.00    -0.221 OA
ATOM     37  C   UNL     1      32.339  12.867   2.158  0.00  0.00    +0.155 C 
BRANCH  37  38
ATOM     38  N   UNL     1      32.598  13.188   3.559  0.00  0.00    -0.202 NA
ATOM     39  C   UNL     1      32.642  12.372   4.642  0.00  0.00    +0.242 C 
ATOM     40  C   UNL     1      33.221  12.914   5.923  0.00  0.00    +0.096 C 
ATOM     41  O   UNL     1      32.216  11.222   4.555  0.00  0.00    -0.273 OA
ENDBRANCH  37  38
BRANCH  33  42
ATOM     42  C   UNL     1      32.633  15.192  -0.897  0.00  0.00    +0.391 C 
ATOM     43  O   UNL     1      33.771  15.098  -1.612  0.00  0.00    -0.243 OA
ATOM     44  O   UNL     1      31.581  15.956  -0.575  0.00  0.00    -0.243 OA
ENDBRANCH  33  42
ENDBRANCH  29  31
ENDBRANCH  27  29
ENDBRANCH  26  27
ENDBRANCH   2  26
TORSDOF 11
