REMARK VINA RESULT:    -6.611      1.742      3.084
REMARK INTER + INTRA:         -14.760
REMARK INTER:                 -12.929
REMARK INTRA:                  -1.831
REMARK UNBOUND:                -1.965
REMARK  Name = lig_assembled_11.pdb
REMARK  17 active torsions:
REMARK  status: ('A' for Active; 'I' for Inactive)
REMARK    1  A    between atoms: _2  and  _8
REMARK    2  A    between atoms: _4  and  _8
REMARK    3  A    between atoms: _4  and  _12
REMARK    4  A    between atoms: _5  and  _6
REMARK    5  A    between atoms: _5  and  _16
REMARK    6  A    between atoms: _8  and  _9
REMARK    7  A    between atoms: _9  and  _10
REMARK    8  A    between atoms: _10  and  _11
REMARK    9  A    between atoms: _11  and  _14
REMARK   10  A    between atoms: _16  and  _18
REMARK   11  A    between atoms: _17  and  _22
REMARK   12  A    between atoms: _18  and  _21
REMARK   13  A    between atoms: _26  and  _36
REMARK   14  A    between atoms: _28  and  _29
REMARK   15  A    between atoms: _30  and  _32
REMARK   16  A    between atoms: _32  and  _34
REMARK   17  A    between atoms: _34  and  _36
REMARK                            x       y       z     vdW  Elec       q    Type
REMARK                         _______ _______ _______ _____ _____    ______ ____
ROOT
ATOM      1  C   UNL     1      27.912  17.376  -0.726  0.00  0.00    +0.400 C 
ATOM      2  N   UNL     1      28.557  16.404   0.002  0.00  0.00    -0.278 N 
ATOM      3  H   UNL     1      28.755  16.885   0.935  0.00  0.00    +0.152 HD
ATOM      4  O   UNL     1      27.570  18.403  -0.146  0.00  0.00    -0.226 OA
ENDROOT
BRANCH   1   5
ATOM      5  O   UNL     1      27.753  17.121  -1.984  0.00  0.00    -0.450 OA
BRANCH   5   6
ATOM      6  C   UNL     1      26.838  17.389  -3.021  0.00  0.00    +0.240 C 
BRANCH   6   7
ATOM      7  C   UNL     1      26.787  16.395  -4.197  0.00  0.00    +0.100 C 
BRANCH   7   9
ATOM      8  N   UNL     1      25.100  14.984  -5.331  0.00  0.00    -0.134 NA
ATOM      9  C   UNL     1      25.475  15.722  -4.244  0.00  0.00    +0.086 A 
ATOM     10  C   UNL     1      24.467  15.687  -3.308  0.00  0.00    +0.134 A 
ATOM     11  N   UNL     1      23.483  14.950  -3.899  0.00  0.00    -0.238 N 
ATOM     12  N   UNL     1      23.884  14.504  -5.106  0.00  0.00    -0.065 NA
BRANCH  11  13
ATOM     13  C   UNL     1      22.202  14.488  -3.374  0.00  0.00    +0.217 C 
BRANCH  13  14
ATOM     14  C   UNL     1      21.016  15.324  -3.829  0.00  0.00    +0.330 C 
ATOM     15  O   UNL     1      19.922  15.371  -3.285  0.00  0.00    -0.249 OA
BRANCH  14  16
ATOM     16  O   UNL     1      21.253  16.057  -4.946  0.00  0.00    -0.479 OA
ATOM     17  H   UNL     1      20.650  15.922  -5.703  0.00  0.00    +0.295 HD
ENDBRANCH  14  16
ENDBRANCH  13  14
BRANCH  13  18
ATOM     18  C   UNL     1      22.243  14.297  -1.847  0.00  0.00    +0.049 C 
BRANCH  18  19
ATOM     19  C   UNL     1      22.276  12.836  -1.380  0.00  0.00    +0.123 C 
BRANCH  19  20
ATOM     20  C   UNL     1      23.516  12.558  -0.561  0.00  0.00    +0.305 C 
ATOM     21  O   UNL     1      23.614  11.673   0.275  0.00  0.00    -0.251 OA
BRANCH  20  22
ATOM     22  O   UNL     1      24.522  13.418  -0.831  0.00  0.00    -0.481 OA
ATOM     23  H   UNL     1      25.407  13.008  -0.870  0.00  0.00    +0.295 HD
ENDBRANCH  20  22
ENDBRANCH  19  20
ENDBRANCH  18  19
ENDBRANCH  13  18
ENDBRANCH  11  13
ENDBRANCH   7   9
ENDBRANCH   6   7
ENDBRANCH   5   6
ENDBRANCH   1   5
BRANCH   2  24
ATOM     24  C   UNL     1      29.067  15.037   0.075  0.00  0.00    +0.152 C 
BRANCH  24  25
ATOM     25  C   UNL     1      30.599  14.888   0.174  0.00  0.00    +0.193 C 
ATOM     26  O   UNL     1      31.021  15.682   1.305  0.00  0.00    -0.219 OA
BRANCH  25  27
ATOM     27  C   UNL     1      31.163  13.479   0.462  0.00  0.00    +0.212 C 
ATOM     28  O   UNL     1      32.113  13.103  -0.548  0.00  0.00    -0.218 OA
BRANCH  27  29
ATOM     29  C   UNL     1      31.854  13.359   1.873  0.00  0.00    +0.171 C 
ATOM     30  O   UNL     1      33.204  12.916   1.786  0.00  0.00    -0.343 OA
ATOM     31  C   UNL     1      33.967  12.493   2.878  0.00  0.00    +0.220 C 
ATOM     32  C   UNL     1      33.224  11.442   3.720  0.00  0.00    +0.076 C 
ATOM     33  C   UNL     1      31.847  12.025   4.080  0.00  0.00    +0.177 C 
ATOM     34  O   UNL     1      31.133  11.107   4.894  0.00  0.00    -0.221 OA
ATOM     35  C   UNL     1      31.053  12.368   2.781  0.00  0.00    +0.155 C 
BRANCH  35  36
ATOM     36  N   UNL     1      29.742  12.916   3.118  0.00  0.00    -0.202 NA
ATOM     37  C   UNL     1      28.503  12.452   2.814  0.00  0.00    +0.242 C 
ATOM     38  C   UNL     1      27.320  13.046   3.534  0.00  0.00    +0.096 C 
ATOM     39  O   UNL     1      28.376  11.568   1.969  0.00  0.00    -0.273 OA
ENDBRANCH  35  36
BRANCH  31  40
ATOM     40  C   UNL     1      34.514  13.716   3.797  0.00  0.00    +0.391 C 
ATOM     41  O   UNL     1      34.400  13.276   5.065  0.00  0.00    -0.243 OA
ATOM     42  O   UNL     1      35.139  14.555   2.961  0.00  0.00    -0.243 OA
ENDBRANCH  31  40
ENDBRANCH  27  29
ENDBRANCH  25  27
ENDBRANCH  24  25
ENDBRANCH   2  24
TORSDOF 17
