REMARK VINA RESULT:    -6.913      1.443      2.034
REMARK INTER + INTRA:         -13.633
REMARK INTER:                 -11.955
REMARK INTRA:                  -1.678
REMARK UNBOUND:                -1.466
REMARK  Name = lig_assembled_78.pdb
REMARK  13 active torsions:
REMARK  status: ('A' for Active; 'I' for Inactive)
REMARK    1  A    between atoms: _2  and  _8
REMARK    2  A    between atoms: _5  and  _6
REMARK    3  A    between atoms: _5  and  _16
REMARK    4  A    between atoms: _8  and  _44
REMARK    5  A    between atoms: _9  and  _44
REMARK    6  A    between atoms: _16  and  _18
REMARK    7  A    between atoms: _17  and  _22
REMARK    8  A    between atoms: _18  and  _21
REMARK    9  A    between atoms: _26  and  _36
REMARK   10  A    between atoms: _28  and  _29
REMARK   11  A    between atoms: _30  and  _32
REMARK   12  A    between atoms: _32  and  _34
REMARK   13  A    between atoms: _34  and  _36
REMARK                            x       y       z     vdW  Elec       q    Type
REMARK                         _______ _______ _______ _____ _____    ______ ____
ROOT
ATOM      1  C   UNL     1      28.260  17.092  -0.812  0.00  0.00    +0.400 C 
ATOM      2  N   UNL     1      28.517  15.884  -0.205  0.00  0.00    -0.278 N 
ATOM      3  H   UNL     1      28.980  16.164   0.716  0.00  0.00    +0.152 HD
ATOM      4  O   UNL     1      28.422  18.116  -0.154  0.00  0.00    -0.226 OA
ENDROOT
BRANCH   2   5
ATOM      5  C   UNL     1      28.429  14.427  -0.248  0.00  0.00    +0.152 C 
BRANCH   5   6
ATOM      6  C   UNL     1      28.782  13.686   1.058  0.00  0.00    +0.193 C 
ATOM      7  O   UNL     1      27.554  13.557   1.807  0.00  0.00    -0.219 OA
BRANCH   6   8
ATOM      8  C   UNL     1      29.315  12.241   0.939  0.00  0.00    +0.212 C 
ATOM      9  O   UNL     1      29.618  11.929  -0.431  0.00  0.00    -0.218 OA
BRANCH   8  10
ATOM     10  C   UNL     1      30.600  11.975   1.812  0.00  0.00    +0.171 C 
ATOM     11  O   UNL     1      30.287  11.631   3.157  0.00  0.00    -0.343 OA
ATOM     12  C   UNL     1      31.219  11.582   4.196  0.00  0.00    +0.220 C 
ATOM     13  C   UNL     1      32.060  12.868   4.268  0.00  0.00    +0.076 C 
ATOM     14  C   UNL     1      32.658  13.109   2.872  0.00  0.00    +0.177 C 
ATOM     15  O   UNL     1      33.480  14.268   2.894  0.00  0.00    -0.221 OA
ATOM     16  C   UNL     1      31.519  13.241   1.815  0.00  0.00    +0.155 C 
BRANCH  16  17
ATOM     17  N   UNL     1      32.083  13.477   0.488  0.00  0.00    -0.202 NA
ATOM     18  C   UNL     1      32.185  14.631  -0.219  0.00  0.00    +0.242 C 
ATOM     19  C   UNL     1      33.074  14.648  -1.435  0.00  0.00    +0.096 C 
ATOM     20  O   UNL     1      31.558  15.624   0.145  0.00  0.00    -0.273 OA
ENDBRANCH  16  17
BRANCH  12  21
ATOM     21  C   UNL     1      32.157  10.256   4.162  0.00  0.00    +0.391 C 
ATOM     22  O   UNL     1      33.156  10.515   5.029  0.00  0.00    -0.243 OA
ATOM     23  O   UNL     1      31.442   9.313   3.537  0.00  0.00    -0.243 OA
ENDBRANCH  12  21
ENDBRANCH   8  10
ENDBRANCH   6   8
ENDBRANCH   5   6
ENDBRANCH   2   5
BRANCH   1  24
ATOM     24  O   UNL     1      27.896  17.030  -2.050  0.00  0.00    -0.450 OA
BRANCH  24  25
ATOM     25  C   UNL     1      26.793  17.371  -2.858  0.00  0.00    +0.240 C 
BRANCH  25  26
ATOM     26  C   UNL     1      26.543  16.520  -4.117  0.00  0.00    +0.100 C 
BRANCH  26  28
ATOM     27  N   UNL     1      26.527  14.227  -3.175  0.00  0.00    -0.134 NA
ATOM     28  C   UNL     1      25.853  15.266  -3.759  0.00  0.00    +0.086 A 
ATOM     29  C   UNL     1      24.531  14.912  -3.915  0.00  0.00    +0.135 A 
ATOM     30  N   UNL     1      24.455  13.674  -3.353  0.00  0.00    -0.230 N 
ATOM     31  N   UNL     1      25.664  13.247  -2.951  0.00  0.00    -0.064 NA
BRANCH  30  32
ATOM     32  C   UNL     1      23.308  12.808  -3.233  0.00  0.00    +0.316 C 
BRANCH  32  33
ATOM     33  S   UNL     1      22.066  13.422  -2.125  0.00  0.00    +0.017 S 
ATOM     34  O   UNL     1      22.345  14.806  -1.790  0.00  0.00    -0.168 OA
ATOM     35  O   UNL     1      20.768  13.029  -2.646  0.00  0.00    -0.168 OA
BRANCH  33  36
ATOM     36  C   UNL     1      22.326  12.499  -0.625  0.00  0.00    +0.090 A 
ATOM     37  C   UNL     1      23.605  12.014  -0.334  0.00  0.00    +0.027 A 
ATOM     38  C   UNL     1      23.818  11.312   0.852  0.00  0.00    +0.002 A 
ATOM     39  C   UNL     1      22.764  11.114   1.745  0.00  0.00    +0.000 A 
ATOM     40  C   UNL     1      21.495  11.617   1.459  0.00  0.00    +0.002 A 
ATOM     41  C   UNL     1      21.270  12.312   0.270  0.00  0.00    +0.027 A 
ENDBRANCH  33  36
ENDBRANCH  32  33
ENDBRANCH  30  32
ENDBRANCH  26  28
ENDBRANCH  25  26
ENDBRANCH  24  25
ENDBRANCH   1  24
TORSDOF 13
