REMARK VINA RESULT:    -7.800      2.593      8.799
REMARK INTER + INTRA:         -14.775
REMARK INTER:                 -12.372
REMARK INTRA:                  -2.403
REMARK UNBOUND:                -1.503
REMARK  Name = lig_assembled_89.pdb
REMARK  14 active torsions:
REMARK  status: ('A' for Active; 'I' for Inactive)
REMARK    1  A    between atoms: _2  and  _11
REMARK    2  A    between atoms: _5  and  _19
REMARK    3  A    between atoms: _8  and  _9
REMARK    4  A    between atoms: _8  and  _24
REMARK    5  A    between atoms: _19  and  _20
REMARK    6  A    between atoms: _19  and  _21
REMARK    7  A    between atoms: _24  and  _26
REMARK    8  A    between atoms: _25  and  _30
REMARK    9  A    between atoms: _26  and  _29
REMARK   10  A    between atoms: _34  and  _44
REMARK   11  A    between atoms: _36  and  _37
REMARK   12  A    between atoms: _38  and  _40
REMARK   13  A    between atoms: _40  and  _42
REMARK   14  A    between atoms: _42  and  _44
REMARK                            x       y       z     vdW  Elec       q    Type
REMARK                         _______ _______ _______ _____ _____    ______ ____
ROOT
ATOM      1  C   UNL     1      26.785  16.868  -3.895  0.00  0.00    +0.240 C 
ENDROOT
BRANCH   1   2
ATOM      2  C   UNL     1      26.946  17.718  -2.621  0.00  0.00    +0.100 C 
BRANCH   2   4
ATOM      3  N   UNL     1      28.982  17.710  -1.230  0.00  0.00    -0.134 NA
ATOM      4  C   UNL     1      27.873  17.060  -1.685  0.00  0.00    +0.087 A 
ATOM      5  C   UNL     1      27.822  15.810  -1.115  0.00  0.00    +0.141 A 
ATOM      6  N   UNL     1      28.923  15.745  -0.283  0.00  0.00    -0.200 N 
ATOM      7  N   UNL     1      29.606  16.910  -0.377  0.00  0.00    -0.059 NA
BRANCH   6   8
ATOM      8  C   UNL     1      29.235  14.672   0.602  0.00  0.00    +0.186 A 
ATOM      9  C   UNL     1      30.338  13.842   0.627  0.00  0.00    +0.158 A 
ATOM     10  C   UNL     1      31.452  13.667  -0.253  0.00  0.00    +0.280 A 
ATOM     11  O   UNL     1      31.431  14.036  -1.419  0.00  0.00    -0.265 OA
ATOM     12  N   UNL     1      32.564  13.007   0.309  0.00  0.00    -0.302 N 
ATOM     13  C   UNL     1      32.401  12.183   1.486  0.00  0.00    +0.069 A 
ATOM     14  C   UNL     1      33.388  11.292   1.930  0.00  0.00    +0.028 A 
ATOM     15  C   UNL     1      33.176  10.470   3.046  0.00  0.00    +0.002 A 
ATOM     16  C   UNL     1      31.979  10.530   3.750  0.00  0.00    +0.002 A 
ATOM     17  C   UNL     1      30.982  11.413   3.345  0.00  0.00    +0.028 A 
ATOM     18  C   UNL     1      31.193  12.222   2.219  0.00  0.00    +0.072 A 
ATOM     19  N   UNL     1      30.206  13.118   1.779  0.00  0.00    -0.291 N 
ATOM     20  C   UNL     1      28.997  13.449   2.336  0.00  0.00    +0.207 A 
ATOM     21  N   UNL     1      28.387  14.396   1.656  0.00  0.00    -0.216 NA
BRANCH  12  22
ATOM     22  C   UNL     1      33.835  13.018  -0.453  0.00  0.00    +0.085 C 
ATOM     23  C   UNL     1      34.309  14.430  -0.848  0.00  0.00    +0.030 C 
ATOM     24  C   UNL     1      33.767  12.112  -1.682  0.00  0.00    +0.030 C 
ENDBRANCH  12  22
ENDBRANCH   6   8
ENDBRANCH   2   4
ENDBRANCH   1   2
BRANCH   1  25
ATOM     25  O   UNL     1      25.582  16.151  -4.051  0.00  0.00    -0.450 OA
BRANCH  25  26
ATOM     26  C   UNL     1      24.769  15.437  -3.345  0.00  0.00    +0.400 C 
ATOM     27  N   UNL     1      25.218  14.182  -3.007  0.00  0.00    -0.278 N 
ATOM     28  H   UNL     1      24.505  13.851  -2.282  0.00  0.00    +0.152 HD
ATOM     29  O   UNL     1      23.665  15.787  -2.934  0.00  0.00    -0.226 OA
BRANCH  27  30
ATOM     30  C   UNL     1      26.200  13.118  -3.200  0.00  0.00    +0.152 C 
BRANCH  30  31
ATOM     31  C   UNL     1      25.818  11.731  -2.643  0.00  0.00    +0.193 C 
ATOM     32  O   UNL     1      27.039  10.963  -2.568  0.00  0.00    -0.219 OA
BRANCH  31  33
ATOM     33  C   UNL     1      25.235  11.670  -1.214  0.00  0.00    +0.212 C 
ATOM     34  O   UNL     1      25.634  12.826  -0.459  0.00  0.00    -0.218 OA
BRANCH  33  35
ATOM     35  C   UNL     1      23.662  11.567  -1.184  0.00  0.00    +0.171 C 
ATOM     36  O   UNL     1      23.034  12.550  -2.001  0.00  0.00    -0.343 OA
ATOM     37  C   UNL     1      21.668  12.842  -1.972  0.00  0.00    +0.220 C 
ATOM     38  C   UNL     1      21.168  13.092  -0.539  0.00  0.00    +0.076 C 
ATOM     39  C   UNL     1      21.590  11.885   0.316  0.00  0.00    +0.177 C 
ATOM     40  O   UNL     1      21.117  12.048   1.645  0.00  0.00    -0.221 OA
ATOM     41  C   UNL     1      23.141  11.719   0.282  0.00  0.00    +0.155 C 
BRANCH  41  42
ATOM     42  N   UNL     1      23.547  10.578   1.098  0.00  0.00    -0.202 NA
ATOM     43  C   UNL     1      24.226  10.548   2.273  0.00  0.00    +0.242 C 
ATOM     44  C   UNL     1      24.255   9.258   3.051  0.00  0.00    +0.096 C 
ATOM     45  O   UNL     1      24.794  11.563   2.672  0.00  0.00    -0.273 OA
ENDBRANCH  41  42
BRANCH  37  46
ATOM     46  C   UNL     1      20.754  11.739  -2.739  0.00  0.00    +0.391 C 
ATOM     47  O   UNL     1      19.585  12.364  -2.980  0.00  0.00    -0.243 OA
ATOM     48  O   UNL     1      21.587  10.757  -3.103  0.00  0.00    -0.243 OA
ENDBRANCH  37  46
ENDBRANCH  33  35
ENDBRANCH  31  33
ENDBRANCH  30  31
ENDBRANCH  27  30
ENDBRANCH  25  26
ENDBRANCH   1  25
TORSDOF 12
