REMARK VINA RESULT:    -6.811      1.997      2.961
REMARK INTER + INTRA:         -13.883
REMARK INTER:                 -11.837
REMARK INTRA:                  -2.047
REMARK UNBOUND:                -2.096
REMARK  Name = lig_assembled_88.pdb
REMARK  13 active torsions:
REMARK  status: ('A' for Active; 'I' for Inactive)
REMARK    1  A    between atoms: _2  and  _8
REMARK    2  A    between atoms: _4  and  _14
REMARK    3  A    between atoms: _5  and  _6
REMARK    4  A    between atoms: _5  and  _15
REMARK    5  A    between atoms: _8  and  _9
REMARK    6  A    between atoms: _15  and  _17
REMARK    7  A    between atoms: _16  and  _21
REMARK    8  A    between atoms: _17  and  _20
REMARK    9  A    between atoms: _25  and  _35
REMARK   10  A    between atoms: _27  and  _28
REMARK   11  A    between atoms: _29  and  _31
REMARK   12  A    between atoms: _31  and  _33
REMARK   13  A    between atoms: _33  and  _35
REMARK                            x       y       z     vdW  Elec       q    Type
REMARK                         _______ _______ _______ _____ _____    ______ ____
ROOT
ATOM      1  C   UNL     1      28.399  16.722  -0.490  0.00  0.00    +0.400 C 
ATOM      2  N   UNL     1      28.520  15.444   0.003  0.00  0.00    -0.278 N 
ATOM      3  H   UNL     1      29.070  15.580   0.910  0.00  0.00    +0.152 HD
ATOM      4  O   UNL     1      28.738  17.656   0.231  0.00  0.00    -0.226 OA
ENDROOT
BRANCH   1   5
ATOM      5  O   UNL     1      27.959  16.814  -1.702  0.00  0.00    -0.450 OA
BRANCH   5   6
ATOM      6  C   UNL     1      26.839  17.311  -2.397  0.00  0.00    +0.240 C 
BRANCH   6   7
ATOM      7  C   UNL     1      26.682  16.905  -3.875  0.00  0.00    +0.100 C 
BRANCH   7   9
ATOM      8  N   UNL     1      26.761  14.447  -4.166  0.00  0.00    -0.134 NA
ATOM      9  C   UNL     1      26.025  15.589  -3.981  0.00  0.00    +0.086 A 
ATOM     10  C   UNL     1      24.688  15.261  -3.943  0.00  0.00    +0.134 A 
ATOM     11  N   UNL     1      24.674  13.918  -4.188  0.00  0.00    -0.247 N 
ATOM     12  N   UNL     1      25.924  13.425  -4.269  0.00  0.00    -0.065 NA
BRANCH  11  13
ATOM     13  C   UNL     1      23.523  13.061  -4.423  0.00  0.00    +0.184 C 
BRANCH  13  14
ATOM     14  C   UNL     1      22.354  13.367  -3.506  0.00  0.00    +0.017 A 
ATOM     15  C   UNL     1      21.259  14.153  -3.914  0.00  0.00    +0.024 A 
ATOM     16  C   UNL     1      20.199  14.413  -3.042  0.00  0.00    +0.019 A 
ATOM     17 BR   UNL     1      18.771  15.516  -3.609  0.00  0.00    -0.050 Br
ATOM     18  C   UNL     1      20.184  13.876  -1.759  0.00  0.00    +0.034 A 
ATOM     19  C   UNL     1      21.235  13.057  -1.358  0.00  0.00    +0.061 A 
ATOM     20 BR   UNL     1      21.191  12.296   0.378  0.00  0.00    -0.046 Br
ATOM     21  C   UNL     1      22.307  12.801  -2.225  0.00  0.00    +0.136 A 
BRANCH  21  22
ATOM     22  O   UNL     1      23.340  11.985  -1.845  0.00  0.00    -0.505 OA
ATOM     23  H   UNL     1      24.112  12.209  -2.398  0.00  0.00    +0.292 HD
ENDBRANCH  21  22
ENDBRANCH  13  14
ENDBRANCH  11  13
ENDBRANCH   7   9
ENDBRANCH   6   7
ENDBRANCH   5   6
ENDBRANCH   1   5
BRANCH   2  24
ATOM     24  C   UNL     1      28.230  14.020  -0.145  0.00  0.00    +0.152 C 
BRANCH  24  25
ATOM     25  C   UNL     1      27.894  13.256   1.152  0.00  0.00    +0.193 C 
ATOM     26  O   UNL     1      28.351  11.899   0.965  0.00  0.00    -0.219 OA
BRANCH  25  27
ATOM     27  C   UNL     1      28.586  13.719   2.454  0.00  0.00    +0.212 C 
ATOM     28  O   UNL     1      27.618  13.892   3.502  0.00  0.00    -0.218 OA
BRANCH  27  29
ATOM     29  C   UNL     1      29.701  12.725   2.956  0.00  0.00    +0.171 C 
ATOM     30  O   UNL     1      29.494  12.303   4.300  0.00  0.00    -0.343 OA
ATOM     31  C   UNL     1      30.443  11.626   5.069  0.00  0.00    +0.220 C 
ATOM     32  C   UNL     1      31.807  12.338   5.049  0.00  0.00    +0.076 C 
ATOM     33  C   UNL     1      32.197  12.548   3.576  0.00  0.00    +0.177 C 
ATOM     34  O   UNL     1      33.472  13.169   3.500  0.00  0.00    -0.221 OA
ATOM     35  C   UNL     1      31.109  13.397   2.848  0.00  0.00    +0.155 C 
BRANCH  35  36
ATOM     36  N   UNL     1      31.479  13.605   1.450  0.00  0.00    -0.202 NA
ATOM     37  C   UNL     1      31.688  14.761   0.771  0.00  0.00    +0.242 C 
ATOM     38  C   UNL     1      32.347  14.687  -0.582  0.00  0.00    +0.096 C 
ATOM     39  O   UNL     1      31.340  15.830   1.269  0.00  0.00    -0.273 OA
ENDBRANCH  35  36
BRANCH  31  40
ATOM     40  C   UNL     1      30.585  10.054   4.685  0.00  0.00    +0.391 C 
ATOM     41  O   UNL     1      31.725   9.652   5.279  0.00  0.00    -0.243 OA
ATOM     42  O   UNL     1      29.395   9.684   4.194  0.00  0.00    -0.243 OA
ENDBRANCH  31  40
ENDBRANCH  27  29
ENDBRANCH  25  27
ENDBRANCH  24  25
ENDBRANCH   2  24
TORSDOF 13
