REMARK VINA RESULT:    -7.355      1.992      2.848
REMARK INTER + INTRA:         -14.521
REMARK INTER:                 -12.000
REMARK INTRA:                  -2.522
REMARK UNBOUND:                -1.577
REMARK  Name = lig_assembled_66.pdb
REMARK  13 active torsions:
REMARK  status: ('A' for Active; 'I' for Inactive)
REMARK    1  A    between atoms: _2  and  _9
REMARK    2  A    between atoms: _6  and  _7
REMARK    3  A    between atoms: _6  and  _16
REMARK    4  A    between atoms: _9  and  _10
REMARK    5  A    between atoms: _14  and  _15
REMARK    6  A    between atoms: _16  and  _18
REMARK    7  A    between atoms: _17  and  _22
REMARK    8  A    between atoms: _18  and  _21
REMARK    9  A    between atoms: _26  and  _36
REMARK   10  A    between atoms: _28  and  _29
REMARK   11  A    between atoms: _30  and  _32
REMARK   12  A    between atoms: _32  and  _34
REMARK   13  A    between atoms: _34  and  _36
REMARK                            x       y       z     vdW  Elec       q    Type
REMARK                         _______ _______ _______ _____ _____    ______ ____
ROOT
ATOM      1  C   UNL     1      28.238  16.612  -0.766  0.00  0.00    +0.400 C 
ATOM      2  N   UNL     1      28.353  15.353  -0.225  0.00  0.00    -0.278 N 
ATOM      3  H   UNL     1      28.853  15.527   0.703  0.00  0.00    +0.152 HD
ATOM      4  O   UNL     1      28.528  17.574  -0.059  0.00  0.00    -0.226 OA
ENDROOT
BRANCH   1   5
ATOM      5  O   UNL     1      27.860  16.658  -2.001  0.00  0.00    -0.450 OA
BRANCH   5   6
ATOM      6  C   UNL     1      26.854  17.252  -2.788  0.00  0.00    +0.240 C 
BRANCH   6   7
ATOM      7  C   UNL     1      26.184  16.377  -3.864  0.00  0.00    +0.100 C 
BRANCH   7   9
ATOM      8  N   UNL     1      23.947  15.849  -2.936  0.00  0.00    -0.134 NA
ATOM      9  C   UNL     1      25.221  15.448  -3.243  0.00  0.00    +0.086 A 
ATOM     10  C   UNL     1      25.363  14.116  -2.918  0.00  0.00    +0.134 A 
ATOM     11  N   UNL     1      24.125  13.752  -2.471  0.00  0.00    -0.247 N 
ATOM     12  N   UNL     1      23.283  14.801  -2.466  0.00  0.00    -0.065 NA
BRANCH  11  13
ATOM     13  C   UNL     1      23.617  12.406  -2.285  0.00  0.00    +0.180 C 
BRANCH  13  14
ATOM     14  C   UNL     1      23.279  12.088  -0.851  0.00  0.00    -0.025 A 
ATOM     15  C   UNL     1      21.943  12.083  -0.422  0.00  0.00    +0.005 A 
ATOM     16  C   UNL     1      21.614  11.708   0.882  0.00  0.00    +0.002 A 
ATOM     17  C   UNL     1      22.619  11.353   1.782  0.00  0.00    +0.019 A 
ATOM     18  C   UNL     1      23.958  11.387   1.383  0.00  0.00    +0.052 A 
ATOM     19  C   UNL     1      24.285  11.751   0.070  0.00  0.00    +0.024 A 
BRANCH  18  20
ATOM     20  C   UNL     1      24.993  11.038   2.310  0.00  0.00    +0.099 C 
ATOM     21  N   UNL     1      25.833  10.765   3.065  0.00  0.00    -0.191 NA
ENDBRANCH  18  20
ENDBRANCH  13  14
ENDBRANCH  11  13
ENDBRANCH   7   9
ENDBRANCH   6   7
ENDBRANCH   5   6
ENDBRANCH   1   5
BRANCH   2  22
ATOM     22  C   UNL     1      28.090  13.920  -0.340  0.00  0.00    +0.152 C 
BRANCH  22  23
ATOM     23  C   UNL     1      27.820  13.171   0.981  0.00  0.00    +0.193 C 
ATOM     24  O   UNL     1      28.329  11.830   0.809  0.00  0.00    -0.219 OA
BRANCH  23  25
ATOM     25  C   UNL     1      28.524  13.689   2.254  0.00  0.00    +0.212 C 
ATOM     26  O   UNL     1      27.567  13.907   3.304  0.00  0.00    -0.218 OA
BRANCH  25  27
ATOM     27  C   UNL     1      29.645  12.717   2.788  0.00  0.00    +0.171 C 
ATOM     28  O   UNL     1      29.403  12.283   4.122  0.00  0.00    -0.343 OA
ATOM     29  C   UNL     1      30.342  11.622   4.918  0.00  0.00    +0.220 C 
ATOM     30  C   UNL     1      31.689  12.366   4.947  0.00  0.00    +0.076 C 
ATOM     31  C   UNL     1      32.122  12.594   3.489  0.00  0.00    +0.177 C 
ATOM     32  O   UNL     1      33.385  13.244   3.459  0.00  0.00    -0.221 OA
ATOM     33  C   UNL     1      31.040  13.422   2.730  0.00  0.00    +0.155 C 
BRANCH  33  34
ATOM     34  N   UNL     1      31.451  13.647   1.347  0.00  0.00    -0.202 NA
ATOM     35  C   UNL     1      31.598  14.811   0.664  0.00  0.00    +0.242 C 
ATOM     36  C   UNL     1      32.317  14.778  -0.660  0.00  0.00    +0.096 C 
ATOM     37  O   UNL     1      31.147  15.853   1.135  0.00  0.00    -0.273 OA
ENDBRANCH  33  34
BRANCH  29  38
ATOM     38  C   UNL     1      30.532  10.056   4.531  0.00  0.00    +0.391 C 
ATOM     39  O   UNL     1      29.558   9.799   3.637  0.00  0.00    -0.243 OA
ATOM     40  O   UNL     1      31.736   9.703   4.998  0.00  0.00    -0.243 OA
ENDBRANCH  29  38
ENDBRANCH  25  27
ENDBRANCH  23  25
ENDBRANCH  22  23
ENDBRANCH   2  22
TORSDOF 13
