REMARK VINA RESULT:    -7.370      1.818      3.891
REMARK INTER + INTRA:         -13.947
REMARK INTER:                 -11.685
REMARK INTRA:                  -2.262
REMARK UNBOUND:                -1.407
REMARK  Name = lig_assembled_82.pdb
REMARK  14 active torsions:
REMARK  status: ('A' for Active; 'I' for Inactive)
REMARK    1  A    between atoms: _2  and  _8
REMARK    2  A    between atoms: _4  and  _15
REMARK    3  A    between atoms: _5  and  _6
REMARK    4  A    between atoms: _5  and  _17
REMARK    5  A    between atoms: _8  and  _9
REMARK    6  A    between atoms: _15  and  _16
REMARK    7  A    between atoms: _17  and  _19
REMARK    8  A    between atoms: _18  and  _23
REMARK    9  A    between atoms: _19  and  _22
REMARK   10  A    between atoms: _27  and  _37
REMARK   11  A    between atoms: _29  and  _30
REMARK   12  A    between atoms: _31  and  _33
REMARK   13  A    between atoms: _33  and  _35
REMARK   14  A    between atoms: _35  and  _37
REMARK                            x       y       z     vdW  Elec       q    Type
REMARK                         _______ _______ _______ _____ _____    ______ ____
ROOT
ATOM      1  C   UNL     1      28.102  14.043  -1.332  0.00  0.00    +0.400 C 
ATOM      2  N   UNL     1      27.897  13.249  -0.228  0.00  0.00    -0.278 N 
ATOM      3  H   UNL     1      28.204  12.281  -0.559  0.00  0.00    +0.152 HD
ATOM      4  O   UNL     1      28.707  13.562  -2.286  0.00  0.00    -0.226 OA
ENDROOT
BRANCH   2   5
ATOM      5  C   UNL     1      27.471  13.142   1.165  0.00  0.00    +0.152 C 
BRANCH   5   6
ATOM      6  C   UNL     1      28.445  13.708   2.219  0.00  0.00    +0.193 C 
ATOM      7  O   UNL     1      27.751  13.674   3.486  0.00  0.00    -0.219 OA
BRANCH   6   8
ATOM      8  C   UNL     1      29.753  12.929   2.476  0.00  0.00    +0.212 C 
ATOM      9  O   UNL     1      29.610  11.559   2.066  0.00  0.00    -0.218 OA
BRANCH   8  10
ATOM     10  C   UNL     1      31.003  13.547   1.740  0.00  0.00    +0.171 C 
ATOM     11  O   UNL     1      30.910  13.444   0.323  0.00  0.00    -0.343 OA
ATOM     12  C   UNL     1      31.969  13.684  -0.556  0.00  0.00    +0.220 C 
ATOM     13  C   UNL     1      33.234  12.908  -0.151  0.00  0.00    +0.076 C 
ATOM     14  C   UNL     1      33.528  13.237   1.322  0.00  0.00    +0.177 C 
ATOM     15  O   UNL     1      34.713  12.574   1.736  0.00  0.00    -0.221 OA
ATOM     16  C   UNL     1      32.312  12.836   2.214  0.00  0.00    +0.155 C 
BRANCH  16  17
ATOM     17  N   UNL     1      32.590  13.141   3.616  0.00  0.00    -0.202 NA
ATOM     18  C   UNL     1      32.704  12.305   4.679  0.00  0.00    +0.242 C 
ATOM     19  C   UNL     1      33.286  12.850   5.958  0.00  0.00    +0.096 C 
ATOM     20  O   UNL     1      32.336  11.137   4.576  0.00  0.00    -0.273 OA
ENDBRANCH  16  17
BRANCH  12  21
ATOM     21  C   UNL     1      32.282  15.263  -0.775  0.00  0.00    +0.391 C 
ATOM     22  O   UNL     1      33.395  15.295  -1.533  0.00  0.00    -0.243 OA
ATOM     23  O   UNL     1      31.179  15.916  -0.388  0.00  0.00    -0.243 OA
ENDBRANCH  12  21
ENDBRANCH   8  10
ENDBRANCH   6   8
ENDBRANCH   5   6
ENDBRANCH   2   5
BRANCH   1  24
ATOM     24  O   UNL     1      27.600  15.232  -1.267  0.00  0.00    -0.450 OA
BRANCH  24  25
ATOM     25  C   UNL     1      27.918  16.549  -1.655  0.00  0.00    +0.240 C 
BRANCH  25  26
ATOM     26  C   UNL     1      26.875  17.315  -2.491  0.00  0.00    +0.100 C 
BRANCH  26  28
ATOM     27  N   UNL     1      26.604  16.073  -4.613  0.00  0.00    -0.134 NA
ATOM     28  C   UNL     1      26.132  16.403  -3.365  0.00  0.00    +0.086 A 
ATOM     29  C   UNL     1      24.928  15.751  -3.166  0.00  0.00    +0.134 A 
ATOM     30  N   UNL     1      24.667  15.157  -4.369  0.00  0.00    -0.247 N 
ATOM     31  N   UNL     1      25.719  15.281  -5.201  0.00  0.00    -0.065 NA
BRANCH  30  32
ATOM     32  C   UNL     1      23.421  14.540  -4.831  0.00  0.00    +0.176 C 
BRANCH  32  33
ATOM     33  C   UNL     1      22.797  13.645  -3.789  0.00  0.00    -0.049 C 
ATOM     34  C   UNL     1      21.559  14.131  -3.104  0.00  0.00    +0.023 C 
ATOM     35  C   UNL     1      20.434  13.065  -2.725  0.00  0.00    -0.025 C 
ATOM     36  C   UNL     1      19.988  11.776  -3.426  0.00  0.00    +0.012 C 
ATOM     37  C   UNL     1      21.477  12.705  -1.566  0.00  0.00    -0.000 C 
ATOM     38  C   UNL     1      22.715  11.879  -2.038  0.00  0.00    +0.031 C 
ATOM     39  C   UNL     1      19.154  13.922  -2.555  0.00  0.00    +0.012 C 
ATOM     40  C   UNL     1      21.826  14.216  -1.547  0.00  0.00    +0.012 C 
ATOM     41  C   UNL     1      23.330  12.521  -3.271  0.00  0.00    -0.025 C 
ENDBRANCH  32  33
ENDBRANCH  30  32
ENDBRANCH  26  28
ENDBRANCH  25  26
ENDBRANCH  24  25
ENDBRANCH   1  24
TORSDOF 12
