REMARK VINA RESULT:    -6.522      3.012      8.819
REMARK INTER + INTRA:         -12.262
REMARK INTER:                 -10.597
REMARK INTRA:                  -1.664
REMARK UNBOUND:                -1.545
REMARK  Name = lig_assembled_48.pdb
REMARK  11 active torsions:
REMARK  status: ('A' for Active; 'I' for Inactive)
REMARK    1  A    between atoms: _2  and  _8
REMARK    2  A    between atoms: _5  and  _6
REMARK    3  A    between atoms: _5  and  _13
REMARK    4  A    between atoms: _13  and  _15
REMARK    5  A    between atoms: _14  and  _19
REMARK    6  A    between atoms: _15  and  _18
REMARK    7  A    between atoms: _23  and  _33
REMARK    8  A    between atoms: _25  and  _26
REMARK    9  A    between atoms: _27  and  _29
REMARK   10  A    between atoms: _29  and  _31
REMARK   11  A    between atoms: _31  and  _33
REMARK                            x       y       z     vdW  Elec       q    Type
REMARK                         _______ _______ _______ _____ _____    ______ ____
ROOT
ATOM      1  C   UNL     1      27.632  14.566  -1.673  0.00  0.00    +0.152 C 
ENDROOT
BRANCH   1   3
ATOM      2  C   UNL     1      28.231  17.136  -0.978  0.00  0.00    +0.400 C 
ATOM      3  N   UNL     1      27.567  15.965  -1.258  0.00  0.00    -0.278 N 
ATOM      4  H   UNL     1      26.540  16.221  -1.107  0.00  0.00    +0.152 HD
ATOM      5  O   UNL     1      27.565  18.156  -0.822  0.00  0.00    -0.226 OA
BRANCH   2   6
ATOM      6  O   UNL     1      29.516  17.039  -0.872  0.00  0.00    -0.450 OA
BRANCH   6   7
ATOM      7  C   UNL     1      30.486  16.704   0.092  0.00  0.00    +0.240 C 
BRANCH   7   8
ATOM      8  C   UNL     1      31.508  15.612  -0.277  0.00  0.00    +0.100 C 
BRANCH   8  10
ATOM      9  N   UNL     1      31.127  14.961   2.076  0.00  0.00    -0.134 NA
ATOM     10  C   UNL     1      31.736  14.722   0.876  0.00  0.00    +0.086 A 
ATOM     11  C   UNL     1      32.498  13.579   0.977  0.00  0.00    +0.134 A 
ATOM     12  N   UNL     1      32.239  13.114   2.232  0.00  0.00    -0.248 N 
ATOM     13  N   UNL     1      31.472  13.993   2.912  0.00  0.00    -0.065 NA
BRANCH  12  14
ATOM     14  C   UNL     1      32.604  11.857   2.875  0.00  0.00    +0.109 C 
ATOM     15  C   UNL     1      34.039  11.440   2.504  0.00  0.00    +0.027 C 
ATOM     16  C   UNL     1      35.074  12.328   3.192  0.00  0.00    +0.002 C 
ATOM     17  C   UNL     1      34.936  12.250   4.707  0.00  0.00    +0.000 C 
ATOM     18  C   UNL     1      33.520  12.570   5.182  0.00  0.00    +0.002 C 
ATOM     19  C   UNL     1      32.435  11.813   4.407  0.00  0.00    +0.027 C 
ENDBRANCH  12  14
ENDBRANCH   8  10
ENDBRANCH   7   8
ENDBRANCH   6   7
ENDBRANCH   2   6
ENDBRANCH   1   3
BRANCH   1  20
ATOM     20  C   UNL     1      26.285  13.892  -2.005  0.00  0.00    +0.193 C 
ATOM     21  O   UNL     1      26.262  13.691  -3.435  0.00  0.00    -0.219 OA
BRANCH  20  22
ATOM     22  C   UNL     1      26.024  12.488  -1.415  0.00  0.00    +0.212 C 
ATOM     23  O   UNL     1      26.987  11.546  -1.914  0.00  0.00    -0.218 OA
BRANCH  22  24
ATOM     24  C   UNL     1      26.059  12.457   0.161  0.00  0.00    +0.171 C 
ATOM     25  O   UNL     1      27.307  11.998   0.672  0.00  0.00    -0.343 OA
ATOM     26  C   UNL     1      27.530  11.643   2.004  0.00  0.00    +0.220 C 
ATOM     27  C   UNL     1      26.467  10.656   2.518  0.00  0.00    +0.076 C 
ATOM     28  C   UNL     1      25.087  11.274   2.235  0.00  0.00    +0.177 C 
ATOM     29  O   UNL     1      24.066  10.418   2.728  0.00  0.00    -0.221 OA
ATOM     30  C   UNL     1      24.919  11.536   0.706  0.00  0.00    +0.155 C 
BRANCH  30  31
ATOM     31  N   UNL     1      23.607  12.117   0.432  0.00  0.00    -0.202 NA
ATOM     32  C   UNL     1      22.549  11.593  -0.237  0.00  0.00    +0.242 C 
ATOM     33  C   UNL     1      21.215  12.284  -0.120  0.00  0.00    +0.096 C 
ATOM     34  O   UNL     1      22.700  10.577  -0.914  0.00  0.00    -0.273 OA
ENDBRANCH  30  31
BRANCH  26  35
ATOM     35  C   UNL     1      27.688  12.920   2.996  0.00  0.00    +0.391 C 
ATOM     36  O   UNL     1      27.762  12.392   4.233  0.00  0.00    -0.243 OA
ATOM     37  O   UNL     1      27.985  13.963   2.211  0.00  0.00    -0.243 OA
ENDBRANCH  26  35
ENDBRANCH  22  24
ENDBRANCH  20  22
ENDBRANCH   1  20
TORSDOF 11
