REMARK VINA RESULT:    -6.102      2.721     10.385
REMARK INTER + INTRA:         -13.383
REMARK INTER:                 -11.409
REMARK INTRA:                  -1.973
REMARK UNBOUND:                -2.286
REMARK  Name = lig_assembled_62.pdb
REMARK  15 active torsions:
REMARK  status: ('A' for Active; 'I' for Inactive)
REMARK    1  A    between atoms: _2  and  _9
REMARK    2  A    between atoms: _5  and  _9
REMARK    3  A    between atoms: _6  and  _7
REMARK    4  A    between atoms: _6  and  _14
REMARK    5  A    between atoms: _9  and  _10
REMARK    6  A    between atoms: _10  and  _13
REMARK    7  A    between atoms: _11  and  _13
REMARK    8  A    between atoms: _14  and  _16
REMARK    9  A    between atoms: _15  and  _20
REMARK   10  A    between atoms: _16  and  _19
REMARK   11  A    between atoms: _24  and  _34
REMARK   12  A    between atoms: _26  and  _27
REMARK   13  A    between atoms: _28  and  _30
REMARK   14  A    between atoms: _30  and  _32
REMARK   15  A    between atoms: _32  and  _34
REMARK                            x       y       z     vdW  Elec       q    Type
REMARK                         _______ _______ _______ _____ _____    ______ ____
ROOT
ATOM      1  C   UNL     1      27.930  17.724  -1.007  0.00  0.00    +0.400 C 
ATOM      2  N   UNL     1      27.036  16.933  -1.689  0.00  0.00    -0.278 N 
ATOM      3  H   UNL     1      26.087  17.347  -1.424  0.00  0.00    +0.152 HD
ATOM      4  O   UNL     1      27.506  18.738  -0.459  0.00  0.00    -0.226 OA
ENDROOT
BRANCH   2   5
ATOM      5  C   UNL     1      26.807  15.817  -2.603  0.00  0.00    +0.152 C 
BRANCH   5   6
ATOM      6  C   UNL     1      25.719  16.028  -3.676  0.00  0.00    +0.193 C 
ATOM      7  O   UNL     1      26.392  16.034  -4.954  0.00  0.00    -0.219 OA
BRANCH   6   8
ATOM      8  C   UNL     1      24.633  14.940  -3.817  0.00  0.00    +0.212 C 
ATOM      9  O   UNL     1      24.330  14.709  -5.202  0.00  0.00    -0.218 OA
BRANCH   8  10
ATOM     10  C   UNL     1      25.034  13.568  -3.153  0.00  0.00    +0.171 C 
ATOM     11  O   UNL     1      26.049  12.884  -3.879  0.00  0.00    -0.343 OA
ATOM     12  C   UNL     1      26.417  11.554  -3.658  0.00  0.00    +0.220 C 
ATOM     13  C   UNL     1      25.195  10.619  -3.645  0.00  0.00    +0.076 C 
ATOM     14  C   UNL     1      24.187  11.189  -2.633  0.00  0.00    +0.177 C 
ATOM     15  O   UNL     1      23.053  10.338  -2.552  0.00  0.00    -0.221 OA
ATOM     16  C   UNL     1      23.780  12.640  -3.039  0.00  0.00    +0.155 C 
BRANCH  16  17
ATOM     17  N   UNL     1      22.817  13.182  -2.084  0.00  0.00    -0.202 NA
ATOM     18  C   UNL     1      21.536  13.586  -2.277  0.00  0.00    +0.242 C 
ATOM     19  C   UNL     1      20.671  13.827  -1.068  0.00  0.00    +0.096 C 
ATOM     20  O   UNL     1      21.115  13.742  -3.422  0.00  0.00    -0.273 OA
ENDBRANCH  16  17
BRANCH  12  21
ATOM     21  C   UNL     1      27.340  11.349  -2.337  0.00  0.00    +0.391 C 
ATOM     22  O   UNL     1      27.281  10.030  -2.073  0.00  0.00    -0.243 OA
ATOM     23  O   UNL     1      28.036  12.483  -2.193  0.00  0.00    -0.243 OA
ENDBRANCH  12  21
ENDBRANCH   8  10
ENDBRANCH   6   8
ENDBRANCH   5   6
ENDBRANCH   2   5
BRANCH   1  24
ATOM     24  O   UNL     1      29.150  17.297  -0.982  0.00  0.00    -0.450 OA
BRANCH  24  25
ATOM     25  C   UNL     1      30.035  16.643  -0.103  0.00  0.00    +0.240 C 
BRANCH  25  26
ATOM     26  C   UNL     1      30.033  15.102  -0.108  0.00  0.00    +0.100 C 
BRANCH  26  28
ATOM     27  N   UNL     1      31.159  15.000   2.096  0.00  0.00    -0.134 NA
ATOM     28  C   UNL     1      31.080  14.585   0.793  0.00  0.00    +0.086 A 
ATOM     29  C   UNL     1      32.086  13.677   0.551  0.00  0.00    +0.134 A 
ATOM     30  N   UNL     1      32.754  13.593   1.738  0.00  0.00    -0.237 N 
ATOM     31  N   UNL     1      32.185  14.386   2.666  0.00  0.00    -0.065 NA
BRANCH  30  32
ATOM     32  C   UNL     1      33.901  12.778   2.098  0.00  0.00    +0.219 C 
BRANCH  32  33
ATOM     33  C   UNL     1      34.844  13.558   2.998  0.00  0.00    +0.237 C 
ATOM     34  O   UNL     1      35.460  13.070   3.942  0.00  0.00    -0.274 OA
ATOM     35  N   UNL     1      35.041  14.871   2.669  0.00  0.00    -0.328 N 
ATOM     36  H   UNL     1      34.638  15.313   1.852  0.00  0.00    +0.145 HD
ATOM     37  H   UNL     1      35.672  15.413   3.246  0.00  0.00    +0.145 HD
ENDBRANCH  32  33
BRANCH  32  38
ATOM     38  C   UNL     1      34.624  12.282   0.848  0.00  0.00    +0.195 C 
BRANCH  38  39
ATOM     39  O   UNL     1      35.668  13.203   0.504  0.00  0.00    -0.380 OA
ATOM     40  C   UNL     1      35.753  13.405  -0.901  0.00  0.00    +0.194 C 
ENDBRANCH  38  39
ENDBRANCH  32  38
ENDBRANCH  30  32
ENDBRANCH  26  28
ENDBRANCH  25  26
ENDBRANCH  24  25
ENDBRANCH   1  24
TORSDOF 14
