REMARK VINA RESULT:    -6.746     21.318     24.749
REMARK INTER + INTRA:         -12.469
REMARK INTER:                 -10.551
REMARK INTRA:                  -1.918
REMARK UNBOUND:                -1.385
REMARK  Name = lig_assembled_56.pdb
REMARK  11 active torsions:
REMARK  status: ('A' for Active; 'I' for Inactive)
REMARK    1  A    between atoms: _2  and  _9
REMARK    2  A    between atoms: _6  and  _7
REMARK    3  A    between atoms: _6  and  _13
REMARK    4  A    between atoms: _13  and  _15
REMARK    5  A    between atoms: _14  and  _19
REMARK    6  A    between atoms: _15  and  _18
REMARK    7  A    between atoms: _23  and  _33
REMARK    8  A    between atoms: _25  and  _26
REMARK    9  A    between atoms: _27  and  _29
REMARK   10  A    between atoms: _29  and  _31
REMARK   11  A    between atoms: _31  and  _33
REMARK                            x       y       z     vdW  Elec       q    Type
REMARK                         _______ _______ _______ _____ _____    ______ ____
ROOT
ATOM      1  C   UNL     1      46.963  25.358   9.724  0.00  0.00    +0.152 C 
ENDROOT
BRANCH   1   3
ATOM      2  C   UNL     1      44.903  26.625  10.989  0.00  0.00    +0.400 C 
ATOM      3  N   UNL     1      45.673  25.949  10.072  0.00  0.00    -0.278 N 
ATOM      4  H   UNL     1      45.011  25.815   9.244  0.00  0.00    +0.152 HD
ATOM      5  O   UNL     1      43.810  27.051  10.625  0.00  0.00    -0.226 OA
BRANCH   2   6
ATOM      6  O   UNL     1      45.403  26.721  12.177  0.00  0.00    -0.450 OA
BRANCH   6   7
ATOM      7  C   UNL     1      46.485  27.339  12.834  0.00  0.00    +0.240 C 
BRANCH   7   8
ATOM      8  C   UNL     1      47.080  26.618  14.058  0.00  0.00    +0.100 C 
BRANCH   8  10
ATOM      9  N   UNL     1      45.367  27.908  15.292  0.00  0.00    -0.134 NA
ATOM     10  C   UNL     1      46.255  26.873  15.255  0.00  0.00    +0.086 A 
ATOM     11  C   UNL     1      46.206  26.194  16.451  0.00  0.00    +0.139 A 
ATOM     12  N   UNL     1      45.250  26.850  17.192  0.00  0.00    -0.220 N 
ATOM     13  N   UNL     1      44.763  27.891  16.473  0.00  0.00    -0.061 NA
BRANCH  12  14
ATOM     14  C   UNL     1      44.777  26.553  18.493  0.00  0.00    +0.070 A 
ATOM     15  C   UNL     1      44.468  25.242  18.866  0.00  0.00    +0.047 A 
ATOM     16  C   UNL     1      43.994  25.025  20.150  0.00  0.00    +0.113 A 
ATOM     17  N   UNL     1      43.815  26.003  21.061  0.00  0.00    -0.263 NA
ATOM     18  C   UNL     1      44.124  27.260  20.677  0.00  0.00    +0.113 A 
ATOM     19  C   UNL     1      44.603  27.586  19.420  0.00  0.00    +0.047 A 
ENDBRANCH  12  14
ENDBRANCH   8  10
ENDBRANCH   7   8
ENDBRANCH   6   7
ENDBRANCH   2   6
ENDBRANCH   1   3
BRANCH   1  20
ATOM     20  C   UNL     1      47.045  23.819   9.786  0.00  0.00    +0.193 C 
ATOM     21  O   UNL     1      48.371  23.492  10.255  0.00  0.00    -0.219 OA
BRANCH  20  22
ATOM     22  C   UNL     1      46.099  23.092  10.767  0.00  0.00    +0.212 C 
ATOM     23  O   UNL     1      44.733  23.236  10.347  0.00  0.00    -0.218 OA
BRANCH  22  24
ATOM     24  C   UNL     1      46.420  21.556  10.920  0.00  0.00    +0.171 C 
ATOM     25  O   UNL     1      45.667  20.747  10.022  0.00  0.00    -0.343 OA
ATOM     26  C   UNL     1      45.571  19.356  10.106  0.00  0.00    +0.220 C 
ATOM     27  C   UNL     1      45.187  18.895  11.523  0.00  0.00    +0.076 C 
ATOM     28  C   UNL     1      46.183  19.535  12.504  0.00  0.00    +0.177 C 
ATOM     29  O   UNL     1      45.897  19.109  13.828  0.00  0.00    -0.221 OA
ATOM     30  C   UNL     1      46.130  21.090  12.385  0.00  0.00    +0.155 C 
BRANCH  30  31
ATOM     31  N   UNL     1      47.070  21.703  13.320  0.00  0.00    -0.202 NA
ATOM     32  C   UNL     1      46.852  22.629  14.288  0.00  0.00    +0.242 C 
ATOM     33  C   UNL     1      47.937  22.870  15.305  0.00  0.00    +0.096 C 
ATOM     34  O   UNL     1      45.786  23.241  14.315  0.00  0.00    -0.273 OA
ENDBRANCH  30  31
BRANCH  26  35
ATOM     35  C   UNL     1      46.893  18.583   9.564  0.00  0.00    +0.391 C 
ATOM     36  O   UNL     1      46.786  17.330  10.049  0.00  0.00    -0.243 OA
ATOM     37  O   UNL     1      47.419  19.369   8.617  0.00  0.00    -0.243 OA
ENDBRANCH  26  35
ENDBRANCH  22  24
ENDBRANCH  20  22
ENDBRANCH   1  20
TORSDOF 11
