REMARK VINA RESULT:    -5.922      3.197      7.929
REMARK INTER + INTRA:         -13.004
REMARK INTER:                 -10.402
REMARK INTRA:                  -2.603
REMARK UNBOUND:                -2.235
REMARK  Name = lig_assembled_50.pdb
REMARK  15 active torsions:
REMARK  status: ('A' for Active; 'I' for Inactive)
REMARK    1  A    between atoms: _2  and  _8
REMARK    2  A    between atoms: _4  and  _9
REMARK    3  A    between atoms: _4  and  _10
REMARK    4  A    between atoms: _5  and  _6
REMARK    5  A    between atoms: _5  and  _12
REMARK    6  A    between atoms: _8  and  _9
REMARK    7  A    between atoms: _9  and  _11
REMARK    8  A    between atoms: _12  and  _14
REMARK    9  A    between atoms: _13  and  _18
REMARK   10  A    between atoms: _14  and  _17
REMARK   11  A    between atoms: _22  and  _32
REMARK   12  A    between atoms: _24  and  _25
REMARK   13  A    between atoms: _26  and  _28
REMARK   14  A    between atoms: _28  and  _30
REMARK   15  A    between atoms: _30  and  _32
REMARK                            x       y       z     vdW  Elec       q    Type
REMARK                         _______ _______ _______ _____ _____    ______ ____
ROOT
ATOM      1  C   UNL     1      29.072  11.325   0.541  0.00  0.00    +0.400 C 
ATOM      2  N   UNL     1      28.551  11.010  -0.692  0.00  0.00    -0.278 N 
ATOM      3  H   UNL     1      28.215  10.003  -0.569  0.00  0.00    +0.152 HD
ATOM      4  O   UNL     1      28.885  10.539   1.467  0.00  0.00    -0.226 OA
ENDROOT
BRANCH   2   5
ATOM      5  C   UNL     1      28.244  11.430  -2.057  0.00  0.00    +0.152 C 
BRANCH   5   6
ATOM      6  C   UNL     1      27.360  12.686  -2.199  0.00  0.00    +0.193 C 
ATOM      7  O   UNL     1      27.783  13.357  -3.407  0.00  0.00    -0.219 OA
BRANCH   6   8
ATOM      8  C   UNL     1      25.841  12.474  -2.389  0.00  0.00    +0.212 C 
ATOM      9  O   UNL     1      25.593  11.293  -3.169  0.00  0.00    -0.218 OA
BRANCH   8  10
ATOM     10  C   UNL     1      25.053  12.354  -1.029  0.00  0.00    +0.171 C 
ATOM     11  O   UNL     1      25.359  11.157  -0.322  0.00  0.00    -0.343 OA
ATOM     12  C   UNL     1      24.637  10.683   0.776  0.00  0.00    +0.220 C 
ATOM     13  C   UNL     1      23.126  10.635   0.486  0.00  0.00    +0.076 C 
ATOM     14  C   UNL     1      22.707  12.028  -0.012  0.00  0.00    +0.177 C 
ATOM     15  O   UNL     1      21.308  12.051  -0.258  0.00  0.00    -0.221 OA
ATOM     16  C   UNL     1      23.513  12.406  -1.294  0.00  0.00    +0.155 C 
BRANCH  16  17
ATOM     17  N   UNL     1      23.112  13.725  -1.775  0.00  0.00    -0.202 NA
ATOM     18  C   UNL     1      22.491  14.076  -2.929  0.00  0.00    +0.242 C 
ATOM     19  C   UNL     1      21.929  15.470  -3.044  0.00  0.00    +0.096 C 
ATOM     20  O   UNL     1      22.401  13.259  -3.844  0.00  0.00    -0.273 OA
ENDBRANCH  16  17
BRANCH  12  21
ATOM     21  C   UNL     1      24.955  11.480   2.154  0.00  0.00    +0.391 C 
ATOM     22  O   UNL     1      24.110  10.956   3.063  0.00  0.00    -0.243 OA
ATOM     23  O   UNL     1      26.112  12.123   1.951  0.00  0.00    -0.243 OA
ENDBRANCH  12  21
ENDBRANCH   8  10
ENDBRANCH   6   8
ENDBRANCH   5   6
ENDBRANCH   2   5
BRANCH   1  24
ATOM     24  O   UNL     1      29.748  12.425   0.598  0.00  0.00    -0.450 OA
BRANCH  24  25
ATOM     25  C   UNL     1      29.874  13.560   1.423  0.00  0.00    +0.240 C 
BRANCH  25  26
ATOM     26  C   UNL     1      30.782  14.701   0.928  0.00  0.00    +0.100 C 
BRANCH  26  28
ATOM     27  N   UNL     1      30.548  16.895  -0.200  0.00  0.00    -0.134 NA
ATOM     28  C   UNL     1      29.995  15.696   0.173  0.00  0.00    +0.086 A 
ATOM     29  C   UNL     1      28.693  15.640  -0.279  0.00  0.00    +0.133 A 
ATOM     30  N   UNL     1      28.514  16.831  -0.908  0.00  0.00    -0.249 N 
ATOM     31  N   UNL     1      29.634  17.577  -0.874  0.00  0.00    -0.065 NA
BRANCH  30  32
ATOM     32  C   UNL     1      27.323  17.337  -1.550  0.00  0.00    +0.178 C 
BRANCH  32  33
ATOM     33  C   UNL     1      26.654  16.337  -2.500  0.00  0.00    +0.161 C 
BRANCH  33  34
ATOM     34  O   UNL     1      25.321  16.003  -2.102  0.00  0.00    -0.388 OA
ATOM     35  H   UNL     1      24.695  16.471  -2.691  0.00  0.00    +0.210 HD
ENDBRANCH  33  34
BRANCH  33  36
ATOM     36  C   UNL     1      26.660  16.786  -3.967  0.00  0.00    +0.189 C 
BRANCH  36  37
ATOM     37  O   UNL     1      27.805  17.587  -4.261  0.00  0.00    -0.392 OA
ATOM     38  H   UNL     1      28.368  17.095  -4.888  0.00  0.00    +0.210 HD
ENDBRANCH  36  37
ENDBRANCH  33  36
ENDBRANCH  32  33
ENDBRANCH  30  32
ENDBRANCH  26  28
ENDBRANCH  25  26
ENDBRANCH  24  25
ENDBRANCH   1  24
TORSDOF 15
