REMARK VINA RESULT:    -6.176      3.615      7.931
REMARK INTER + INTRA:         -13.157
REMARK INTER:                 -10.681
REMARK INTRA:                  -2.476
REMARK UNBOUND:                -2.287
REMARK  Name = lig_assembled_67.pdb
REMARK  13 active torsions:
REMARK  status: ('A' for Active; 'I' for Inactive)
REMARK    1  A    between atoms: _2  and  _8
REMARK    2  A    between atoms: _5  and  _6
REMARK    3  A    between atoms: _5  and  _14
REMARK    4  A    between atoms: _8  and  _9
REMARK    5  A    between atoms: _9  and  _10
REMARK    6  A    between atoms: _14  and  _16
REMARK    7  A    between atoms: _15  and  _20
REMARK    8  A    between atoms: _16  and  _19
REMARK    9  A    between atoms: _24  and  _34
REMARK   10  A    between atoms: _26  and  _27
REMARK   11  A    between atoms: _28  and  _30
REMARK   12  A    between atoms: _30  and  _32
REMARK   13  A    between atoms: _32  and  _34
REMARK                            x       y       z     vdW  Elec       q    Type
REMARK                         _______ _______ _______ _____ _____    ______ ____
ROOT
ATOM      1  C   UNL     1      27.878  17.311  -0.935  0.00  0.00    +0.400 C 
ATOM      2  N   UNL     1      27.150  17.220  -2.098  0.00  0.00    -0.278 N 
ATOM      3  H   UNL     1      26.317  17.866  -1.919  0.00  0.00    +0.152 HD
ATOM      4  O   UNL     1      27.554  18.166  -0.114  0.00  0.00    -0.226 OA
ENDROOT
BRANCH   2   5
ATOM      5  C   UNL     1      27.015  16.662  -3.441  0.00  0.00    +0.152 C 
BRANCH   5   6
ATOM      6  C   UNL     1      25.676  15.964  -3.755  0.00  0.00    +0.193 C 
ATOM      7  O   UNL     1      25.630  15.778  -5.187  0.00  0.00    -0.219 OA
BRANCH   6   8
ATOM      8  C   UNL     1      25.454  14.549  -3.176  0.00  0.00    +0.212 C 
ATOM      9  O   UNL     1      25.999  14.458  -1.849  0.00  0.00    -0.218 OA
BRANCH   8  10
ATOM     10  C   UNL     1      23.936  14.125  -3.127  0.00  0.00    +0.171 C 
ATOM     11  O   UNL     1      23.213  14.794  -2.099  0.00  0.00    -0.343 OA
ATOM     12  C   UNL     1      21.931  14.436  -1.677  0.00  0.00    +0.220 C 
ATOM     13  C   UNL     1      21.832  12.934  -1.362  0.00  0.00    +0.076 C 
ATOM     14  C   UNL     1      22.345  12.168  -2.593  0.00  0.00    +0.177 C 
ATOM     15  O   UNL     1      22.238  10.770  -2.370  0.00  0.00    -0.221 OA
ATOM     16  C   UNL     1      23.817  12.581  -2.908  0.00  0.00    +0.155 C 
BRANCH  16  17
ATOM     17  N   UNL     1      24.311  11.851  -4.072  0.00  0.00    -0.202 NA
ATOM     18  C   UNL     1      25.401  11.053  -4.198  0.00  0.00    +0.242 C 
ATOM     19  C   UNL     1      25.517  10.187  -5.426  0.00  0.00    +0.096 C 
ATOM     20  O   UNL     1      26.259  11.053  -3.317  0.00  0.00    -0.273 OA
ENDBRANCH  16  17
BRANCH  12  21
ATOM     21  C   UNL     1      20.758  14.911  -2.697  0.00  0.00    +0.391 C 
ATOM     22  O   UNL     1      19.671  14.206  -2.329  0.00  0.00    -0.243 OA
ATOM     23  O   UNL     1      21.218  16.013  -3.302  0.00  0.00    -0.243 OA
ENDBRANCH  12  21
ENDBRANCH   8  10
ENDBRANCH   6   8
ENDBRANCH   5   6
ENDBRANCH   2   5
BRANCH   1  24
ATOM     24  O   UNL     1      28.833  16.450  -0.803  0.00  0.00    -0.450 OA
BRANCH  24  25
ATOM     25  C   UNL     1      29.003  15.067  -0.596  0.00  0.00    +0.240 C 
BRANCH  25  26
ATOM     26  C   UNL     1      29.531  14.614   0.779  0.00  0.00    +0.100 C 
BRANCH  26  28
ATOM     27  N   UNL     1      28.356  13.980   2.863  0.00  0.00    -0.134 NA
ATOM     28  C   UNL     1      28.493  13.857   1.505  0.00  0.00    +0.086 A 
ATOM     29  C   UNL     1      27.552  12.969   1.036  0.00  0.00    +0.133 A 
ATOM     30  N   UNL     1      26.878  12.585   2.156  0.00  0.00    -0.251 N 
ATOM     31  N   UNL     1      27.363  13.190   3.252  0.00  0.00    -0.065 NA
BRANCH  30  32
ATOM     32  C   UNL     1      25.765  11.667   2.260  0.00  0.00    +0.150 C 
BRANCH  32  33
ATOM     33  C   UNL     1      25.296  11.118   0.915  0.00  0.00    +0.084 C 
BRANCH  33  34
ATOM     34  C   UNL     1      23.779  11.045   0.813  0.00  0.00    +0.252 C 
ATOM     35  O   UNL     1      23.369   9.710   0.497  0.00  0.00    -0.349 OA
ATOM     36  C   UNL     1      22.080   9.616   1.098  0.00  0.00    +0.191 C 
ATOM     37  C   UNL     1      22.225  10.424   2.362  0.00  0.00    +0.191 C 
ATOM     38  O   UNL     1      23.175  11.443   2.048  0.00  0.00    -0.349 OA
ENDBRANCH  33  34
ENDBRANCH  32  33
ENDBRANCH  30  32
ENDBRANCH  26  28
ENDBRANCH  25  26
ENDBRANCH  24  25
ENDBRANCH   1  24
TORSDOF 13
