REMARK VINA RESULT:    -7.395      2.667      3.688
REMARK INTER + INTRA:         -14.398
REMARK INTER:                 -12.873
REMARK INTRA:                  -1.525
REMARK UNBOUND:                -1.815
REMARK  Name = lig_assembled_71.pdb
REMARK  12 active torsions:
REMARK  status: ('A' for Active; 'I' for Inactive)
REMARK    1  A    between atoms: _2  and  _11
REMARK    2  A    between atoms: _8  and  _9
REMARK    3  A    between atoms: _8  and  _17
REMARK    4  A    between atoms: _11  and  _12
REMARK    5  A    between atoms: _17  and  _19
REMARK    6  A    between atoms: _18  and  _23
REMARK    7  A    between atoms: _19  and  _22
REMARK    8  A    between atoms: _27  and  _37
REMARK    9  A    between atoms: _29  and  _30
REMARK   10  A    between atoms: _31  and  _33
REMARK   11  A    between atoms: _33  and  _35
REMARK   12  A    between atoms: _35  and  _37
REMARK                            x       y       z     vdW  Elec       q    Type
REMARK                         _______ _______ _______ _____ _____    ______ ____
ROOT
ATOM      1  C   UNL     1      28.038  17.199  -0.539  0.00  0.00    +0.400 C 
ATOM      2  N   UNL     1      28.540  16.100   0.119  0.00  0.00    -0.278 N 
ATOM      3  H   UNL     1      28.763  16.477   1.094  0.00  0.00    +0.152 HD
ATOM      4  O   UNL     1      27.800  18.209   0.118  0.00  0.00    -0.226 OA
ENDROOT
BRANCH   2   5
ATOM      5  C   UNL     1      28.883  14.681   0.088  0.00  0.00    +0.152 C 
BRANCH   5   6
ATOM      6  C   UNL     1      29.882  14.200   1.161  0.00  0.00    +0.193 C 
ATOM      7  O   UNL     1      30.174  12.816   0.866  0.00  0.00    -0.219 OA
BRANCH   6   8
ATOM      8  C   UNL     1      31.266  14.885   1.207  0.00  0.00    +0.212 C 
ATOM      9  O   UNL     1      31.202  16.095   1.978  0.00  0.00    -0.218 OA
BRANCH   8  10
ATOM     10  C   UNL     1      32.398  13.965   1.805  0.00  0.00    +0.171 C 
ATOM     11  O   UNL     1      32.869  14.427   3.067  0.00  0.00    -0.343 OA
ATOM     12  C   UNL     1      34.019  13.952   3.701  0.00  0.00    +0.220 C 
ATOM     13  C   UNL     1      35.236  13.963   2.759  0.00  0.00    +0.076 C 
ATOM     14  C   UNL     1      34.840  13.204   1.483  0.00  0.00    +0.177 C 
ATOM     15  O   UNL     1      35.945  13.150   0.592  0.00  0.00    -0.221 OA
ATOM     16  C   UNL     1      33.605  13.884   0.814  0.00  0.00    +0.155 C 
BRANCH  16  17
ATOM     17  N   UNL     1      33.229  13.169  -0.403  0.00  0.00    -0.202 NA
ATOM     18  C   UNL     1      33.185  13.606  -1.688  0.00  0.00    +0.242 C 
ATOM     19  C   UNL     1      33.049  12.584  -2.787  0.00  0.00    +0.096 C 
ATOM     20  O   UNL     1      33.258  14.810  -1.922  0.00  0.00    -0.273 OA
ENDBRANCH  16  17
BRANCH  12  21
ATOM     21  C   UNL     1      33.819  12.499   4.401  0.00  0.00    +0.391 C 
ATOM     22  O   UNL     1      32.519  12.200   4.216  0.00  0.00    -0.243 OA
ATOM     23  O   UNL     1      35.051  12.022   4.621  0.00  0.00    -0.243 OA
ENDBRANCH  12  21
ENDBRANCH   8  10
ENDBRANCH   6   8
ENDBRANCH   5   6
ENDBRANCH   2   5
BRANCH   1  24
ATOM     24  O   UNL     1      27.893  17.067  -1.817  0.00  0.00    -0.450 OA
BRANCH  24  25
ATOM     25  C   UNL     1      27.033  17.504  -2.844  0.00  0.00    +0.240 C 
BRANCH  25  26
ATOM     26  C   UNL     1      26.991  16.668  -4.138  0.00  0.00    +0.100 C 
BRANCH  26  28
ATOM     27  N   UNL     1      24.842  15.885  -3.168  0.00  0.00    -0.134 NA
ATOM     28  C   UNL     1      25.732  15.901  -4.211  0.00  0.00    +0.086 A 
ATOM     29  C   UNL     1      25.236  15.128  -5.234  0.00  0.00    +0.134 A 
ATOM     30  N   UNL     1      24.052  14.653  -4.751  0.00  0.00    -0.243 N 
ATOM     31  N   UNL     1      23.811  15.124  -3.514  0.00  0.00    -0.065 NA
BRANCH  30  32
ATOM     32  C   UNL     1      23.050  13.858  -5.430  0.00  0.00    +0.241 C 
BRANCH  32  33
ATOM     33  C   UNL     1      21.655  14.218  -4.991  0.00  0.00    +0.241 C 
ATOM     34  O   UNL     1      20.912  13.354  -4.528  0.00  0.00    -0.273 OA
ATOM     35  N   UNL     1      21.302  15.530  -5.226  0.00  0.00    -0.253 N 
ATOM     36  H   UNL     1      21.867  16.147  -5.788  0.00  0.00    +0.158 HD
ATOM     37  C   UNL     1      20.072  16.075  -4.874  0.00  0.00    +0.221 A 
ATOM     38  N   UNL     1      19.791  17.264  -5.431  0.00  0.00    -0.223 NA
ATOM     39  C   UNL     1      18.571  17.773  -5.161  0.00  0.00    +0.116 A 
ATOM     40  C   UNL     1      17.649  17.160  -4.345  0.00  0.00    +0.039 A 
ATOM     41  C   UNL     1      18.056  15.975  -3.792  0.00  0.00    +0.116 A 
ATOM     42  N   UNL     1      19.253  15.424  -4.043  0.00  0.00    -0.223 NA
ENDBRANCH  32  33
ENDBRANCH  30  32
ENDBRANCH  26  28
ENDBRANCH  25  26
ENDBRANCH  24  25
ENDBRANCH   1  24
TORSDOF 12
