REMARK VINA RESULT:    -6.555     23.467     25.726
REMARK INTER + INTRA:         -12.968
REMARK INTER:                 -11.536
REMARK INTRA:                  -1.431
REMARK UNBOUND:                -1.431
REMARK  Name = lig_assembled_36.pdb
REMARK  13 active torsions:
REMARK  status: ('A' for Active; 'I' for Inactive)
REMARK    1  A    between atoms: _2  and  _9
REMARK    2  A    between atoms: _6  and  _7
REMARK    3  A    between atoms: _6  and  _16
REMARK    4  A    between atoms: _9  and  _10
REMARK    5  A    between atoms: _13  and  _14
REMARK    6  A    between atoms: _16  and  _18
REMARK    7  A    between atoms: _17  and  _22
REMARK    8  A    between atoms: _18  and  _21
REMARK    9  A    between atoms: _26  and  _36
REMARK   10  A    between atoms: _28  and  _29
REMARK   11  A    between atoms: _30  and  _32
REMARK   12  A    between atoms: _32  and  _34
REMARK   13  A    between atoms: _34  and  _36
REMARK                            x       y       z     vdW  Elec       q    Type
REMARK                         _______ _______ _______ _____ _____    ______ ____
ROOT
ATOM      1  C   UNL     1      33.656  41.403   7.557  0.00  0.00    +0.400 C 
ATOM      2  N   UNL     1      35.028  41.325   7.590  0.00  0.00    -0.278 N 
ATOM      3  H   UNL     1      35.338  42.325   7.378  0.00  0.00    +0.152 HD
ATOM      4  O   UNL     1      33.141  42.516   7.492  0.00  0.00    -0.226 OA
ENDROOT
BRANCH   1   5
ATOM      5  O   UNL     1      33.031  40.272   7.568  0.00  0.00    -0.450 OA
BRANCH   5   6
ATOM      6  C   UNL     1      31.848  39.710   8.088  0.00  0.00    +0.240 C 
BRANCH   6   7
ATOM      7  C   UNL     1      30.517  40.123   7.432  0.00  0.00    +0.100 C 
BRANCH   7   9
ATOM      8  N   UNL     1      29.872  38.878   5.390  0.00  0.00    -0.134 NA
ATOM      9  C   UNL     1      29.899  38.967   6.757  0.00  0.00    +0.086 A 
ATOM     10  C   UNL     1      29.307  37.845   7.294  0.00  0.00    +0.134 A 
ATOM     11  N   UNL     1      29.029  37.072   6.206  0.00  0.00    -0.247 N 
ATOM     12  N   UNL     1      29.318  37.718   5.061  0.00  0.00    -0.065 NA
BRANCH  11  13
ATOM     13  C   UNL     1      28.512  35.719   6.181  0.00  0.00    +0.180 C 
BRANCH  13  14
ATOM     14  C   UNL     1      27.958  35.318   7.528  0.00  0.00    -0.026 A 
ATOM     15  C   UNL     1      26.679  35.731   7.934  0.00  0.00    +0.007 A 
ATOM     16  C   UNL     1      26.173  35.351   9.181  0.00  0.00    +0.019 A 
ATOM     17  C   UNL     1      26.938  34.559  10.041  0.00  0.00    +0.052 A 
ATOM     18  C   UNL     1      28.222  34.163   9.655  0.00  0.00    +0.019 A 
ATOM     19  C   UNL     1      28.729  34.544   8.409  0.00  0.00    +0.007 A 
BRANCH  17  20
ATOM     20  C   UNL     1      26.408  34.152  11.311  0.00  0.00    +0.099 C 
ATOM     21  N   UNL     1      25.970  33.828  12.335  0.00  0.00    -0.191 NA
ENDBRANCH  17  20
ENDBRANCH  13  14
ENDBRANCH  11  13
ENDBRANCH   7   9
ENDBRANCH   6   7
ENDBRANCH   5   6
ENDBRANCH   1   5
BRANCH   2  22
ATOM     22  C   UNL     1      36.224  40.510   7.795  0.00  0.00    +0.152 C 
BRANCH  22  23
ATOM     23  C   UNL     1      37.024  40.148   6.527  0.00  0.00    +0.193 C 
ATOM     24  O   UNL     1      38.380  39.888   6.952  0.00  0.00    -0.219 OA
BRANCH  23  25
ATOM     25  C   UNL     1      36.610  38.873   5.759  0.00  0.00    +0.212 C 
ATOM     26  O   UNL     1      35.280  38.475   6.129  0.00  0.00    -0.218 OA
BRANCH  25  27
ATOM     27  C   UNL     1      36.668  39.040   4.193  0.00  0.00    +0.171 C 
ATOM     28  O   UNL     1      35.420  38.764   3.566  0.00  0.00    -0.343 OA
ATOM     29  C   UNL     1      35.250  38.599   2.189  0.00  0.00    +0.220 C 
ATOM     30  C   UNL     1      36.255  37.590   1.607  0.00  0.00    +0.076 C 
ATOM     31  C   UNL     1      37.662  38.039   2.035  0.00  0.00    +0.177 C 
ATOM     32  O   UNL     1      38.635  37.160   1.489  0.00  0.00    -0.221 OA
ATOM     33  C   UNL     1      37.758  38.093   3.592  0.00  0.00    +0.155 C 
BRANCH  33  34
ATOM     34  N   UNL     1      39.095  38.512   4.003  0.00  0.00    -0.202 NA
ATOM     35  C   UNL     1      40.155  37.764   4.403  0.00  0.00    +0.242 C 
ATOM     36  C   UNL     1      41.506  38.425   4.488  0.00  0.00    +0.096 C 
ATOM     37  O   UNL     1      39.990  36.578   4.682  0.00  0.00    -0.273 OA
ENDBRANCH  33  34
BRANCH  29  38
ATOM     38  C   UNL     1      35.261  39.998   1.363  0.00  0.00    +0.391 C 
ATOM     39  O   UNL     1      35.726  39.675   0.140  0.00  0.00    -0.243 OA
ATOM     40  O   UNL     1      34.539  40.861   2.088  0.00  0.00    -0.243 OA
ENDBRANCH  29  38
ENDBRANCH  25  27
ENDBRANCH  23  25
ENDBRANCH  22  23
ENDBRANCH   2  22
TORSDOF 13
