REMARK VINA RESULT:    -6.221      2.065      3.002
REMARK INTER + INTRA:         -13.598
REMARK INTER:                 -11.117
REMARK INTRA:                  -2.481
REMARK UNBOUND:                -2.286
REMARK  Name = lig_assembled_62.pdb
REMARK  15 active torsions:
REMARK  status: ('A' for Active; 'I' for Inactive)
REMARK    1  A    between atoms: _2  and  _9
REMARK    2  A    between atoms: _5  and  _9
REMARK    3  A    between atoms: _6  and  _7
REMARK    4  A    between atoms: _6  and  _14
REMARK    5  A    between atoms: _9  and  _10
REMARK    6  A    between atoms: _10  and  _13
REMARK    7  A    between atoms: _11  and  _13
REMARK    8  A    between atoms: _14  and  _16
REMARK    9  A    between atoms: _15  and  _20
REMARK   10  A    between atoms: _16  and  _19
REMARK   11  A    between atoms: _24  and  _34
REMARK   12  A    between atoms: _26  and  _27
REMARK   13  A    between atoms: _28  and  _30
REMARK   14  A    between atoms: _30  and  _32
REMARK   15  A    between atoms: _32  and  _34
REMARK                            x       y       z     vdW  Elec       q    Type
REMARK                         _______ _______ _______ _____ _____    ______ ____
ROOT
ATOM      1  C   UNL     1      28.162  16.852  -0.803  0.00  0.00    +0.400 C 
ATOM      2  N   UNL     1      28.335  15.607  -0.246  0.00  0.00    -0.278 N 
ATOM      3  H   UNL     1      28.678  15.825   0.743  0.00  0.00    +0.152 HD
ATOM      4  O   UNL     1      28.242  17.833  -0.067  0.00  0.00    -0.226 OA
ENDROOT
BRANCH   2   5
ATOM      5  C   UNL     1      28.249  14.157  -0.391  0.00  0.00    +0.152 C 
BRANCH   5   6
ATOM      6  C   UNL     1      27.957  13.361   0.898  0.00  0.00    +0.193 C 
ATOM      7  O   UNL     1      28.484  12.031   0.694  0.00  0.00    -0.219 OA
BRANCH   6   8
ATOM      8  C   UNL     1      28.627  13.844   2.204  0.00  0.00    +0.212 C 
ATOM      9  O   UNL     1      27.652  13.969   3.251  0.00  0.00    -0.218 OA
BRANCH   8  10
ATOM     10  C   UNL     1      29.782  12.894   2.701  0.00  0.00    +0.171 C 
ATOM     11  O   UNL     1      29.568  12.419   4.026  0.00  0.00    -0.343 OA
ATOM     12  C   UNL     1      30.535  11.768   4.796  0.00  0.00    +0.220 C 
ATOM     13  C   UNL     1      31.859  12.551   4.830  0.00  0.00    +0.076 C 
ATOM     14  C   UNL     1      32.270  12.828   3.375  0.00  0.00    +0.177 C 
ATOM     15  O   UNL     1      33.512  13.517   3.348  0.00  0.00    -0.221 OA
ATOM     16  C   UNL     1      31.154  13.642   2.648  0.00  0.00    +0.155 C 
BRANCH  16  17
ATOM     17  N   UNL     1      31.544  13.914   1.266  0.00  0.00    -0.202 NA
ATOM     18  C   UNL     1      31.613  15.095   0.601  0.00  0.00    +0.242 C 
ATOM     19  C   UNL     1      32.327  15.128  -0.726  0.00  0.00    +0.096 C 
ATOM     20  O   UNL     1      31.100  16.099   1.090  0.00  0.00    -0.273 OA
ENDBRANCH  16  17
BRANCH  12  21
ATOM     21  C   UNL     1      30.768  10.218   4.367  0.00  0.00    +0.391 C 
ATOM     22  O   UNL     1      31.808   9.803   5.117  0.00  0.00    -0.243 OA
ATOM     23  O   UNL     1      29.680   9.858   3.676  0.00  0.00    -0.243 OA
ENDBRANCH  12  21
ENDBRANCH   8  10
ENDBRANCH   6   8
ENDBRANCH   5   6
ENDBRANCH   2   5
BRANCH   1  24
ATOM     24  O   UNL     1      27.957  16.871  -2.079  0.00  0.00    -0.450 OA
BRANCH  24  25
ATOM     25  C   UNL     1      27.014  17.361  -3.003  0.00  0.00    +0.240 C 
BRANCH  25  26
ATOM     26  C   UNL     1      26.549  16.406  -4.119  0.00  0.00    +0.100 C 
BRANCH  26  28
ATOM     27  N   UNL     1      24.530  15.064  -4.625  0.00  0.00    -0.134 NA
ATOM     28  C   UNL     1      25.331  15.686  -3.705  0.00  0.00    +0.086 A 
ATOM     29  C   UNL     1      24.797  15.501  -2.449  0.00  0.00    +0.134 A 
ATOM     30  N   UNL     1      23.664  14.774  -2.671  0.00  0.00    -0.237 N 
ATOM     31  N   UNL     1      23.514  14.508  -3.983  0.00  0.00    -0.065 NA
BRANCH  30  32
ATOM     32  C   UNL     1      22.693  14.261  -1.720  0.00  0.00    +0.219 C 
BRANCH  32  33
ATOM     33  C   UNL     1      23.044  12.838  -1.320  0.00  0.00    +0.237 C 
ATOM     34  O   UNL     1      22.910  12.386  -0.185  0.00  0.00    -0.274 OA
ATOM     35  N   UNL     1      23.477  12.019  -2.327  0.00  0.00    -0.328 N 
ATOM     36  H   UNL     1      23.523  12.298  -3.299  0.00  0.00    +0.145 HD
ATOM     37  H   UNL     1      23.709  11.063  -2.090  0.00  0.00    +0.145 HD
ENDBRANCH  32  33
BRANCH  32  38
ATOM     38  C   UNL     1      21.281  14.334  -2.297  0.00  0.00    +0.195 C 
BRANCH  38  39
ATOM     39  O   UNL     1      20.794  13.006  -2.534  0.00  0.00    -0.380 OA
ATOM     40  C   UNL     1      19.484  13.015  -3.086  0.00  0.00    +0.194 C 
ENDBRANCH  38  39
ENDBRANCH  32  38
ENDBRANCH  30  32
ENDBRANCH  26  28
ENDBRANCH  25  26
ENDBRANCH  24  25
ENDBRANCH   1  24
TORSDOF 14
