REMARK VINA RESULT:    -6.497      2.481      8.853
REMARK INTER + INTRA:         -13.638
REMARK INTER:                 -11.328
REMARK INTRA:                  -2.310
REMARK UNBOUND:                -1.823
REMARK  Name = lig_assembled_12.pdb
REMARK  14 active torsions:
REMARK  status: ('A' for Active; 'I' for Inactive)
REMARK    1  A    between atoms: _2  and  _8
REMARK    2  A    between atoms: _5  and  _6
REMARK    3  A    between atoms: _5  and  _16
REMARK    4  A    between atoms: _8  and  _15
REMARK    5  A    between atoms: _9  and  _10
REMARK    6  A    between atoms: _9  and  _15
REMARK    7  A    between atoms: _16  and  _18
REMARK    8  A    between atoms: _17  and  _22
REMARK    9  A    between atoms: _18  and  _21
REMARK   10  A    between atoms: _26  and  _36
REMARK   11  A    between atoms: _28  and  _29
REMARK   12  A    between atoms: _30  and  _32
REMARK   13  A    between atoms: _32  and  _34
REMARK   14  A    between atoms: _34  and  _36
REMARK                            x       y       z     vdW  Elec       q    Type
REMARK                         _______ _______ _______ _____ _____    ______ ____
ROOT
ATOM      1  C   UNL     1      26.358  14.963  -5.148  0.00  0.00    +0.400 C 
ATOM      2  N   UNL     1      25.079  14.464  -5.076  0.00  0.00    -0.278 N 
ATOM      3  H   UNL     1      25.164  13.502  -5.535  0.00  0.00    +0.152 HD
ATOM      4  O   UNL     1      27.257  14.206  -5.505  0.00  0.00    -0.226 OA
ENDROOT
BRANCH   2   5
ATOM      5  C   UNL     1      23.694  14.647  -4.653  0.00  0.00    +0.152 C 
BRANCH   5   6
ATOM      6  C   UNL     1      23.467  14.849  -3.140  0.00  0.00    +0.193 C 
ATOM      7  O   UNL     1      22.306  15.698  -3.005  0.00  0.00    -0.219 OA
BRANCH   6   8
ATOM      8  C   UNL     1      23.132  13.601  -2.295  0.00  0.00    +0.212 C 
ATOM      9  O   UNL     1      22.357  12.666  -3.064  0.00  0.00    -0.218 OA
BRANCH   8  10
ATOM     10  C   UNL     1      24.409  12.861  -1.741  0.00  0.00    +0.171 C 
ATOM     11  O   UNL     1      25.329  12.512  -2.769  0.00  0.00    -0.343 OA
ATOM     12  C   UNL     1      26.412  11.647  -2.598  0.00  0.00    +0.220 C 
ATOM     13  C   UNL     1      25.987  10.325  -1.936  0.00  0.00    +0.076 C 
ATOM     14  C   UNL     1      25.228  10.676  -0.645  0.00  0.00    +0.177 C 
ATOM     15  O   UNL     1      24.846   9.485   0.029  0.00  0.00    -0.221 OA
ATOM     16  C   UNL     1      23.988  11.563  -0.976  0.00  0.00    +0.155 C 
BRANCH  16  17
ATOM     17  N   UNL     1      23.261  11.894   0.247  0.00  0.00    -0.202 NA
ATOM     18  C   UNL     1      21.964  11.663   0.575  0.00  0.00    +0.242 C 
ATOM     19  C   UNL     1      21.546  11.840   2.011  0.00  0.00    +0.096 C 
ATOM     20  O   UNL     1      21.169  11.317  -0.297  0.00  0.00    -0.273 OA
ENDBRANCH  16  17
BRANCH  12  21
ATOM     21  C   UNL     1      27.666  12.327  -1.821  0.00  0.00    +0.391 C 
ATOM     22  O   UNL     1      27.846  11.570  -0.721  0.00  0.00    -0.243 OA
ATOM     23  O   UNL     1      28.227  13.173  -2.694  0.00  0.00    -0.243 OA
ENDBRANCH  12  21
ENDBRANCH   8  10
ENDBRANCH   6   8
ENDBRANCH   5   6
ENDBRANCH   2   5
BRANCH   1  24
ATOM     24  O   UNL     1      26.487  16.216  -4.855  0.00  0.00    -0.450 OA
BRANCH  24  25
ATOM     25  C   UNL     1      26.802  17.028  -3.748  0.00  0.00    +0.240 C 
BRANCH  25  26
ATOM     26  C   UNL     1      26.604  16.423  -2.345  0.00  0.00    +0.100 C 
BRANCH  26  28
ATOM     27  N   UNL     1      28.091  18.032  -1.184  0.00  0.00    -0.134 NA
ATOM     28  C   UNL     1      27.758  16.735  -1.482  0.00  0.00    +0.086 A 
ATOM     29  C   UNL     1      28.648  15.890  -0.863  0.00  0.00    +0.136 A 
ATOM     30  N   UNL     1      29.516  16.729  -0.228  0.00  0.00    -0.226 N 
ATOM     31  N   UNL     1      29.164  18.017  -0.404  0.00  0.00    -0.063 NA
BRANCH  30  32
ATOM     32  C   UNL     1      30.663  16.392   0.597  0.00  0.00    +0.305 C 
BRANCH  32  33
ATOM     33  O   UNL     1      30.718  14.977   0.767  0.00  0.00    -0.353 OA
BRANCH  33  34
ATOM     34  C   UNL     1      32.056  14.498   0.758  0.00  0.00    +0.197 C 
BRANCH  34  35
ATOM     35  C   UNL     1      32.377  14.080  -0.651  0.00  0.00    -0.022 A 
ATOM     36  C   UNL     1      33.460  14.652  -1.334  0.00  0.00    +0.006 A 
ATOM     37  C   UNL     1      33.734  14.293  -2.655  0.00  0.00    +0.000 A 
ATOM     38  C   UNL     1      32.926  13.366  -3.308  0.00  0.00    +0.000 A 
ATOM     39  C   UNL     1      31.839  12.799  -2.644  0.00  0.00    +0.000 A 
ATOM     40  C   UNL     1      31.563  13.157  -1.322  0.00  0.00    +0.006 A 
ENDBRANCH  34  35
ENDBRANCH  33  34
ENDBRANCH  32  33
ENDBRANCH  30  32
ENDBRANCH  26  28
ENDBRANCH  25  26
ENDBRANCH  24  25
ENDBRANCH   1  24
TORSDOF 14
