REMARK VINA RESULT:    -7.241      3.552      7.769
REMARK INTER + INTRA:         -13.673
REMARK INTER:                 -11.217
REMARK INTRA:                  -2.456
REMARK UNBOUND:                -1.775
REMARK  Name = lig_assembled_42.pdb
REMARK  11 active torsions:
REMARK  status: ('A' for Active; 'I' for Inactive)
REMARK    1  A    between atoms: _2  and  _8
REMARK    2  A    between atoms: _5  and  _6
REMARK    3  A    between atoms: _5  and  _16
REMARK    4  A    between atoms: _16  and  _18
REMARK    5  A    between atoms: _17  and  _22
REMARK    6  A    between atoms: _18  and  _21
REMARK    7  A    between atoms: _26  and  _36
REMARK    8  A    between atoms: _28  and  _29
REMARK    9  A    between atoms: _30  and  _32
REMARK   10  A    between atoms: _32  and  _34
REMARK   11  A    between atoms: _34  and  _36
REMARK                            x       y       z     vdW  Elec       q    Type
REMARK                         _______ _______ _______ _____ _____    ______ ____
ROOT
ATOM      1  C   UNL     1      27.912  17.730  -1.080  0.00  0.00    +0.400 C 
ATOM      2  N   UNL     1      27.192  17.526  -2.234  0.00  0.00    -0.278 N 
ATOM      3  H   UNL     1      26.238  17.952  -2.009  0.00  0.00    +0.152 HD
ATOM      4  O   UNL     1      27.423  18.448  -0.212  0.00  0.00    -0.226 OA
ENDROOT
BRANCH   1   5
ATOM      5  O   UNL     1      29.042  17.108  -1.009  0.00  0.00    -0.450 OA
BRANCH   5   6
ATOM      6  C   UNL     1      30.108  16.930  -0.105  0.00  0.00    +0.240 C 
BRANCH   6   7
ATOM      7  C   UNL     1      30.726  15.522  -0.003  0.00  0.00    +0.100 C 
BRANCH   7   9
ATOM      8  N   UNL     1      30.064  14.340   2.076  0.00  0.00    -0.134 NA
ATOM      9  C   UNL     1      29.840  14.623   0.759  0.00  0.00    +0.086 A 
ATOM     10  C   UNL     1      28.719  13.948   0.342  0.00  0.00    +0.139 A 
ATOM     11  N   UNL     1      28.282  13.258   1.447  0.00  0.00    -0.220 N 
ATOM     12  N   UNL     1      29.113  13.510   2.488  0.00  0.00    -0.061 NA
BRANCH  11  13
ATOM     13  C   UNL     1      27.159  12.398   1.559  0.00  0.00    +0.071 A 
ATOM     14  C   UNL     1      27.063  11.505   2.636  0.00  0.00    +0.077 A 
ATOM     15  C   UNL     1      25.952  10.691   2.700  0.00  0.00    +0.168 A 
ATOM     16  O   UNL     1      25.707   9.778   3.676  0.00  0.00    -0.453 OA
ATOM     17  C   UNL     1      24.438   9.252   3.238  0.00  0.00    +0.466 C 
ATOM     18  O   UNL     1      23.960   9.851   2.014  0.00  0.00    -0.453 OA
ATOM     19  C   UNL     1      24.959  10.735   1.753  0.00  0.00    +0.166 A 
ATOM     20  C   UNL     1      25.020  11.599   0.680  0.00  0.00    +0.051 A 
ATOM     21  C   UNL     1      26.135  12.442   0.582  0.00  0.00    +0.031 A 
ENDBRANCH  11  13
ENDBRANCH   7   9
ENDBRANCH   6   7
ENDBRANCH   5   6
ENDBRANCH   1   5
BRANCH   2  22
ATOM     22  C   UNL     1      27.151  17.013  -3.601  0.00  0.00    +0.152 C 
BRANCH  22  23
ATOM     23  C   UNL     1      25.925  16.152  -3.968  0.00  0.00    +0.193 C 
ATOM     24  O   UNL     1      26.019  15.876  -5.383  0.00  0.00    -0.219 OA
BRANCH  23  25
ATOM     25  C   UNL     1      25.807  14.759  -3.311  0.00  0.00    +0.212 C 
ATOM     26  O   UNL     1      26.390  14.772  -1.998  0.00  0.00    -0.218 OA
BRANCH  25  27
ATOM     27  C   UNL     1      24.321  14.245  -3.197  0.00  0.00    +0.171 C 
ATOM     28  O   UNL     1      23.602  14.879  -2.144  0.00  0.00    -0.343 OA
ATOM     29  C   UNL     1      22.361  14.449  -1.667  0.00  0.00    +0.220 C 
ATOM     30  C   UNL     1      22.366  12.946  -1.340  0.00  0.00    +0.076 C 
ATOM     31  C   UNL     1      22.873  12.202  -2.586  0.00  0.00    +0.177 C 
ATOM     32  O   UNL     1      22.859  10.801  -2.350  0.00  0.00    -0.221 OA
ATOM     33  C   UNL     1      24.303  12.699  -2.964  0.00  0.00    +0.155 C 
BRANCH  33  34
ATOM     34  N   UNL     1      24.792  11.990  -4.143  0.00  0.00    -0.202 NA
ATOM     35  C   UNL     1      25.910  11.237  -4.302  0.00  0.00    +0.242 C 
ATOM     36  C   UNL     1      26.024  10.377  -5.534  0.00  0.00    +0.096 C 
ATOM     37  O   UNL     1      26.792  11.272  -3.447  0.00  0.00    -0.273 OA
ENDBRANCH  33  34
BRANCH  29  38
ATOM     38  C   UNL     1      21.122  14.844  -2.641  0.00  0.00    +0.391 C 
ATOM     39  O   UNL     1      20.073  14.140  -2.171  0.00  0.00    -0.243 OA
ATOM     40  O   UNL     1      21.522  15.920  -3.330  0.00  0.00    -0.243 OA
ENDBRANCH  29  38
ENDBRANCH  25  27
ENDBRANCH  23  25
ENDBRANCH  22  23
ENDBRANCH   2  22
TORSDOF 11
