REMARK VINA RESULT:    -6.929      2.189      4.173
REMARK INTER + INTRA:         -13.575
REMARK INTER:                 -12.157
REMARK INTRA:                  -1.418
REMARK UNBOUND:                -2.191
REMARK  Name = lig_assembled_93.pdb
REMARK  11 active torsions:
REMARK  status: ('A' for Active; 'I' for Inactive)
REMARK    1  A    between atoms: _2  and  _8
REMARK    2  A    between atoms: _5  and  _6
REMARK    3  A    between atoms: _5  and  _13
REMARK    4  A    between atoms: _13  and  _15
REMARK    5  A    between atoms: _14  and  _19
REMARK    6  A    between atoms: _15  and  _18
REMARK    7  A    between atoms: _23  and  _33
REMARK    8  A    between atoms: _25  and  _26
REMARK    9  A    between atoms: _27  and  _29
REMARK   10  A    between atoms: _29  and  _31
REMARK   11  A    between atoms: _31  and  _33
REMARK                            x       y       z     vdW  Elec       q    Type
REMARK                         _______ _______ _______ _____ _____    ______ ____
ROOT
ATOM      1  C   UNL     1      28.317  17.589  -0.632  0.00  0.00    +0.400 C 
ATOM      2  N   UNL     1      29.465  17.631   0.125  0.00  0.00    -0.278 N 
ATOM      3  H   UNL     1      29.388  18.565   0.638  0.00  0.00    +0.152 HD
ATOM      4  O   UNL     1      27.459  18.444  -0.430  0.00  0.00    -0.226 OA
ENDROOT
BRANCH   1   5
ATOM      5  O   UNL     1      28.268  16.653  -1.521  0.00  0.00    -0.450 OA
BRANCH   5   6
ATOM      6  C   UNL     1      27.311  15.865  -2.191  0.00  0.00    +0.240 C 
BRANCH   6   7
ATOM      7  C   UNL     1      26.586  16.497  -3.395  0.00  0.00    +0.100 C 
BRANCH   7   9
ATOM      8  N   UNL     1      25.032  15.132  -4.739  0.00  0.00    -0.134 NA
ATOM      9  C   UNL     1      25.283  15.841  -3.608  0.00  0.00    +0.086 A 
ATOM     10  C   UNL     1      24.168  15.803  -2.802  0.00  0.00    +0.139 A 
ATOM     11  N   UNL     1      23.243  15.027  -3.483  0.00  0.00    -0.219 N 
ATOM     12  N   UNL     1      23.801  14.651  -4.655  0.00  0.00    -0.061 NA
BRANCH  11  13
ATOM     13  C   UNL     1      21.929  14.649  -3.065  0.00  0.00    +0.080 A 
ATOM     14  C   UNL     1      20.835  15.328  -3.652  0.00  0.00    +0.029 A 
ATOM     15  C   UNL     1      19.513  15.043  -3.295  0.00  0.00    +0.002 A 
ATOM     16  C   UNL     1      19.248  14.073  -2.342  0.00  0.00    +0.001 A 
ATOM     17  C   UNL     1      20.306  13.386  -1.752  0.00  0.00    +0.016 A 
ATOM     18  C   UNL     1      21.645  13.659  -2.101  0.00  0.00    +0.039 A 
ATOM     19  I   UNL     1      23.017  12.448  -1.038  0.00  0.00    -0.042 I 
ENDBRANCH  11  13
ENDBRANCH   7   9
ENDBRANCH   6   7
ENDBRANCH   5   6
ENDBRANCH   1   5
BRANCH   2  20
ATOM     20  C   UNL     1      30.704  16.981   0.543  0.00  0.00    +0.152 C 
BRANCH  20  21
ATOM     21  C   UNL     1      30.858  15.497   0.152  0.00  0.00    +0.193 C 
ATOM     22  O   UNL     1      31.917  15.434  -0.829  0.00  0.00    -0.219 OA
BRANCH  21  23
ATOM     23  C   UNL     1      31.296  14.509   1.255  0.00  0.00    +0.212 C 
ATOM     24  O   UNL     1      31.692  15.221   2.438  0.00  0.00    -0.218 OA
BRANCH  23  25
ATOM     25  C   UNL     1      30.175  13.470   1.643  0.00  0.00    +0.171 C 
ATOM     26  O   UNL     1      28.871  14.040   1.626  0.00  0.00    -0.343 OA
ATOM     27  C   UNL     1      27.735  13.425   2.157  0.00  0.00    +0.220 C 
ATOM     28  C   UNL     1      27.970  12.937   3.597  0.00  0.00    +0.076 C 
ATOM     29  C   UNL     1      29.235  12.063   3.588  0.00  0.00    +0.177 C 
ATOM     30  O   UNL     1      29.477  11.552   4.891  0.00  0.00    -0.221 OA
ATOM     31  C   UNL     1      30.454  12.887   3.067  0.00  0.00    +0.155 C 
BRANCH  31  32
ATOM     32  N   UNL     1      31.660  12.062   3.064  0.00  0.00    -0.202 NA
ATOM     33  C   UNL     1      32.724  12.078   3.905  0.00  0.00    +0.242 C 
ATOM     34  C   UNL     1      33.694  10.926   3.855  0.00  0.00    +0.096 C 
ATOM     35  O   UNL     1      32.871  13.020   4.682  0.00  0.00    -0.273 OA
ENDBRANCH  31  32
BRANCH  27  36
ATOM     36  C   UNL     1      27.140  12.242   1.215  0.00  0.00    +0.391 C 
ATOM     37  O   UNL     1      26.198  11.640   1.967  0.00  0.00    -0.243 OA
ATOM     38  O   UNL     1      27.581  12.498  -0.023  0.00  0.00    -0.243 OA
ENDBRANCH  27  36
ENDBRANCH  23  25
ENDBRANCH  21  23
ENDBRANCH  20  21
ENDBRANCH   2  20
TORSDOF 11
