REMARK VINA RESULT:    -6.299      3.027      4.714
REMARK INTER + INTRA:         -12.349
REMARK INTER:                 -11.055
REMARK INTRA:                  -1.294
REMARK UNBOUND:                -1.999
REMARK  Name = lig_assembled_57.pdb
REMARK  12 active torsions:
REMARK  status: ('A' for Active; 'I' for Inactive)
REMARK    1  A    between atoms: _2  and  _9
REMARK    2  A    between atoms: _3  and  _12
REMARK    3  A    between atoms: _6  and  _7
REMARK    4  A    between atoms: _6  and  _14
REMARK    5  A    between atoms: _14  and  _16
REMARK    6  A    between atoms: _15  and  _20
REMARK    7  A    between atoms: _16  and  _19
REMARK    8  A    between atoms: _24  and  _34
REMARK    9  A    between atoms: _26  and  _27
REMARK   10  A    between atoms: _28  and  _30
REMARK   11  A    between atoms: _30  and  _32
REMARK   12  A    between atoms: _32  and  _34
REMARK                            x       y       z     vdW  Elec       q    Type
REMARK                         _______ _______ _______ _____ _____    ______ ____
ROOT
ATOM      1  C   UNL     1      27.697  17.474  -1.459  0.00  0.00    +0.400 C 
ATOM      2  N   UNL     1      26.705  16.737  -2.061  0.00  0.00    -0.278 N 
ATOM      3  H   UNL     1      25.872  17.407  -2.072  0.00  0.00    +0.152 HD
ATOM      4  O   UNL     1      27.494  18.669  -1.262  0.00  0.00    -0.226 OA
ENDROOT
BRANCH   1   5
ATOM      5  O   UNL     1      28.758  16.815  -1.123  0.00  0.00    -0.450 OA
BRANCH   5   6
ATOM      6  C   UNL     1      29.154  15.829  -0.199  0.00  0.00    +0.240 C 
BRANCH   6   7
ATOM      7  C   UNL     1      29.467  14.424  -0.749  0.00  0.00    +0.100 C 
BRANCH   7   9
ATOM      8  N   UNL     1      31.916  14.724  -0.856  0.00  0.00    -0.134 NA
ATOM      9  C   UNL     1      30.839  14.032  -0.379  0.00  0.00    +0.086 A 
ATOM     10  C   UNL     1      31.282  13.023   0.450  0.00  0.00    +0.134 A 
ATOM     11  N   UNL     1      32.631  13.207   0.508  0.00  0.00    -0.248 N 
ATOM     12  N   UNL     1      33.010  14.188  -0.338  0.00  0.00    -0.065 NA
BRANCH  11  13
ATOM     13  C   UNL     1      33.647  12.584   1.348  0.00  0.00    +0.111 C 
ATOM     14  C   UNL     1      34.456  13.649   2.104  0.00  0.00    +0.042 C 
ATOM     15  C   UNL     1      33.629  14.240   3.243  0.00  0.00    +0.086 C 
ATOM     16  N   UNL     1      33.187  13.232   4.213  0.00  0.00    -0.305 NA
ATOM     17  C   UNL     1      32.464  12.126   3.582  0.00  0.00    +0.086 C 
ATOM     18  C   UNL     1      34.273  12.780   5.077  0.00  0.00    +0.104 C 
ATOM     19  C   UNL     1      33.148  11.526   2.345  0.00  0.00    +0.042 C 
ENDBRANCH  11  13
ENDBRANCH   7   9
ENDBRANCH   6   7
ENDBRANCH   5   6
ENDBRANCH   1   5
BRANCH   2  20
ATOM     20  C   UNL     1      26.292  15.486  -2.691  0.00  0.00    +0.152 C 
BRANCH  20  21
ATOM     21  C   UNL     1      25.295  15.610  -3.861  0.00  0.00    +0.193 C 
ATOM     22  O   UNL     1      26.077  15.870  -5.048  0.00  0.00    -0.219 OA
BRANCH  21  23
ATOM     23  C   UNL     1      24.453  14.365  -4.219  0.00  0.00    +0.212 C 
ATOM     24  O   UNL     1      25.293  13.329  -4.753  0.00  0.00    -0.218 OA
BRANCH  23  25
ATOM     25  C   UNL     1      23.650  13.782  -2.995  0.00  0.00    +0.171 C 
ATOM     26  O   UNL     1      24.108  12.492  -2.603  0.00  0.00    -0.343 OA
ATOM     27  C   UNL     1      23.430  11.649  -1.720  0.00  0.00    +0.220 C 
ATOM     28  C   UNL     1      21.953  11.477  -2.116  0.00  0.00    +0.076 C 
ATOM     29  C   UNL     1      21.347  12.882  -2.265  0.00  0.00    +0.177 C 
ATOM     30  O   UNL     1      19.968  12.780  -2.592  0.00  0.00    -0.221 OA
ATOM     31  C   UNL     1      22.128  13.693  -3.345  0.00  0.00    +0.155 C 
BRANCH  31  32
ATOM     32  N   UNL     1      21.551  15.027  -3.494  0.00  0.00    -0.202 NA
ATOM     33  C   UNL     1      20.897  15.577  -4.549  0.00  0.00    +0.242 C 
ATOM     34  C   UNL     1      20.147  16.865  -4.332  0.00  0.00    +0.096 C 
ATOM     35  O   UNL     1      20.931  15.018  -5.643  0.00  0.00    -0.273 OA
ENDBRANCH  31  32
BRANCH  27  36
ATOM     36  C   UNL     1      23.583  12.086  -0.163  0.00  0.00    +0.391 C 
ATOM     37  O   UNL     1      22.493  11.582   0.448  0.00  0.00    -0.243 OA
ATOM     38  O   UNL     1      24.846  12.504  -0.018  0.00  0.00    -0.243 OA
ENDBRANCH  27  36
ENDBRANCH  23  25
ENDBRANCH  21  23
ENDBRANCH  20  21
ENDBRANCH   2  20
TORSDOF 11
