REMARK VINA RESULT:    -6.262      2.476      3.950
REMARK INTER + INTRA:         -15.944
REMARK INTER:                 -11.632
REMARK INTRA:                  -4.311
REMARK UNBOUND:                -3.824
REMARK  Name = lig_assembled_81.pdb
REMARK  17 active torsions:
REMARK  status: ('A' for Active; 'I' for Inactive)
REMARK    1  A    between atoms: _2  and  _11
REMARK    2  A    between atoms: _7  and  _23
REMARK    3  A    between atoms: _8  and  _9
REMARK    4  A    between atoms: _8  and  _25
REMARK    5  A    between atoms: _13  and  _14
REMARK    6  A    between atoms: _20  and  _21
REMARK    7  A    between atoms: _21  and  _22
REMARK    8  A    between atoms: _22  and  _24
REMARK    9  A    between atoms: _23  and  _24
REMARK   10  A    between atoms: _25  and  _27
REMARK   11  A    between atoms: _26  and  _31
REMARK   12  A    between atoms: _27  and  _30
REMARK   13  A    between atoms: _35  and  _45
REMARK   14  A    between atoms: _37  and  _38
REMARK   15  A    between atoms: _39  and  _41
REMARK   16  A    between atoms: _41  and  _43
REMARK   17  A    between atoms: _43  and  _45
REMARK                            x       y       z     vdW  Elec       q    Type
REMARK                         _______ _______ _______ _____ _____    ______ ____
ROOT
ATOM      1  C   UNL     1      26.161  16.245  -3.837  0.00  0.00    +0.096 C 
ENDROOT
BRANCH   1   3
ATOM      2  N   UNL     1      27.081  13.990  -3.552  0.00  0.00    -0.133 NA
ATOM      3  C   UNL     1      26.200  14.944  -3.139  0.00  0.00    +0.066 C 
ATOM      4  C   UNL     1      25.455  14.435  -2.092  0.00  0.00    +0.120 C 
ATOM      5  N   UNL     1      26.032  13.202  -1.819  0.00  0.00    -0.187 N 
ATOM      6  N   UNL     1      26.868  12.902  -2.832  0.00  0.00    -0.010 NA
BRANCH   5   7
ATOM      7  C   UNL     1      25.679  12.271  -0.785  0.00  0.00    +0.150 A 
ATOM      8  C   UNL     1      24.759  11.200  -0.917  0.00  0.00    +0.022 A 
ATOM      9  C   UNL     1      24.545  10.494   0.296  0.00  0.00    +0.081 A 
ATOM     10  N   UNL     1      25.124  10.886   1.465  0.00  0.00    -0.214 NA
ATOM     11  C   UNL     1      25.945  11.922   1.466  0.00  0.00    +0.215 A 
ATOM     12  N   UNL     1      26.446  12.357   2.670  0.00  0.00    -0.327 N 
ATOM     13  H   UNL     1      26.420  11.624   3.363  0.00  0.00    +0.145 HD
ATOM     14  H   UNL     1      27.295  12.888   2.553  0.00  0.00    +0.145 HD
ATOM     15  N   UNL     1      26.317  12.569   0.380  0.00  0.00    -0.198 NA
BRANCH   9  16
ATOM     16  C   UNL     1      23.677   9.276   0.525  0.00  0.00    +0.001 A 
ATOM     17  C   UNL     1      22.271   9.268   0.491  0.00  0.00    +0.010 A 
ATOM     18  C   UNL     1      21.519   8.099   0.700  0.00  0.00    +0.001 A 
ATOM     19  C   UNL     1      22.146   6.882   0.888  0.00  0.00    +0.000 A 
ATOM     20  C   UNL     1      23.538   6.829   0.874  0.00  0.00    +0.001 A 
ATOM     21  C   UNL     1      24.280   8.008   0.708  0.00  0.00    +0.010 A 
ENDBRANCH   9  16
BRANCH   8  22
ATOM     22  C   UNL     1      24.087  10.668  -2.185  0.00  0.00    +0.069 C 
BRANCH  22  23
ATOM     23  C   UNL     1      22.747  11.205  -2.649  0.00  0.00    +0.164 C 
BRANCH  23  24
ATOM     24  O   UNL     1      22.374  12.497  -2.155  0.00  0.00    -0.380 OA
BRANCH  24  25
ATOM     25  C   UNL     1      21.238  12.286  -1.293  0.00  0.00    +0.156 C 
ATOM     26  C   UNL     1      20.603  13.591  -0.876  0.00  0.00    +0.034 C 
ENDBRANCH  24  25
ENDBRANCH  23  24
ENDBRANCH  22  23
ENDBRANCH   8  22
ENDBRANCH   5   7
ENDBRANCH   1   3
BRANCH   1  27
ATOM     27  C   UNL     1      26.744  17.352  -2.938  0.00  0.00    +0.240 C 
BRANCH  27  28
ATOM     28  O   UNL     1      27.774  16.992  -2.049  0.00  0.00    -0.450 OA
BRANCH  28  29
ATOM     29  C   UNL     1      28.070  17.101  -0.795  0.00  0.00    +0.400 C 
ATOM     30  N   UNL     1      28.651  15.994  -0.222  0.00  0.00    -0.278 N 
ATOM     31  H   UNL     1      28.986  16.354   0.727  0.00  0.00    +0.152 HD
ATOM     32  O   UNL     1      27.907  18.097  -0.095  0.00  0.00    -0.226 OA
BRANCH  30  33
ATOM     33  C   UNL     1      28.995  14.578  -0.320  0.00  0.00    +0.152 C 
BRANCH  33  34
ATOM     34  C   UNL     1      30.100  14.079   0.633  0.00  0.00    +0.193 C 
ATOM     35  O   UNL     1      31.225  14.971   0.467  0.00  0.00    -0.219 OA
BRANCH  34  36
ATOM     36  C   UNL     1      29.805  14.110   2.149  0.00  0.00    +0.212 C 
ATOM     37  O   UNL     1      28.426  14.440   2.385  0.00  0.00    -0.218 OA
BRANCH  36  38
ATOM     38  C   UNL     1      30.128  12.749   2.876  0.00  0.00    +0.171 C 
ATOM     39  O   UNL     1      29.088  12.338   3.758  0.00  0.00    -0.343 OA
ATOM     40  C   UNL     1      29.212  11.314   4.699  0.00  0.00    +0.220 C 
ATOM     41  C   UNL     1      30.469  11.488   5.570  0.00  0.00    +0.076 C 
ATOM     42  C   UNL     1      31.670  11.645   4.622  0.00  0.00    +0.177 C 
ATOM     43  O   UNL     1      32.866  11.769   5.378  0.00  0.00    -0.221 OA
ATOM     44  C   UNL     1      31.459  12.876   3.687  0.00  0.00    +0.155 C 
BRANCH  44  45
ATOM     45  N   UNL     1      32.601  13.033   2.790  0.00  0.00    -0.202 NA
ATOM     46  C   UNL     1      33.572  13.981   2.779  0.00  0.00    +0.242 C 
ATOM     47  C   UNL     1      34.796  13.742   1.932  0.00  0.00    +0.096 C 
ATOM     48  O   UNL     1      33.435  14.999   3.453  0.00  0.00    -0.273 OA
ENDBRANCH  44  45
BRANCH  40  49
ATOM     49  C   UNL     1      29.137   9.826   4.051  0.00  0.00    +0.391 C 
ATOM     50  O   UNL     1      29.615   9.006   5.006  0.00  0.00    -0.243 OA
ATOM     51  O   UNL     1      28.366   9.936   2.961  0.00  0.00    -0.243 OA
ENDBRANCH  40  49
ENDBRANCH  36  38
ENDBRANCH  34  36
ENDBRANCH  33  34
ENDBRANCH  30  33
ENDBRANCH  28  29
ENDBRANCH  27  28
ENDBRANCH   1  27
TORSDOF 16
