REMARK VINA RESULT:    -6.735      1.983      5.536
REMARK INTER + INTRA:         -13.562
REMARK INTER:                 -10.805
REMARK INTRA:                  -2.756
REMARK UNBOUND:                -1.904
REMARK  Name = lig_assembled_73.pdb
REMARK  13 active torsions:
REMARK  status: ('A' for Active; 'I' for Inactive)
REMARK    1  A    between atoms: _2  and  _9
REMARK    2  A    between atoms: _3  and  _13
REMARK    3  A    between atoms: _6  and  _7
REMARK    4  A    between atoms: _6  and  _17
REMARK    5  A    between atoms: _12  and  _15
REMARK    6  A    between atoms: _17  and  _19
REMARK    7  A    between atoms: _18  and  _23
REMARK    8  A    between atoms: _19  and  _22
REMARK    9  A    between atoms: _27  and  _37
REMARK   10  A    between atoms: _29  and  _30
REMARK   11  A    between atoms: _31  and  _33
REMARK   12  A    between atoms: _33  and  _35
REMARK   13  A    between atoms: _35  and  _37
REMARK                            x       y       z     vdW  Elec       q    Type
REMARK                         _______ _______ _______ _____ _____    ______ ____
ROOT
ATOM      1  C   UNL     1      24.242  10.914   1.776  0.00  0.00    +0.400 C 
ATOM      2  N   UNL     1      25.516  11.407   1.620  0.00  0.00    -0.278 N 
ATOM      3  H   UNL     1      25.670  11.980   2.509  0.00  0.00    +0.152 HD
ATOM      4  O   UNL     1      23.693  11.061   2.865  0.00  0.00    -0.226 OA
ENDROOT
BRANCH   2   5
ATOM      5  C   UNL     1      26.729  11.484   0.811  0.00  0.00    +0.152 C 
BRANCH   5   6
ATOM      6  C   UNL     1      27.946  12.163   1.474  0.00  0.00    +0.193 C 
ATOM      7  O   UNL     1      29.009  11.184   1.491  0.00  0.00    -0.219 OA
BRANCH   6   8
ATOM      8  C   UNL     1      28.560  13.386   0.759  0.00  0.00    +0.212 C 
ATOM      9  O   UNL     1      28.395  14.569   1.557  0.00  0.00    -0.218 OA
BRANCH   8  10
ATOM     10  C   UNL     1      30.091  13.212   0.427  0.00  0.00    +0.171 C 
ATOM     11  O   UNL     1      30.899  14.221   1.024  0.00  0.00    -0.343 OA
ATOM     12  C   UNL     1      32.239  14.450   0.703  0.00  0.00    +0.220 C 
ATOM     13  C   UNL     1      32.448  14.576  -0.816  0.00  0.00    +0.076 C 
ATOM     14  C   UNL     1      31.829  13.332  -1.474  0.00  0.00    +0.177 C 
ATOM     15  O   UNL     1      32.030  13.380  -2.879  0.00  0.00    -0.221 OA
ATOM     16  C   UNL     1      30.311  13.238  -1.121  0.00  0.00    +0.155 C 
BRANCH  16  17
ATOM     17  N   UNL     1      29.717  12.061  -1.750  0.00  0.00    -0.202 NA
ATOM     18  C   UNL     1      28.816  11.979  -2.761  0.00  0.00    +0.242 C 
ATOM     19  C   UNL     1      28.594  10.640  -3.415  0.00  0.00    +0.096 C 
ATOM     20  O   UNL     1      28.210  12.987  -3.118  0.00  0.00    -0.273 OA
ENDBRANCH  16  17
BRANCH  12  21
ATOM     21  C   UNL     1      33.256  13.364   1.357  0.00  0.00    +0.391 C 
ATOM     22  O   UNL     1      34.489  13.834   1.085  0.00  0.00    -0.243 OA
ATOM     23  O   UNL     1      32.510  12.597   2.161  0.00  0.00    -0.243 OA
ENDBRANCH  12  21
ENDBRANCH   8  10
ENDBRANCH   6   8
ENDBRANCH   5   6
ENDBRANCH   2   5
BRANCH   1  24
ATOM     24  O   UNL     1      23.724  10.360   0.729  0.00  0.00    -0.450 OA
BRANCH  24  25
ATOM     25  C   UNL     1      22.527  10.389  -0.014  0.00  0.00    +0.240 C 
BRANCH  25  26
ATOM     26  C   UNL     1      22.636  10.659  -1.526  0.00  0.00    +0.100 C 
BRANCH  26  28
ATOM     27  N   UNL     1      22.368  13.113  -1.369  0.00  0.00    -0.134 NA
ATOM     28  C   UNL     1      23.104  12.037  -1.769  0.00  0.00    +0.086 A 
ATOM     29  C   UNL     1      24.253  12.481  -2.380  0.00  0.00    +0.139 A 
ATOM     30  N   UNL     1      24.179  13.853  -2.323  0.00  0.00    -0.220 N 
ATOM     31  N   UNL     1      23.027  14.213  -1.709  0.00  0.00    -0.061 NA
BRANCH  30  32
ATOM     32  C   UNL     1      25.104  14.815  -2.806  0.00  0.00    +0.074 A 
ATOM     33  C   UNL     1      25.157  15.101  -4.182  0.00  0.00    +0.032 A 
ATOM     34  C   UNL     1      26.069  16.040  -4.684  0.00  0.00    +0.054 A 
ATOM     35  C   UNL     1      26.938  16.698  -3.816  0.00  0.00    +0.195 A 
ATOM     36  C   UNL     1      26.881  16.411  -2.454  0.00  0.00    +0.316 A 
ATOM     37  C   UNL     1      25.970  15.481  -1.930  0.00  0.00    +0.116 A 
BRANCH  36  38
ATOM     38  N   UNL     1      27.779  17.072  -1.527  0.00  0.00    +0.083 N 
ATOM     39  O   UNL     1      27.554  18.260  -1.261  0.00  0.00    +0.042 OA
ATOM     40  O   UNL     1      28.760  16.418  -1.144  0.00  0.00    -0.576 OA
ENDBRANCH  36  38
BRANCH  35  41
ATOM     41  O   UNL     1      27.810  17.627  -4.302  0.00  0.00    -0.501 OA
ATOM     42  H   UNL     1      28.422  17.909  -3.600  0.00  0.00    +0.292 HD
ENDBRANCH  35  41
ENDBRANCH  30  32
ENDBRANCH  26  28
ENDBRANCH  25  26
ENDBRANCH  24  25
ENDBRANCH   1  24
TORSDOF 13
