REMARK VINA RESULT:    -5.986      2.411      4.309
REMARK INTER + INTRA:         -13.043
REMARK INTER:                 -11.235
REMARK INTRA:                  -1.808
REMARK UNBOUND:                -1.808
REMARK  Name = lig_assembled_43.pdb
REMARK  15 active torsions:
REMARK  status: ('A' for Active; 'I' for Inactive)
REMARK    1  A    between atoms: _2  and  _8
REMARK    2  A    between atoms: _5  and  _6
REMARK    3  A    between atoms: _5  and  _13
REMARK    4  A    between atoms: _8  and  _9
REMARK    5  A    between atoms: _9  and  _10
REMARK    6  A    between atoms: _10  and  _11
REMARK    7  A    between atoms: _11  and  _12
REMARK    8  A    between atoms: _13  and  _15
REMARK    9  A    between atoms: _14  and  _19
REMARK   10  A    between atoms: _15  and  _18
REMARK   11  A    between atoms: _23  and  _33
REMARK   12  A    between atoms: _25  and  _26
REMARK   13  A    between atoms: _27  and  _29
REMARK   14  A    between atoms: _29  and  _31
REMARK   15  A    between atoms: _31  and  _33
REMARK                            x       y       z     vdW  Elec       q    Type
REMARK                         _______ _______ _______ _____ _____    ______ ____
ROOT
ATOM      1  C   UNL     1      30.796  16.224   0.037  0.00  0.00    +0.152 C 
ENDROOT
BRANCH   1   3
ATOM      2  C   UNL     1      28.437  17.497  -0.473  0.00  0.00    +0.400 C 
ATOM      3  N   UNL     1      29.622  17.091   0.095  0.00  0.00    -0.278 N 
ATOM      4  H   UNL     1      29.685  17.681   0.983  0.00  0.00    +0.152 HD
ATOM      5  O   UNL     1      27.699  18.225   0.186  0.00  0.00    -0.226 OA
BRANCH   2   6
ATOM      6  O   UNL     1      28.227  17.091  -1.682  0.00  0.00    -0.450 OA
BRANCH   6   7
ATOM      7  C   UNL     1      27.426  16.160  -2.372  0.00  0.00    +0.240 C 
BRANCH   7   8
ATOM      8  C   UNL     1      26.659  16.662  -3.610  0.00  0.00    +0.100 C 
BRANCH   8  10
ATOM      9  N   UNL     1      25.235  15.322  -5.128  0.00  0.00    -0.134 NA
ATOM     10  C   UNL     1      25.488  15.805  -3.871  0.00  0.00    +0.086 A 
ATOM     11  C   UNL     1      24.507  15.362  -3.013  0.00  0.00    +0.133 A 
ATOM     12  N   UNL     1      23.687  14.621  -3.808  0.00  0.00    -0.251 N 
ATOM     13  N   UNL     1      24.125  14.596  -5.078  0.00  0.00    -0.065 NA
BRANCH  12  14
ATOM     14  C   UNL     1      22.464  13.941  -3.440  0.00  0.00    +0.145 C 
BRANCH  14  15
ATOM     15  C   UNL     1      21.863  14.523  -2.165  0.00  0.00    +0.024 C 
BRANCH  15  16
ATOM     16  C   UNL     1      20.525  13.873  -1.810  0.00  0.00    +0.006 C 
BRANCH  16  17
ATOM     17  C   UNL     1      20.477  13.521  -0.322  0.00  0.00    +0.026 C 
BRANCH  17  18
ATOM     18  C   UNL     1      21.109  12.190  -0.039  0.00  0.00    -0.034 C 
ATOM     19  C   UNL     1      21.472  11.782   1.185  0.00  0.00    +0.004 C 
ENDBRANCH  17  18
ENDBRANCH  16  17
ENDBRANCH  15  16
ENDBRANCH  14  15
ENDBRANCH  12  14
ENDBRANCH   8  10
ENDBRANCH   7   8
ENDBRANCH   6   7
ENDBRANCH   2   6
ENDBRANCH   1   3
BRANCH   1  20
ATOM     20  C   UNL     1      30.520  14.713  -0.098  0.00  0.00    +0.193 C 
ATOM     21  O   UNL     1      31.803  14.050  -0.057  0.00  0.00    -0.219 OA
BRANCH  20  22
ATOM     22  C   UNL     1      29.699  14.033   1.020  0.00  0.00    +0.212 C 
ATOM     23  O   UNL     1      28.414  14.661   1.152  0.00  0.00    -0.218 OA
BRANCH  22  24
ATOM     24  C   UNL     1      29.484  12.489   0.786  0.00  0.00    +0.171 C 
ATOM     25  O   UNL     1      28.164  12.180   0.349  0.00  0.00    -0.343 OA
ATOM     26  C   UNL     1      27.632  10.890   0.300  0.00  0.00    +0.220 C 
ATOM     27  C   UNL     1      27.829  10.141   1.630  0.00  0.00    +0.076 C 
ATOM     28  C   UNL     1      29.324  10.212   1.984  0.00  0.00    +0.177 C 
ATOM     29  O   UNL     1      29.568   9.499   3.188  0.00  0.00    -0.221 OA
ATOM     30  C   UNL     1      29.778  11.700   2.104  0.00  0.00    +0.155 C 
BRANCH  30  31
ATOM     31  N   UNL     1      31.196  11.771   2.446  0.00  0.00    -0.202 NA
ATOM     32  C   UNL     1      31.791  12.177   3.596  0.00  0.00    +0.242 C 
ATOM     33  C   UNL     1      33.254  11.873   3.791  0.00  0.00    +0.096 C 
ATOM     34  O   UNL     1      31.132  12.775   4.444  0.00  0.00    -0.273 OA
ENDBRANCH  30  31
BRANCH  26  35
ATOM     35  C   UNL     1      28.165  10.016  -0.961  0.00  0.00    +0.391 C 
ATOM     36  O   UNL     1      27.855   8.741  -0.657  0.00  0.00    -0.243 OA
ATOM     37  O   UNL     1      28.429  10.896  -1.935  0.00  0.00    -0.243 OA
ENDBRANCH  26  35
ENDBRANCH  22  24
ENDBRANCH  20  22
ENDBRANCH   1  20
TORSDOF 15
