REMARK VINA RESULT:    -6.759      1.213      3.375
REMARK INTER + INTRA:         -12.604
REMARK INTER:                 -11.105
REMARK INTRA:                  -1.499
REMARK UNBOUND:                -1.499
REMARK  Name = lig_assembled_15.pdb
REMARK  11 active torsions:
REMARK  status: ('A' for Active; 'I' for Inactive)
REMARK    1  A    between atoms: _2  and  _8
REMARK    2  A    between atoms: _5  and  _6
REMARK    3  A    between atoms: _5  and  _13
REMARK    4  A    between atoms: _13  and  _15
REMARK    5  A    between atoms: _14  and  _19
REMARK    6  A    between atoms: _15  and  _18
REMARK    7  A    between atoms: _23  and  _33
REMARK    8  A    between atoms: _25  and  _26
REMARK    9  A    between atoms: _27  and  _29
REMARK   10  A    between atoms: _29  and  _31
REMARK   11  A    between atoms: _31  and  _33
REMARK                            x       y       z     vdW  Elec       q    Type
REMARK                         _______ _______ _______ _____ _____    ______ ____
ROOT
ATOM      1  C   UNL     1      28.274  17.275  -0.731  0.00  0.00    +0.400 C 
ATOM      2  N   UNL     1      29.301  16.605  -0.107  0.00  0.00    -0.278 N 
ATOM      3  H   UNL     1      29.524  17.224   0.735  0.00  0.00    +0.152 HD
ATOM      4  O   UNL     1      27.764  18.227  -0.145  0.00  0.00    -0.226 OA
ENDROOT
BRANCH   1   5
ATOM      5  O   UNL     1      27.961  16.848  -1.910  0.00  0.00    -0.450 OA
BRANCH   5   6
ATOM      6  C   UNL     1      27.171  17.232  -3.010  0.00  0.00    +0.240 C 
BRANCH   6   7
ATOM      7  C   UNL     1      26.521  16.111  -3.845  0.00  0.00    +0.100 C 
BRANCH   7   9
ATOM      8  N   UNL     1      24.198  15.850  -3.035  0.00  0.00    -0.134 NA
ATOM      9  C   UNL     1      25.491  15.413  -3.052  0.00  0.00    +0.086 A 
ATOM     10  C   UNL     1      25.598  14.293  -2.261  0.00  0.00    +0.139 A 
ATOM     11  N   UNL     1      24.323  14.062  -1.797  0.00  0.00    -0.220 N 
ATOM     12  N   UNL     1      23.496  15.029  -2.266  0.00  0.00    -0.061 NA
BRANCH  11  13
ATOM     13  C   UNL     1      23.853  12.996  -0.986  0.00  0.00    +0.067 A 
ATOM     14  C   UNL     1      22.490  12.674  -0.939  0.00  0.00    +0.029 A 
ATOM     15  C   UNL     1      22.040  11.647  -0.104  0.00  0.00    +0.017 A 
ATOM     16  C   UNL     1      22.948  10.941   0.682  0.00  0.00    +0.018 A 
ATOM     17 BR   UNL     1      22.330   9.574   1.831  0.00  0.00    -0.050 Br
ATOM     18  C   UNL     1      24.308  11.243   0.633  0.00  0.00    +0.017 A 
ATOM     19  C   UNL     1      24.763  12.267  -0.201  0.00  0.00    +0.029 A 
ENDBRANCH  11  13
ENDBRANCH   7   9
ENDBRANCH   6   7
ENDBRANCH   5   6
ENDBRANCH   1   5
BRANCH   2  20
ATOM     20  C   UNL     1      30.192  15.448  -0.073  0.00  0.00    +0.152 C 
BRANCH  20  21
ATOM     21  C   UNL     1      29.778  14.300   0.870  0.00  0.00    +0.193 C 
ATOM     22  O   UNL     1      28.437  13.917   0.494  0.00  0.00    -0.219 OA
BRANCH  21  23
ATOM     23  C   UNL     1      30.589  12.987   0.797  0.00  0.00    +0.212 C 
ATOM     24  O   UNL     1      29.794  11.938   0.222  0.00  0.00    -0.218 OA
BRANCH  23  25
ATOM     25  C   UNL     1      31.922  13.122  -0.034  0.00  0.00    +0.171 C 
ATOM     26  O   UNL     1      31.952  12.257  -1.164  0.00  0.00    -0.343 OA
ATOM     27  C   UNL     1      33.094  11.995  -1.925  0.00  0.00    +0.220 C 
ATOM     28  C   UNL     1      34.287  11.589  -1.043  0.00  0.00    +0.076 C 
ATOM     29  C   UNL     1      34.460  12.677   0.030  0.00  0.00    +0.177 C 
ATOM     30  O   UNL     1      35.578  12.371   0.851  0.00  0.00    -0.221 OA
ATOM     31  C   UNL     1      33.155  12.811   0.875  0.00  0.00    +0.155 C 
BRANCH  31  32
ATOM     32  N   UNL     1      33.318  13.839   1.900  0.00  0.00    -0.202 NA
ATOM     33  C   UNL     1      33.559  13.708   3.230  0.00  0.00    +0.242 C 
ATOM     34  C   UNL     1      33.976  14.931   4.005  0.00  0.00    +0.096 C 
ATOM     35  O   UNL     1      33.434  12.608   3.765  0.00  0.00    -0.273 OA
ENDBRANCH  31  32
BRANCH  27  36
ATOM     36  C   UNL     1      33.486  13.201  -2.941  0.00  0.00    +0.391 C 
ATOM     37  O   UNL     1      34.809  13.061  -3.153  0.00  0.00    -0.243 OA
ATOM     38  O   UNL     1      32.327  13.679  -3.412  0.00  0.00    -0.243 OA
ENDBRANCH  27  36
ENDBRANCH  23  25
ENDBRANCH  21  23
ENDBRANCH  20  21
ENDBRANCH   2  20
TORSDOF 11
