REMARK VINA RESULT:    -6.572      1.797      3.148
REMARK INTER + INTRA:         -14.286
REMARK INTER:                 -12.650
REMARK INTRA:                  -1.635
REMARK UNBOUND:                -2.911
REMARK  Name = lig_assembled_23.pdb
REMARK  13 active torsions:
REMARK  status: ('A' for Active; 'I' for Inactive)
REMARK    1  A    between atoms: _2  and  _9
REMARK    2  A    between atoms: _3  and  _44
REMARK    3  A    between atoms: _6  and  _7
REMARK    4  A    between atoms: _6  and  _16
REMARK    5  A    between atoms: _11  and  _44
REMARK    6  A    between atoms: _16  and  _18
REMARK    7  A    between atoms: _17  and  _22
REMARK    8  A    between atoms: _18  and  _21
REMARK    9  A    between atoms: _26  and  _36
REMARK   10  A    between atoms: _28  and  _29
REMARK   11  A    between atoms: _30  and  _32
REMARK   12  A    between atoms: _32  and  _34
REMARK   13  A    between atoms: _34  and  _36
REMARK                            x       y       z     vdW  Elec       q    Type
REMARK                         _______ _______ _______ _____ _____    ______ ____
ROOT
ATOM      1  C   UNL     1      28.011  17.103  -0.819  0.00  0.00    +0.400 C 
ATOM      2  N   UNL     1      28.367  15.920  -0.214  0.00  0.00    -0.278 N 
ATOM      3  H   UNL     1      28.670  16.224   0.764  0.00  0.00    +0.152 HD
ATOM      4  O   UNL     1      27.940  18.111  -0.121  0.00  0.00    -0.226 OA
ENDROOT
BRANCH   2   5
ATOM      5  C   UNL     1      28.501  14.469  -0.303  0.00  0.00    +0.152 C 
BRANCH   5   6
ATOM      6  C   UNL     1      29.814  13.943  -0.919  0.00  0.00    +0.193 C 
ATOM      7  O   UNL     1      30.840  14.907  -0.593  0.00  0.00    -0.219 OA
BRANCH   6   8
ATOM      8  C   UNL     1      30.365  12.600  -0.392  0.00  0.00    +0.212 C 
ATOM      9  O   UNL     1      30.981  11.857  -1.456  0.00  0.00    -0.218 OA
BRANCH   8  10
ATOM     10  C   UNL     1      31.411  12.770   0.775  0.00  0.00    +0.171 C 
ATOM     11  O   UNL     1      32.695  12.254   0.439  0.00  0.00    -0.343 OA
ATOM     12  C   UNL     1      33.729  12.054   1.357  0.00  0.00    +0.220 C 
ATOM     13  C   UNL     1      33.255  11.257   2.585  0.00  0.00    +0.076 C 
ATOM     14  C   UNL     1      32.016  11.972   3.151  0.00  0.00    +0.177 C 
ATOM     15  O   UNL     1      31.560  11.297   4.314  0.00  0.00    -0.221 OA
ATOM     16  C   UNL     1      30.898  12.050   2.065  0.00  0.00    +0.155 C 
BRANCH  16  17
ATOM     17  N   UNL     1      29.717  12.722   2.601  0.00  0.00    -0.202 NA
ATOM     18  C   UNL     1      28.478  12.229   2.855  0.00  0.00    +0.242 C 
ATOM     19  C   UNL     1      27.533  13.062   3.682  0.00  0.00    +0.096 C 
ATOM     20  O   UNL     1      28.160  11.127   2.413  0.00  0.00    -0.273 OA
ENDBRANCH  16  17
BRANCH  12  21
ATOM     21  C   UNL     1      34.484  13.425   1.791  0.00  0.00    +0.391 C 
ATOM     22  O   UNL     1      34.743  13.279   3.105  0.00  0.00    -0.243 OA
ATOM     23  O   UNL     1      34.828  14.035   0.649  0.00  0.00    -0.243 OA
ENDBRANCH  12  21
ENDBRANCH   8  10
ENDBRANCH   6   8
ENDBRANCH   5   6
ENDBRANCH   2   5
BRANCH   1  24
ATOM     24  O   UNL     1      27.811  17.042  -2.094  0.00  0.00    -0.450 OA
BRANCH  24  25
ATOM     25  C   UNL     1      26.815  17.366  -3.036  0.00  0.00    +0.240 C 
BRANCH  25  26
ATOM     26  C   UNL     1      26.538  16.347  -4.157  0.00  0.00    +0.100 C 
BRANCH  26  28
ATOM     27  N   UNL     1      25.073  14.397  -4.564  0.00  0.00    -0.134 NA
ATOM     28  C   UNL     1      25.455  15.429  -3.758  0.00  0.00    +0.086 A 
ATOM     29  C   UNL     1      24.685  15.418  -2.617  0.00  0.00    +0.139 A 
ATOM     30  N   UNL     1      23.843  14.339  -2.768  0.00  0.00    -0.220 N 
ATOM     31  N   UNL     1      24.092  13.742  -3.959  0.00  0.00    -0.061 NA
BRANCH  30  32
ATOM     32  C   UNL     1      22.840  13.861  -1.887  0.00  0.00    +0.069 A 
ATOM     33  C   UNL     1      23.168  12.889  -0.931  0.00  0.00    +0.056 A 
ATOM     34  C   UNL     1      22.172  12.390  -0.084  0.00  0.00    +0.107 A 
ATOM     35  C   UNL     1      20.862  12.864  -0.158  0.00  0.00    +0.028 A 
ATOM     36  C   UNL     1      20.540  13.842  -1.099  0.00  0.00    +0.004 A 
ATOM     37  C   UNL     1      21.522  14.337  -1.964  0.00  0.00    +0.028 A 
BRANCH  34  38
ATOM     38  S   UNL     1      22.591  11.123   1.076  0.00  0.00    +0.056 S 
ATOM     39  O   UNL     1      21.974   9.886   0.656  0.00  0.00    -0.153 OA
ATOM     40  O   UNL     1      23.993  11.223   1.404  0.00  0.00    -0.153 OA
BRANCH  38  41
ATOM     41  N   UNL     1      21.774  11.625   2.452  0.00  0.00    -0.204 NA
ATOM     42  H   UNL     1      21.434  12.579   2.329  0.00  0.00    +0.144 HD
ATOM     43  H   UNL     1      22.364  11.497   3.276  0.00  0.00    +0.144 HD
ENDBRANCH  38  41
ENDBRANCH  34  38
ENDBRANCH  30  32
ENDBRANCH  26  28
ENDBRANCH  25  26
ENDBRANCH  24  25
ENDBRANCH   1  24
TORSDOF 13
