REMARK VINA RESULT:    -6.823      2.552      3.610
REMARK INTER + INTRA:         -12.709
REMARK INTER:                 -10.468
REMARK INTRA:                  -2.240
REMARK UNBOUND:                -1.499
REMARK  Name = lig_assembled_15.pdb
REMARK  11 active torsions:
REMARK  status: ('A' for Active; 'I' for Inactive)
REMARK    1  A    between atoms: _2  and  _8
REMARK    2  A    between atoms: _5  and  _6
REMARK    3  A    between atoms: _5  and  _13
REMARK    4  A    between atoms: _13  and  _15
REMARK    5  A    between atoms: _14  and  _19
REMARK    6  A    between atoms: _15  and  _18
REMARK    7  A    between atoms: _23  and  _33
REMARK    8  A    between atoms: _25  and  _26
REMARK    9  A    between atoms: _27  and  _29
REMARK   10  A    between atoms: _29  and  _31
REMARK   11  A    between atoms: _31  and  _33
REMARK                            x       y       z     vdW  Elec       q    Type
REMARK                         _______ _______ _______ _____ _____    ______ ____
ROOT
ATOM      1  C   UNL     1      29.298  16.654  -0.229  0.00  0.00    +0.400 C 
ATOM      2  N   UNL     1      29.064  15.489   0.464  0.00  0.00    -0.278 N 
ATOM      3  H   UNL     1      29.824  15.491   1.215  0.00  0.00    +0.152 HD
ATOM      4  O   UNL     1      30.112  17.448   0.233  0.00  0.00    -0.226 OA
ENDROOT
BRANCH   1   5
ATOM      5  O   UNL     1      28.646  16.787  -1.337  0.00  0.00    -0.450 OA
BRANCH   5   6
ATOM      6  C   UNL     1      27.319  16.939  -1.784  0.00  0.00    +0.240 C 
BRANCH   6   7
ATOM      7  C   UNL     1      26.890  16.135  -3.026  0.00  0.00    +0.100 C 
BRANCH   7   9
ATOM      8  N   UNL     1      25.571  14.266  -2.087  0.00  0.00    -0.134 NA
ATOM      9  C   UNL     1      25.612  15.444  -2.774  0.00  0.00    +0.086 A 
ATOM     10  C   UNL     1      24.332  15.804  -3.126  0.00  0.00    +0.139 A 
ATOM     11  N   UNL     1      23.527  14.818  -2.602  0.00  0.00    -0.220 N 
ATOM     12  N   UNL     1      24.303  13.889  -1.991  0.00  0.00    -0.061 NA
BRANCH  11  13
ATOM     13  C   UNL     1      22.111  14.725  -2.619  0.00  0.00    +0.067 A 
ATOM     14  C   UNL     1      21.423  14.033  -1.613  0.00  0.00    +0.029 A 
ATOM     15  C   UNL     1      20.030  13.917  -1.669  0.00  0.00    +0.017 A 
ATOM     16  C   UNL     1      19.326  14.492  -2.724  0.00  0.00    +0.018 A 
ATOM     17 BR   UNL     1      17.447  14.307  -2.808  0.00  0.00    -0.050 Br
ATOM     18  C   UNL     1      19.998  15.195  -3.722  0.00  0.00    +0.017 A 
ATOM     19  C   UNL     1      21.389  15.315  -3.670  0.00  0.00    +0.029 A 
ENDBRANCH  11  13
ENDBRANCH   7   9
ENDBRANCH   6   7
ENDBRANCH   5   6
ENDBRANCH   1   5
BRANCH   2  20
ATOM     20  C   UNL     1      28.253  14.286   0.638  0.00  0.00    +0.152 C 
BRANCH  20  21
ATOM     21  C   UNL     1      28.985  12.941   0.455  0.00  0.00    +0.193 C 
ATOM     22  O   UNL     1      27.998  11.903   0.638  0.00  0.00    -0.219 OA
BRANCH  21  23
ATOM     23  C   UNL     1      29.602  12.645  -0.930  0.00  0.00    +0.212 C 
ATOM     24  O   UNL     1      29.038  13.513  -1.926  0.00  0.00    -0.218 OA
BRANCH  23  25
ATOM     25  C   UNL     1      31.171  12.796  -0.960  0.00  0.00    +0.171 C 
ATOM     26  O   UNL     1      31.624  13.944  -0.249  0.00  0.00    -0.343 OA
ATOM     27  C   UNL     1      32.925  14.450  -0.316  0.00  0.00    +0.220 C 
ATOM     28  C   UNL     1      33.391  14.634  -1.771  0.00  0.00    +0.076 C 
ATOM     29  C   UNL     1      33.179  13.296  -2.498  0.00  0.00    +0.177 C 
ATOM     30  O   UNL     1      33.632  13.399  -3.840  0.00  0.00    -0.221 OA
ATOM     31  C   UNL     1      31.675  12.884  -2.438  0.00  0.00    +0.155 C 
BRANCH  31  32
ATOM     32  N   UNL     1      31.467  11.617  -3.133  0.00  0.00    -0.202 NA
ATOM     33  C   UNL     1      30.958  11.378  -4.368  0.00  0.00    +0.242 C 
ATOM     34  C   UNL     1      31.128  10.002  -4.959  0.00  0.00    +0.096 C 
ATOM     35  O   UNL     1      30.377  12.279  -4.971  0.00  0.00    -0.273 OA
ENDBRANCH  31  32
BRANCH  27  36
ATOM     36  C   UNL     1      33.998  13.592   0.550  0.00  0.00    +0.391 C 
ATOM     37  O   UNL     1      35.197  13.892   0.014  0.00  0.00    -0.243 OA
ATOM     38  O   UNL     1      33.339  13.161   1.633  0.00  0.00    -0.243 OA
ENDBRANCH  27  36
ENDBRANCH  23  25
ENDBRANCH  21  23
ENDBRANCH  20  21
ENDBRANCH   2  20
TORSDOF 11
