REMARK VINA RESULT:    -7.046      3.174      9.397
REMARK INTER + INTRA:         -13.745
REMARK INTER:                 -11.987
REMARK INTRA:                  -1.757
REMARK UNBOUND:                -2.168
REMARK  Name = lig_assembled_86.pdb
REMARK  12 active torsions:
REMARK  status: ('A' for Active; 'I' for Inactive)
REMARK    1  A    between atoms: _2  and  _9
REMARK    2  A    between atoms: _3  and  _12
REMARK    3  A    between atoms: _6  and  _7
REMARK    4  A    between atoms: _6  and  _16
REMARK    5  A    between atoms: _16  and  _18
REMARK    6  A    between atoms: _17  and  _22
REMARK    7  A    between atoms: _18  and  _21
REMARK    8  A    between atoms: _26  and  _36
REMARK    9  A    between atoms: _28  and  _29
REMARK   10  A    between atoms: _30  and  _32
REMARK   11  A    between atoms: _32  and  _34
REMARK   12  A    between atoms: _34  and  _36
REMARK                            x       y       z     vdW  Elec       q    Type
REMARK                         _______ _______ _______ _____ _____    ______ ____
ROOT
ATOM      1  C   UNL     1      27.203  16.998  -2.521  0.00  0.00    +0.400 C 
ATOM      2  N   UNL     1      26.653  15.749  -2.690  0.00  0.00    -0.278 N 
ATOM      3  H   UNL     1      25.714  15.953  -3.158  0.00  0.00    +0.152 HD
ATOM      4  O   UNL     1      26.648  17.952  -3.060  0.00  0.00    -0.226 OA
ENDROOT
BRANCH   1   5
ATOM      5  O   UNL     1      28.255  17.050  -1.772  0.00  0.00    -0.450 OA
BRANCH   5   6
ATOM      6  C   UNL     1      28.627  16.808  -0.435  0.00  0.00    +0.240 C 
BRANCH   6   7
ATOM      7  C   UNL     1      30.038  17.246   0.000  0.00  0.00    +0.100 C 
BRANCH   7   9
ATOM      8  N   UNL     1      31.804  15.655  -0.710  0.00  0.00    -0.134 NA
ATOM      9  C   UNL     1      30.890  16.063   0.227  0.00  0.00    +0.086 A 
ATOM     10  C   UNL     1      30.955  15.219   1.310  0.00  0.00    +0.134 A 
ATOM     11  N   UNL     1      31.948  14.345   0.989  0.00  0.00    -0.248 N 
ATOM     12  N   UNL     1      32.436  14.589  -0.239  0.00  0.00    -0.065 NA
BRANCH  11  13
ATOM     13  C   UNL     1      32.476  13.268   1.814  0.00  0.00    +0.112 C 
ATOM     14  C   UNL     1      33.947  12.952   1.474  0.00  0.00    +0.045 C 
ATOM     15  C   UNL     1      34.866  12.801   2.689  0.00  0.00    +0.059 C 
ATOM     16  C   UNL     1      35.220  14.167   3.287  0.00  0.00    +0.020 C 
ATOM     17  C   UNL     1      34.185  14.384   4.388  0.00  0.00    +0.020 C 
ATOM     18  C   UNL     1      33.261  13.168   4.291  0.00  0.00    +0.059 C 
ATOM     19  N   UNL     1      34.204  12.153   3.822  0.00  0.00    -0.299 NA
ATOM     20  C   UNL     1      33.664  10.827   3.593  0.00  0.00    +0.105 C 
ATOM     21  C   UNL     1      32.110  13.420   3.308  0.00  0.00    +0.045 C 
ENDBRANCH  11  13
ENDBRANCH   7   9
ENDBRANCH   6   7
ENDBRANCH   5   6
ENDBRANCH   1   5
BRANCH   2  22
ATOM     22  C   UNL     1      26.780  14.302  -2.533  0.00  0.00    +0.152 C 
BRANCH  22  23
ATOM     23  C   UNL     1      25.651  13.602  -1.749  0.00  0.00    +0.193 C 
ATOM     24  O   UNL     1      24.588  13.344  -2.693  0.00  0.00    -0.219 OA
BRANCH  23  25
ATOM     25  C   UNL     1      25.960  12.221  -1.130  0.00  0.00    +0.212 C 
ATOM     26  O   UNL     1      27.206  11.713  -1.633  0.00  0.00    -0.218 OA
BRANCH  25  27
ATOM     27  C   UNL     1      26.024  12.243   0.445  0.00  0.00    +0.171 C 
ATOM     28  O   UNL     1      27.279  11.796   0.948  0.00  0.00    -0.343 OA
ATOM     29  C   UNL     1      27.525  11.486   2.288  0.00  0.00    +0.220 C 
ATOM     30  C   UNL     1      26.468  10.522   2.854  0.00  0.00    +0.076 C 
ATOM     31  C   UNL     1      25.086  11.136   2.576  0.00  0.00    +0.177 C 
ATOM     32  O   UNL     1      24.071  10.302   3.115  0.00  0.00    -0.221 OA
ATOM     33  C   UNL     1      24.891  11.347   1.042  0.00  0.00    +0.155 C 
BRANCH  33  34
ATOM     34  N   UNL     1      23.576  11.923   0.772  0.00  0.00    -0.202 NA
ATOM     35  C   UNL     1      22.540  11.424   0.051  0.00  0.00    +0.242 C 
ATOM     36  C   UNL     1      21.194  12.088   0.178  0.00  0.00    +0.096 C 
ATOM     37  O   UNL     1      22.722  10.451  -0.679  0.00  0.00    -0.273 OA
ENDBRANCH  33  34
BRANCH  29  38
ATOM     38  C   UNL     1      27.707  12.795   3.233  0.00  0.00    +0.391 C 
ATOM     39  O   UNL     1      27.863  12.305   4.478  0.00  0.00    -0.243 OA
ATOM     40  O   UNL     1      27.932  13.821   2.403  0.00  0.00    -0.243 OA
ENDBRANCH  29  38
ENDBRANCH  25  27
ENDBRANCH  23  25
ENDBRANCH  22  23
ENDBRANCH   2  22
TORSDOF 11
