REMARK VINA RESULT:    -7.654      0.250      1.431
REMARK INTER + INTRA:         -14.710
REMARK INTER:                 -12.753
REMARK INTRA:                  -1.957
REMARK UNBOUND:                -2.133
REMARK  Name = lig_assembled_7.pdb
REMARK  14 active torsions:
REMARK  status: ('A' for Active; 'I' for Inactive)
REMARK    1  A    between atoms: _2  and  _8
REMARK    2  A    between atoms: _4  and  _15
REMARK    3  A    between atoms: _5  and  _6
REMARK    4  A    between atoms: _5  and  _16
REMARK    5  A    between atoms: _9  and  _10
REMARK    6  A    between atoms: _12  and  _13
REMARK    7  A    between atoms: _16  and  _18
REMARK    8  A    between atoms: _17  and  _22
REMARK    9  A    between atoms: _18  and  _21
REMARK   10  A    between atoms: _26  and  _36
REMARK   11  A    between atoms: _28  and  _29
REMARK   12  A    between atoms: _30  and  _32
REMARK   13  A    between atoms: _32  and  _34
REMARK   14  A    between atoms: _34  and  _36
REMARK                            x       y       z     vdW  Elec       q    Type
REMARK                         _______ _______ _______ _____ _____    ______ ____
ROOT
ATOM      1  C   UNL     1      27.808  17.420  -1.125  0.00  0.00    +0.400 C 
ATOM      2  N   UNL     1      28.246  16.295  -0.468  0.00  0.00    -0.278 N 
ATOM      3  H   UNL     1      28.498  16.658   0.505  0.00  0.00    +0.152 HD
ATOM      4  O   UNL     1      27.637  18.444  -0.468  0.00  0.00    -0.226 OA
ENDROOT
BRANCH   1   5
ATOM      5  O   UNL     1      27.646  17.296  -2.401  0.00  0.00    -0.450 OA
BRANCH   5   6
ATOM      6  C   UNL     1      26.620  17.388  -3.362  0.00  0.00    +0.240 C 
BRANCH   6   7
ATOM      7  C   UNL     1      26.486  16.232  -4.371  0.00  0.00    +0.100 C 
BRANCH   7   9
ATOM      8  N   UNL     1      25.458  13.995  -4.492  0.00  0.00    -0.134 NA
ATOM      9  C   UNL     1      25.744  15.110  -3.768  0.00  0.00    +0.086 A 
ATOM     10  C   UNL     1      25.243  14.952  -2.490  0.00  0.00    +0.139 A 
ATOM     11  N   UNL     1      24.609  13.727  -2.495  0.00  0.00    -0.219 N 
ATOM     12  N   UNL     1      24.800  13.155  -3.711  0.00  0.00    -0.061 NA
BRANCH  11  13
ATOM     13  C   UNL     1      23.867  13.078  -1.455  0.00  0.00    +0.073 A 
ATOM     14  C   UNL     1      24.555  12.250  -0.518  0.00  0.00    -0.024 A 
ATOM     15  C   UNL     1      23.832  11.608   0.511  0.00  0.00    +0.008 A 
ATOM     16  C   UNL     1      22.456  11.769   0.644  0.00  0.00    -0.050 A 
ATOM     17  C   UNL     1      21.719  11.074   1.751  0.00  0.00    +0.044 C 
ATOM     18  C   UNL     1      21.790  12.580  -0.271  0.00  0.00    +0.008 A 
ATOM     19  C   UNL     1      26.052  12.033  -0.501  0.00  0.00    +0.046 C 
ATOM     20  C   UNL     1      22.461  13.225  -1.335  0.00  0.00    -0.024 A 
ATOM     21  C   UNL     1      21.537  13.950  -2.283  0.00  0.00    +0.046 C 
ENDBRANCH  11  13
ENDBRANCH   7   9
ENDBRANCH   6   7
ENDBRANCH   5   6
ENDBRANCH   1   5
BRANCH   2  22
ATOM     22  C   UNL     1      28.501  14.857  -0.498  0.00  0.00    +0.152 C 
BRANCH  22  23
ATOM     23  C   UNL     1      29.508  14.324   0.542  0.00  0.00    +0.193 C 
ATOM     24  O   UNL     1      29.650  12.907   0.295  0.00  0.00    -0.219 OA
BRANCH  23  25
ATOM     25  C   UNL     1      30.951  14.871   0.486  0.00  0.00    +0.212 C 
ATOM     26  O   UNL     1      30.992  16.228   0.956  0.00  0.00    -0.218 OA
BRANCH  25  27
ATOM     27  C   UNL     1      31.976  14.016   1.326  0.00  0.00    +0.171 C 
ATOM     28  O   UNL     1      32.267  14.599   2.592  0.00  0.00    -0.343 OA
ATOM     29  C   UNL     1      33.310  14.190   3.427  0.00  0.00    +0.220 C 
ATOM     30  C   UNL     1      34.648  14.115   2.672  0.00  0.00    +0.076 C 
ATOM     31  C   UNL     1      34.430  13.235   1.430  0.00  0.00    +0.177 C 
ATOM     32  O   UNL     1      35.651  13.100   0.715  0.00  0.00    -0.221 OA
ATOM     33  C   UNL     1      33.311  13.844   0.529  0.00  0.00    +0.155 C 
BRANCH  33  34
ATOM     34  N   UNL     1      33.106  13.014  -0.655  0.00  0.00    -0.202 NA
ATOM     35  C   UNL     1      33.170  13.348  -1.970  0.00  0.00    +0.242 C 
ATOM     36  C   UNL     1      33.208  12.238  -2.988  0.00  0.00    +0.096 C 
ATOM     37  O   UNL     1      33.197  14.533  -2.295  0.00  0.00    -0.273 OA
ENDBRANCH  33  34
BRANCH  29  38
ATOM     38  C   UNL     1      32.996  12.810   4.225  0.00  0.00    +0.391 C 
ATOM     39  O   UNL     1      34.179  12.438   4.752  0.00  0.00    -0.243 OA
ATOM     40  O   UNL     1      31.663  12.728   4.314  0.00  0.00    -0.243 OA
ENDBRANCH  29  38
ENDBRANCH  25  27
ENDBRANCH  23  25
ENDBRANCH  22  23
ENDBRANCH   2  22
TORSDOF 11
