REMARK VINA RESULT:    -7.001      1.752      3.569
REMARK INTER + INTRA:         -14.112
REMARK INTER:                 -12.031
REMARK INTRA:                  -2.081
REMARK UNBOUND:                -1.585
REMARK  Name = lig_assembled_16.pdb
REMARK  14 active torsions:
REMARK  status: ('A' for Active; 'I' for Inactive)
REMARK    1  A    between atoms: _2  and  _8
REMARK    2  A    between atoms: _5  and  _6
REMARK    3  A    between atoms: _5  and  _17
REMARK    4  A    between atoms: _8  and  _9
REMARK    5  A    between atoms: _12  and  _13
REMARK    6  A    between atoms: _13  and  _15
REMARK    7  A    between atoms: _17  and  _19
REMARK    8  A    between atoms: _18  and  _23
REMARK    9  A    between atoms: _19  and  _22
REMARK   10  A    between atoms: _27  and  _37
REMARK   11  A    between atoms: _29  and  _30
REMARK   12  A    between atoms: _31  and  _33
REMARK   13  A    between atoms: _33  and  _35
REMARK   14  A    between atoms: _35  and  _37
REMARK                            x       y       z     vdW  Elec       q    Type
REMARK                         _______ _______ _______ _____ _____    ______ ____
ROOT
ATOM      1  C   UNL     1      27.852  14.783  -1.325  0.00  0.00    +0.400 C 
ATOM      2  N   UNL     1      27.545  13.984  -0.248  0.00  0.00    -0.278 N 
ATOM      3  H   UNL     1      28.129  14.401   0.544  0.00  0.00    +0.152 HD
ATOM      4  O   UNL     1      28.505  15.803  -1.122  0.00  0.00    -0.226 OA
ENDROOT
BRANCH   2   5
ATOM      5  C   UNL     1      26.785  12.859   0.289  0.00  0.00    +0.152 C 
BRANCH   5   6
ATOM      6  C   UNL     1      27.299  12.264   1.617  0.00  0.00    +0.193 C 
ATOM      7  O   UNL     1      28.131  11.135   1.272  0.00  0.00    -0.219 OA
BRANCH   6   8
ATOM      8  C   UNL     1      28.203  13.155   2.497  0.00  0.00    +0.212 C 
ATOM      9  O   UNL     1      27.456  13.694   3.600  0.00  0.00    -0.218 OA
BRANCH   8  10
ATOM     10  C   UNL     1      29.464  12.398   3.064  0.00  0.00    +0.171 C 
ATOM     11  O   UNL     1      29.293  11.986   4.416  0.00  0.00    -0.343 OA
ATOM     12  C   UNL     1      30.325  11.518   5.233  0.00  0.00    +0.220 C 
ATOM     13  C   UNL     1      31.535  12.468   5.224  0.00  0.00    +0.076 C 
ATOM     14  C   UNL     1      31.928  12.703   3.756  0.00  0.00    +0.177 C 
ATOM     15  O   UNL     1      33.070  13.545   3.692  0.00  0.00    -0.221 OA
ATOM     16  C   UNL     1      30.728  13.315   2.970  0.00  0.00    +0.155 C 
BRANCH  16  17
ATOM     17  N   UNL     1      31.099  13.546   1.576  0.00  0.00    -0.202 NA
ATOM     18  C   UNL     1      31.285  14.713   0.910  0.00  0.00    +0.242 C 
ATOM     19  C   UNL     1      31.952  14.668  -0.441  0.00  0.00    +0.096 C 
ATOM     20  O   UNL     1      30.911  15.769   1.417  0.00  0.00    -0.273 OA
ENDBRANCH  16  17
BRANCH  12  21
ATOM     21  C   UNL     1      30.764   9.988   4.909  0.00  0.00    +0.391 C 
ATOM     22  O   UNL     1      31.942   9.823   5.542  0.00  0.00    -0.243 OA
ATOM     23  O   UNL     1      29.678   9.390   4.405  0.00  0.00    -0.243 OA
ENDBRANCH  12  21
ENDBRANCH   8  10
ENDBRANCH   6   8
ENDBRANCH   5   6
ENDBRANCH   2   5
BRANCH   1  24
ATOM     24  O   UNL     1      27.441  14.356  -2.474  0.00  0.00    -0.450 OA
BRANCH  24  25
ATOM     25  C   UNL     1      26.284  14.396  -3.276  0.00  0.00    +0.240 C 
BRANCH  25  26
ATOM     26  C   UNL     1      25.268  15.521  -3.003  0.00  0.00    +0.100 C 
BRANCH  26  28
ATOM     27  N   UNL     1      22.797  15.701  -2.953  0.00  0.00    -0.134 NA
ATOM     28  C   UNL     1      23.929  14.952  -2.763  0.00  0.00    +0.086 A 
ATOM     29  C   UNL     1      23.568  13.683  -2.369  0.00  0.00    +0.134 A 
ATOM     30  N   UNL     1      22.207  13.698  -2.432  0.00  0.00    -0.247 N 
ATOM     31  N   UNL     1      21.744  14.926  -2.731  0.00  0.00    -0.065 NA
BRANCH  30  32
ATOM     32  C   UNL     1      21.294  12.589  -2.247  0.00  0.00    +0.180 C 
BRANCH  32  33
ATOM     33  C   UNL     1      21.545  11.882  -0.935  0.00  0.00    -0.026 A 
ATOM     34  C   UNL     1      22.195  10.641  -0.903  0.00  0.00    +0.006 A 
ATOM     35  C   UNL     1      22.459  10.010   0.316  0.00  0.00    +0.015 A 
ATOM     36  C   UNL     1      22.066  10.604   1.518  0.00  0.00    +0.059 A 
ATOM     37  C   UNL     1      21.397  11.836   1.498  0.00  0.00    +0.015 A 
ATOM     38  C   UNL     1      21.129  12.462   0.276  0.00  0.00    +0.006 A 
BRANCH  36  39
ATOM     39  C   UNL     1      22.438   9.926   2.788  0.00  0.00    +0.337 C 
ATOM     40  O   UNL     1      21.780   9.015   3.262  0.00  0.00    -0.245 OA
BRANCH  39  41
ATOM     41  O   UNL     1      23.538  10.428   3.380  0.00  0.00    -0.477 OA
ATOM     42  H   UNL     1      23.410  10.748   4.292  0.00  0.00    +0.295 HD
ENDBRANCH  39  41
ENDBRANCH  36  39
ENDBRANCH  32  33
ENDBRANCH  30  32
ENDBRANCH  26  28
ENDBRANCH  25  26
ENDBRANCH  24  25
ENDBRANCH   1  24
TORSDOF 14
