REMARK VINA RESULT:    -6.154      1.367      3.842
REMARK INTER + INTRA:         -12.727
REMARK INTER:                 -11.490
REMARK INTRA:                  -1.237
REMARK UNBOUND:                -1.716
REMARK  Name = lig_assembled_32.pdb
REMARK  14 active torsions:
REMARK  status: ('A' for Active; 'I' for Inactive)
REMARK    1  A    between atoms: _2  and  _8
REMARK    2  A    between atoms: _4  and  _9
REMARK    3  A    between atoms: _4  and  _10
REMARK    4  A    between atoms: _5  and  _6
REMARK    5  A    between atoms: _5  and  _12
REMARK    6  A    between atoms: _8  and  _9
REMARK    7  A    between atoms: _12  and  _14
REMARK    8  A    between atoms: _13  and  _18
REMARK    9  A    between atoms: _14  and  _17
REMARK   10  A    between atoms: _22  and  _32
REMARK   11  A    between atoms: _24  and  _25
REMARK   12  A    between atoms: _26  and  _28
REMARK   13  A    between atoms: _28  and  _30
REMARK   14  A    between atoms: _30  and  _32
REMARK                            x       y       z     vdW  Elec       q    Type
REMARK                         _______ _______ _______ _____ _____    ______ ____
ROOT
ATOM      1  C   UNL     1      29.200  15.027  -0.327  0.00  0.00    +0.152 C 
ENDROOT
BRANCH   1   3
ATOM      2  C   UNL     1      27.943  17.426  -0.656  0.00  0.00    +0.400 C 
ATOM      3  N   UNL     1      28.626  16.355  -0.129  0.00  0.00    -0.278 N 
ATOM      4  H   UNL     1      28.790  16.643   0.887  0.00  0.00    +0.152 HD
ATOM      5  O   UNL     1      27.545  18.296   0.116  0.00  0.00    -0.226 OA
BRANCH   2   6
ATOM      6  O   UNL     1      27.810  17.428  -1.942  0.00  0.00    -0.450 OA
BRANCH   6   7
ATOM      7  C   UNL     1      26.791  17.510  -2.910  0.00  0.00    +0.240 C 
BRANCH   7   8
ATOM      8  C   UNL     1      26.912  16.600  -4.148  0.00  0.00    +0.100 C 
BRANCH   8  10
ATOM      9  N   UNL     1      25.371  15.212  -5.497  0.00  0.00    -0.134 NA
ATOM     10  C   UNL     1      25.706  15.764  -4.289  0.00  0.00    +0.086 A 
ATOM     11  C   UNL     1      24.763  15.401  -3.352  0.00  0.00    +0.133 A 
ATOM     12  N   UNL     1      23.879  14.643  -4.056  0.00  0.00    -0.251 N 
ATOM     13  N   UNL     1      24.245  14.529  -5.343  0.00  0.00    -0.065 NA
BRANCH  12  14
ATOM     14  C   UNL     1      22.677  13.995  -3.580  0.00  0.00    +0.156 C 
BRANCH  14  15
ATOM     15  C   UNL     1      21.726  14.979  -2.911  0.00  0.00    +0.143 C 
BRANCH  15  16
ATOM     16  C   UNL     1      21.264  16.008  -3.902  0.00  0.00    +0.306 C 
ATOM     17  O   UNL     1      20.883  17.131  -3.615  0.00  0.00    -0.251 OA
BRANCH  16  18
ATOM     18  O   UNL     1      21.296  15.555  -5.175  0.00  0.00    -0.481 OA
ATOM     19  H   UNL     1      21.574  14.623  -5.264  0.00  0.00    +0.295 HD
ENDBRANCH  16  18
ENDBRANCH  15  16
ENDBRANCH  14  15
ENDBRANCH  12  14
ENDBRANCH   8  10
ENDBRANCH   7   8
ENDBRANCH   6   7
ENDBRANCH   2   6
ENDBRANCH   1   3
BRANCH   1  20
ATOM     20  C   UNL     1      30.722  14.905  -0.106  0.00  0.00    +0.193 C 
ATOM     21  O   UNL     1      30.986  15.371   1.236  0.00  0.00    -0.219 OA
BRANCH  20  22
ATOM     22  C   UNL     1      31.340  13.491  -0.152  0.00  0.00    +0.212 C 
ATOM     23  O   UNL     1      30.391  12.545  -0.671  0.00  0.00    -0.218 OA
BRANCH  22  24
ATOM     24  C   UNL     1      32.655  13.412  -1.019  0.00  0.00    +0.171 C 
ATOM     25  O   UNL     1      32.473  12.675  -2.223  0.00  0.00    -0.343 OA
ATOM     26  C   UNL     1      33.515  12.245  -3.049  0.00  0.00    +0.220 C 
ATOM     27  C   UNL     1      34.605  11.505  -2.254  0.00  0.00    +0.076 C 
ATOM     28  C   UNL     1      35.033  12.420  -1.094  0.00  0.00    +0.177 C 
ATOM     29  O   UNL     1      36.070  11.798  -0.348  0.00  0.00    -0.221 OA
ATOM     30  C   UNL     1      33.805  12.752  -0.190  0.00  0.00    +0.155 C 
BRANCH  30  31
ATOM     31  N   UNL     1      34.210  13.615   0.917  0.00  0.00    -0.202 NA
ATOM     32  C   UNL     1      34.176  13.385   2.254  0.00  0.00    +0.242 C 
ATOM     33  C   UNL     1      34.926  14.326   3.161  0.00  0.00    +0.096 C 
ATOM     34  O   UNL     1      33.545  12.424   2.689  0.00  0.00    -0.273 OA
ENDBRANCH  30  31
BRANCH  26  35
ATOM     35  C   UNL     1      34.145  13.429  -3.966  0.00  0.00    +0.391 C 
ATOM     36  O   UNL     1      35.338  12.955  -4.374  0.00  0.00    -0.243 OA
ATOM     37  O   UNL     1      33.141  14.278  -4.214  0.00  0.00    -0.243 OA
ENDBRANCH  26  35
ENDBRANCH  22  24
ENDBRANCH  20  22
ENDBRANCH   1  20
TORSDOF 14
