REMARK VINA RESULT:    -6.516      1.927      3.736
REMARK INTER + INTRA:         -13.683
REMARK INTER:                 -12.141
REMARK INTRA:                  -1.542
REMARK UNBOUND:                -2.596
REMARK  Name = lig_assembled_4.pdb
REMARK  14 active torsions:
REMARK  status: ('A' for Active; 'I' for Inactive)
REMARK    1  A    between atoms: _2  and  _8
REMARK    2  A    between atoms: _5  and  _6
REMARK    3  A    between atoms: _5  and  _16
REMARK    4  A    between atoms: _9  and  _10
REMARK    5  A    between atoms: _10  and  _11
REMARK    6  A    between atoms: _10  and  _12
REMARK    7  A    between atoms: _16  and  _18
REMARK    8  A    between atoms: _17  and  _22
REMARK    9  A    between atoms: _18  and  _21
REMARK   10  A    between atoms: _26  and  _36
REMARK   11  A    between atoms: _28  and  _29
REMARK   12  A    between atoms: _30  and  _32
REMARK   13  A    between atoms: _32  and  _34
REMARK   14  A    between atoms: _34  and  _36
REMARK                            x       y       z     vdW  Elec       q    Type
REMARK                         _______ _______ _______ _____ _____    ______ ____
ROOT
ATOM      1  C   UNL     1      28.517  16.354  -0.508  0.00  0.00    +0.400 C 
ATOM      2  N   UNL     1      28.561  15.497   0.566  0.00  0.00    -0.278 N 
ATOM      3  H   UNL     1      29.005  16.089   1.337  0.00  0.00    +0.152 HD
ATOM      4  O   UNL     1      28.786  17.537  -0.317  0.00  0.00    -0.226 OA
ENDROOT
BRANCH   2   5
ATOM      5  C   UNL     1      28.267  14.177   1.117  0.00  0.00    +0.152 C 
BRANCH   5   6
ATOM      6  C   UNL     1      28.733  13.926   2.566  0.00  0.00    +0.193 C 
ATOM      7  O   UNL     1      27.635  13.284   3.250  0.00  0.00    -0.219 OA
BRANCH   6   8
ATOM      8  C   UNL     1      29.929  12.971   2.777  0.00  0.00    +0.212 C 
ATOM      9  O   UNL     1      29.595  11.644   2.338  0.00  0.00    -0.218 OA
BRANCH   8  10
ATOM     10  C   UNL     1      31.237  13.435   2.029  0.00  0.00    +0.171 C 
ATOM     11  O   UNL     1      31.161  13.242   0.621  0.00  0.00    -0.343 OA
ATOM     12  C   UNL     1      32.251  13.335  -0.248  0.00  0.00    +0.220 C 
ATOM     13  C   UNL     1      33.441  12.489   0.237  0.00  0.00    +0.076 C 
ATOM     14  C   UNL     1      33.735  12.894   1.691  0.00  0.00    +0.177 C 
ATOM     15  O   UNL     1      34.855  12.168   2.176  0.00  0.00    -0.221 OA
ATOM     16  C   UNL     1      32.476  12.655   2.581  0.00  0.00    +0.155 C 
BRANCH  16  17
ATOM     17  N   UNL     1      32.753  13.032   3.964  0.00  0.00    -0.202 NA
ATOM     18  C   UNL     1      32.748  12.272   5.089  0.00  0.00    +0.242 C 
ATOM     19  C   UNL     1      33.358  12.845   6.342  0.00  0.00    +0.096 C 
ATOM     20  O   UNL     1      32.254  11.147   5.059  0.00  0.00    -0.273 OA
ENDBRANCH  16  17
BRANCH  12  21
ATOM     21  C   UNL     1      32.696  14.865  -0.565  0.00  0.00    +0.391 C 
ATOM     22  O   UNL     1      33.916  14.762  -1.128  0.00  0.00    -0.243 OA
ATOM     23  O   UNL     1      31.590  15.607  -0.433  0.00  0.00    -0.243 OA
ENDBRANCH  12  21
ENDBRANCH   8  10
ENDBRANCH   6   8
ENDBRANCH   5   6
ENDBRANCH   2   5
BRANCH   1  24
ATOM     24  O   UNL     1      28.219  15.814  -1.644  0.00  0.00    -0.450 OA
BRANCH  24  25
ATOM     25  C   UNL     1      27.099  15.285  -2.315  0.00  0.00    +0.240 C 
BRANCH  25  26
ATOM     26  C   UNL     1      26.201  16.271  -3.086  0.00  0.00    +0.100 C 
BRANCH  26  28
ATOM     27  N   UNL     1      24.740  15.030  -4.640  0.00  0.00    -0.134 NA
ATOM     28  C   UNL     1      24.915  15.640  -3.437  0.00  0.00    +0.086 A 
ATOM     29  C   UNL     1      23.740  15.577  -2.724  0.00  0.00    +0.139 A 
ATOM     30  N   UNL     1      22.824  15.025  -3.598  0.00  0.00    -0.220 N 
ATOM     31  N   UNL     1      23.474  14.638  -4.716  0.00  0.00    -0.061 NA
BRANCH  30  32
ATOM     32  C   UNL     1      21.415  14.891  -3.409  0.00  0.00    +0.070 A 
ATOM     33  C   UNL     1      20.815  13.765  -2.783  0.00  0.00    -0.019 A 
ATOM     34  C   UNL     1      19.405  13.746  -2.688  0.00  0.00    +0.006 A 
ATOM     35  C   UNL     1      18.613  14.778  -3.197  0.00  0.00    +0.000 A 
ATOM     36  C   UNL     1      19.210  15.873  -3.799  0.00  0.00    +0.002 A 
ATOM     37  C   UNL     1      20.599  15.931  -3.907  0.00  0.00    +0.028 A 
BRANCH  33  38
ATOM     38  C   UNL     1      21.594  12.576  -2.217  0.00  0.00    +0.015 C 
ATOM     39  C   UNL     1      20.959  11.200  -2.472  0.00  0.00    +0.012 C 
ATOM     40  C   UNL     1      21.826  12.769  -0.716  0.00  0.00    +0.012 C 
ENDBRANCH  33  38
ENDBRANCH  30  32
ENDBRANCH  26  28
ENDBRANCH  25  26
ENDBRANCH  24  25
ENDBRANCH   1  24
TORSDOF 12
