REMARK VINA RESULT:    -6.697      1.391      1.590
REMARK INTER + INTRA:         -13.287
REMARK INTER:                 -12.076
REMARK INTRA:                  -1.211
REMARK UNBOUND:                -1.696
REMARK  Name = lig_assembled_72.pdb
REMARK  15 active torsions:
REMARK  status: ('A' for Active; 'I' for Inactive)
REMARK    1  A    between atoms: _2  and  _8
REMARK    2  A    between atoms: _4  and  _8
REMARK    3  A    between atoms: _4  and  _11
REMARK    4  A    between atoms: _5  and  _6
REMARK    5  A    between atoms: _5  and  _12
REMARK    6  A    between atoms: _8  and  _9
REMARK    7  A    between atoms: _8  and  _10
REMARK    8  A    between atoms: _12  and  _14
REMARK    9  A    between atoms: _13  and  _18
REMARK   10  A    between atoms: _14  and  _17
REMARK   11  A    between atoms: _22  and  _32
REMARK   12  A    between atoms: _24  and  _25
REMARK   13  A    between atoms: _26  and  _28
REMARK   14  A    between atoms: _28  and  _30
REMARK   15  A    between atoms: _30  and  _32
REMARK                            x       y       z     vdW  Elec       q    Type
REMARK                         _______ _______ _______ _____ _____    ______ ____
ROOT
ATOM      1  C   UNL     1      28.582  14.875   0.522  0.00  0.00    +0.152 C 
ENDROOT
BRANCH   1   3
ATOM      2  C   UNL     1      28.030  17.141  -0.894  0.00  0.00    +0.400 C 
ATOM      3  N   UNL     1      28.442  16.259   0.077  0.00  0.00    -0.278 N 
ATOM      4  H   UNL     1      28.815  16.897   0.848  0.00  0.00    +0.152 HD
ATOM      5  O   UNL     1      28.003  18.337  -0.616  0.00  0.00    -0.226 OA
BRANCH   2   6
ATOM      6  O   UNL     1      27.734  16.617  -2.038  0.00  0.00    -0.450 OA
BRANCH   6   7
ATOM      7  C   UNL     1      26.596  16.256  -2.786  0.00  0.00    +0.240 C 
BRANCH   7   8
ATOM      8  C   UNL     1      26.010  14.850  -2.555  0.00  0.00    +0.100 C 
BRANCH   8  10
ATOM      9  N   UNL     1      23.765  14.506  -1.576  0.00  0.00    -0.134 NA
ATOM     10  C   UNL     1      24.539  14.889  -2.637  0.00  0.00    +0.086 A 
ATOM     11  C   UNL     1      23.719  15.274  -3.676  0.00  0.00    +0.134 A 
ATOM     12  N   UNL     1      22.453  15.104  -3.186  0.00  0.00    -0.244 N 
ATOM     13  N   UNL     1      22.493  14.640  -1.920  0.00  0.00    -0.065 NA
BRANCH  12  14
ATOM     14  C   UNL     1      21.174  15.365  -3.861  0.00  0.00    +0.083 C 
ATOM     15  C   UNL     1      20.040  14.669  -3.085  0.00  0.00    +0.038 C 
ATOM     16  C   UNL     1      21.225  14.812  -5.300  0.00  0.00    +0.038 C 
BRANCH  14  17
ATOM     17  C   UNL     1      20.851  16.884  -3.911  0.00  0.00    +0.185 C 
BRANCH  17  18
ATOM     18  O   UNL     1      21.722  17.659  -3.089  0.00  0.00    -0.393 OA
ATOM     19  H   UNL     1      22.633  17.429  -3.372  0.00  0.00    +0.209 HD
ENDBRANCH  17  18
ENDBRANCH  14  17
ENDBRANCH  12  14
ENDBRANCH   8  10
ENDBRANCH   7   8
ENDBRANCH   6   7
ENDBRANCH   2   6
ENDBRANCH   1   3
BRANCH   1  20
ATOM     20  C   UNL     1      29.899  14.168   0.140  0.00  0.00    +0.193 C 
ATOM     21  O   UNL     1      29.913  14.064  -1.301  0.00  0.00    -0.219 OA
BRANCH  20  22
ATOM     22  C   UNL     1      31.222  14.886   0.487  0.00  0.00    +0.212 C 
ATOM     23  O   UNL     1      30.969  16.034   1.312  0.00  0.00    -0.218 OA
BRANCH  22  24
ATOM     24  C   UNL     1      32.263  13.957   1.222  0.00  0.00    +0.171 C 
ATOM     25  O   UNL     1      32.615  14.443   2.513  0.00  0.00    -0.343 OA
ATOM     26  C   UNL     1      33.682  13.959   3.273  0.00  0.00    +0.220 C 
ATOM     27  C   UNL     1      34.988  13.916   2.461  0.00  0.00    +0.076 C 
ATOM     28  C   UNL     1      34.704  13.130   1.170  0.00  0.00    +0.177 C 
ATOM     29  O   UNL     1      35.892  13.025   0.399  0.00  0.00    -0.221 OA
ATOM     30  C   UNL     1      33.561  13.819   0.361  0.00  0.00    +0.155 C 
BRANCH  30  31
ATOM     31  N   UNL     1      33.293  13.080  -0.869  0.00  0.00    -0.202 NA
ATOM     32  C   UNL     1      33.315  13.503  -2.159  0.00  0.00    +0.242 C 
ATOM     33  C   UNL     1      33.290  12.467  -3.252  0.00  0.00    +0.096 C 
ATOM     34  O   UNL     1      33.357  14.707  -2.402  0.00  0.00    -0.273 OA
ENDBRANCH  30  31
BRANCH  26  35
ATOM     35  C   UNL     1      33.374  12.532   3.985  0.00  0.00    +0.391 C 
ATOM     36  O   UNL     1      34.002  12.594   5.175  0.00  0.00    -0.243 OA
ATOM     37  O   UNL     1      32.388  11.969   3.275  0.00  0.00    -0.243 OA
ENDBRANCH  26  35
ENDBRANCH  22  24
ENDBRANCH  20  22
ENDBRANCH   1  20
TORSDOF 13
