REMARK VINA RESULT:    -7.293      2.429      4.429
REMARK INTER + INTRA:         -15.142
REMARK INTER:                 -12.640
REMARK INTRA:                  -2.502
REMARK UNBOUND:                -2.732
REMARK  Name = lig_assembled_85.pdb
REMARK  14 active torsions:
REMARK  status: ('A' for Active; 'I' for Inactive)
REMARK    1  A    between atoms: _2  and  _9
REMARK    2  A    between atoms: _3  and  _5
REMARK    3  A    between atoms: _3  and  _16
REMARK    4  A    between atoms: _6  and  _7
REMARK    5  A    between atoms: _6  and  _18
REMARK    6  A    between atoms: _14  and  _15
REMARK    7  A    between atoms: _18  and  _20
REMARK    8  A    between atoms: _19  and  _24
REMARK    9  A    between atoms: _20  and  _23
REMARK   10  A    between atoms: _28  and  _38
REMARK   11  A    between atoms: _30  and  _31
REMARK   12  A    between atoms: _32  and  _34
REMARK   13  A    between atoms: _34  and  _36
REMARK   14  A    between atoms: _36  and  _38
REMARK                            x       y       z     vdW  Elec       q    Type
REMARK                         _______ _______ _______ _____ _____    ______ ____
ROOT
ATOM      1  C   UNL     1      28.295  17.593  -0.589  0.00  0.00    +0.400 C 
ATOM      2  N   UNL     1      29.519  17.580   0.037  0.00  0.00    -0.278 N 
ATOM      3  H   UNL     1      29.483  18.443   0.668  0.00  0.00    +0.152 HD
ATOM      4  O   UNL     1      27.449  18.389  -0.190  0.00  0.00    -0.226 OA
ENDROOT
BRANCH   2   5
ATOM      5  C   UNL     1      30.810  16.925   0.233  0.00  0.00    +0.152 C 
BRANCH   5   6
ATOM      6  C   UNL     1      30.818  15.388   0.100  0.00  0.00    +0.193 C 
ATOM      7  O   UNL     1      31.779  15.066  -0.929  0.00  0.00    -0.219 OA
BRANCH   6   8
ATOM      8  C   UNL     1      31.276  14.567   1.326  0.00  0.00    +0.212 C 
ATOM      9  O   UNL     1      31.497  15.429   2.454  0.00  0.00    -0.218 OA
BRANCH   8  10
ATOM     10  C   UNL     1      30.251  13.444   1.744  0.00  0.00    +0.171 C 
ATOM     11  O   UNL     1      28.906  13.910   1.762  0.00  0.00    -0.343 OA
ATOM     12  C   UNL     1      27.836  13.208   2.322  0.00  0.00    +0.220 C 
ATOM     13  C   UNL     1      28.148  12.742   3.755  0.00  0.00    +0.076 C 
ATOM     14  C   UNL     1      29.477  11.970   3.712  0.00  0.00    +0.177 C 
ATOM     15  O   UNL     1      29.793  11.481   5.007  0.00  0.00    -0.221 OA
ATOM     16  C   UNL     1      30.613  12.886   3.159  0.00  0.00    +0.155 C 
BRANCH  16  17
ATOM     17  N   UNL     1      31.879  12.159   3.122  0.00  0.00    -0.202 NA
ATOM     18  C   UNL     1      33.022  12.370   3.823  0.00  0.00    +0.242 C 
ATOM     19  C   UNL     1      34.077  11.296   3.811  0.00  0.00    +0.096 C 
ATOM     20  O   UNL     1      33.167  13.421   4.445  0.00  0.00    -0.273 OA
ENDBRANCH  16  17
BRANCH  12  21
ATOM     21  C   UNL     1      27.311  11.981   1.396  0.00  0.00    +0.391 C 
ATOM     22  O   UNL     1      26.751  11.110   2.258  0.00  0.00    -0.243 OA
ATOM     23  O   UNL     1      27.357  12.425   0.134  0.00  0.00    -0.243 OA
ENDBRANCH  12  21
ENDBRANCH   8  10
ENDBRANCH   6   8
ENDBRANCH   5   6
ENDBRANCH   2   5
BRANCH   1  24
ATOM     24  O   UNL     1      28.163  16.770  -1.577  0.00  0.00    -0.450 OA
BRANCH  24  25
ATOM     25  C   UNL     1      27.727  15.453  -1.819  0.00  0.00    +0.240 C 
BRANCH  25  26
ATOM     26  C   UNL     1      26.669  15.245  -2.919  0.00  0.00    +0.100 C 
BRANCH  26  28
ATOM     27  N   UNL     1      25.693  12.986  -3.117  0.00  0.00    -0.134 NA
ATOM     28  C   UNL     1      25.705  14.209  -2.511  0.00  0.00    +0.086 A 
ATOM     29  C   UNL     1      24.761  14.229  -1.507  0.00  0.00    +0.139 A 
ATOM     30  N   UNL     1      24.197  12.977  -1.537  0.00  0.00    -0.219 N 
ATOM     31  N   UNL     1      24.793  12.235  -2.500  0.00  0.00    -0.061 NA
BRANCH  30  32
ATOM     32  C   UNL     1      23.226  12.409  -0.685  0.00  0.00    +0.080 A 
ATOM     33  C   UNL     1      21.849  12.668  -0.774  0.00  0.00    +0.062 A 
ATOM     34  C   UNL     1      21.029  12.232   0.292  0.00  0.00    +0.016 A 
ATOM     35  C   UNL     1      21.549  11.544   1.394  0.00  0.00    +0.021 A 
ATOM     36  C   UNL     1      22.901  11.235   1.427  0.00  0.00    +0.043 A 
ATOM     37 CL   UNL     1      23.564  10.421   2.789  0.00  0.00    -0.083 Cl
ATOM     38  C   UNL     1      23.733  11.637   0.386  0.00  0.00    +0.048 A 
BRANCH  33  39
ATOM     39  C   UNL     1      21.110  13.426  -1.826  0.00  0.00    +0.248 C 
ATOM     40  O   UNL     1      20.706  14.540  -1.481  0.00  0.00    -0.270 OA
ATOM     41  N   UNL     1      20.820  12.917  -3.097  0.00  0.00    -0.304 N 
ATOM     42  C   UNL     1      21.323  11.692  -3.705  0.00  0.00    +0.132 C 
ATOM     43  C   UNL     1      20.079  13.796  -3.995  0.00  0.00    +0.132 C 
ENDBRANCH  33  39
ENDBRANCH  30  32
ENDBRANCH  26  28
ENDBRANCH  25  26
ENDBRANCH  24  25
ENDBRANCH   1  24
TORSDOF 12
