REMARK VINA RESULT:    -6.814      3.729      9.630
REMARK INTER + INTRA:         -13.889
REMARK INTER:                 -11.710
REMARK INTRA:                  -2.179
REMARK UNBOUND:                -2.096
REMARK  Name = lig_assembled_88.pdb
REMARK  13 active torsions:
REMARK  status: ('A' for Active; 'I' for Inactive)
REMARK    1  A    between atoms: _2  and  _8
REMARK    2  A    between atoms: _4  and  _14
REMARK    3  A    between atoms: _5  and  _6
REMARK    4  A    between atoms: _5  and  _15
REMARK    5  A    between atoms: _8  and  _9
REMARK    6  A    between atoms: _15  and  _17
REMARK    7  A    between atoms: _16  and  _21
REMARK    8  A    between atoms: _17  and  _20
REMARK    9  A    between atoms: _25  and  _35
REMARK   10  A    between atoms: _27  and  _28
REMARK   11  A    between atoms: _29  and  _31
REMARK   12  A    between atoms: _31  and  _33
REMARK   13  A    between atoms: _33  and  _35
REMARK                            x       y       z     vdW  Elec       q    Type
REMARK                         _______ _______ _______ _____ _____    ______ ____
ROOT
ATOM      1  C   UNL     1      25.955  16.078  -3.954  0.00  0.00    +0.400 C 
ATOM      2  N   UNL     1      24.642  15.750  -3.711  0.00  0.00    -0.278 N 
ATOM      3  H   UNL     1      24.238  15.606  -4.690  0.00  0.00    +0.152 HD
ATOM      4  O   UNL     1      26.379  15.958  -5.101  0.00  0.00    -0.226 OA
ENDROOT
BRANCH   1   5
ATOM      5  O   UNL     1      26.619  16.519  -2.937  0.00  0.00    -0.450 OA
BRANCH   5   6
ATOM      6  C   UNL     1      27.195  17.719  -2.476  0.00  0.00    +0.240 C 
BRANCH   6   7
ATOM      7  C   UNL     1      27.528  17.817  -0.975  0.00  0.00    +0.100 C 
BRANCH   7   9
ATOM      8  N   UNL     1      29.930  17.397  -0.541  0.00  0.00    -0.134 NA
ATOM      9  C   UNL     1      28.648  16.920  -0.635  0.00  0.00    +0.086 A 
ATOM     10  C   UNL     1      28.654  15.565  -0.388  0.00  0.00    +0.134 A 
ATOM     11  N   UNL     1      29.976  15.267  -0.227  0.00  0.00    -0.247 N 
ATOM     12  N   UNL     1      30.734  16.380  -0.268  0.00  0.00    -0.065 NA
BRANCH  11  13
ATOM     13  C   UNL     1      30.592  13.956  -0.102  0.00  0.00    +0.184 C 
BRANCH  13  14
ATOM     14  C   UNL     1      30.899  13.575   1.333  0.00  0.00    +0.017 A 
ATOM     15  C   UNL     1      30.009  12.820   2.122  0.00  0.00    +0.024 A 
ATOM     16  C   UNL     1      30.326  12.487   3.440  0.00  0.00    +0.019 A 
ATOM     17 BR   UNL     1      29.084  11.515   4.484  0.00  0.00    -0.050 Br
ATOM     18  C   UNL     1      31.543  12.867   3.999  0.00  0.00    +0.034 A 
ATOM     19  C   UNL     1      32.453  13.573   3.216  0.00  0.00    +0.061 A 
ATOM     20 BR   UNL     1      34.125  14.056   3.970  0.00  0.00    -0.046 Br
ATOM     21  C   UNL     1      32.136  13.919   1.895  0.00  0.00    +0.136 A 
BRANCH  21  22
ATOM     22  O   UNL     1      33.031  14.600   1.113  0.00  0.00    -0.505 OA
ATOM     23  H   UNL     1      33.393  13.970   0.462  0.00  0.00    +0.292 HD
ENDBRANCH  21  22
ENDBRANCH  13  14
ENDBRANCH  11  13
ENDBRANCH   7   9
ENDBRANCH   6   7
ENDBRANCH   5   6
ENDBRANCH   1   5
BRANCH   2  24
ATOM     24  C   UNL     1      23.581  15.501  -2.739  0.00  0.00    +0.152 C 
BRANCH  24  25
ATOM     25  C   UNL     1      22.637  14.321  -3.049  0.00  0.00    +0.193 C 
ATOM     26  O   UNL     1      21.812  14.731  -4.162  0.00  0.00    -0.219 OA
BRANCH  25  27
ATOM     27  C   UNL     1      23.279  12.995  -3.513  0.00  0.00    +0.212 C 
ATOM     28  O   UNL     1      23.712  13.098  -4.879  0.00  0.00    -0.218 OA
BRANCH  27  29
ATOM     29  C   UNL     1      24.505  12.551  -2.627  0.00  0.00    +0.171 C 
ATOM     30  O   UNL     1      25.594  12.066  -3.404  0.00  0.00    -0.343 OA
ATOM     31  C   UNL     1      26.697  11.389  -2.878  0.00  0.00    +0.220 C 
ATOM     32  C   UNL     1      26.271  10.227  -1.965  0.00  0.00    +0.076 C 
ATOM     33  C   UNL     1      25.300  10.795  -0.916  0.00  0.00    +0.177 C 
ATOM     34  O   UNL     1      24.904   9.767  -0.019  0.00  0.00    -0.221 OA
ATOM     35  C   UNL     1      24.065  11.438  -1.620  0.00  0.00    +0.155 C 
BRANCH  35  36
ATOM     36  N   UNL     1      23.137  11.973  -0.628  0.00  0.00    -0.202 NA
ATOM     37  C   UNL     1      21.841  11.648  -0.388  0.00  0.00    +0.242 C 
ATOM     38  C   UNL     1      21.204  12.141   0.886  0.00  0.00    +0.096 C 
ATOM     39  O   UNL     1      21.224  10.966  -1.204  0.00  0.00    -0.273 OA
ENDBRANCH  35  36
BRANCH  31  40
ATOM     40  C   UNL     1      27.766  12.366  -2.142  0.00  0.00    +0.391 C 
ATOM     41  O   UNL     1      27.895  13.424  -2.966  0.00  0.00    -0.243 OA
ATOM     42  O   UNL     1      27.879  11.912  -0.888  0.00  0.00    -0.243 OA
ENDBRANCH  31  40
ENDBRANCH  27  29
ENDBRANCH  25  27
ENDBRANCH  24  25
ENDBRANCH   2  24
TORSDOF 13
