REMARK VINA RESULT:    -6.811      4.118      8.642
REMARK INTER + INTRA:         -13.190
REMARK INTER:                 -11.806
REMARK INTRA:                  -1.384
REMARK UNBOUND:                -1.999
REMARK  Name = lig_assembled_57.pdb
REMARK  12 active torsions:
REMARK  status: ('A' for Active; 'I' for Inactive)
REMARK    1  A    between atoms: _2  and  _9
REMARK    2  A    between atoms: _3  and  _12
REMARK    3  A    between atoms: _6  and  _7
REMARK    4  A    between atoms: _6  and  _14
REMARK    5  A    between atoms: _14  and  _16
REMARK    6  A    between atoms: _15  and  _20
REMARK    7  A    between atoms: _16  and  _19
REMARK    8  A    between atoms: _24  and  _34
REMARK    9  A    between atoms: _26  and  _27
REMARK   10  A    between atoms: _28  and  _30
REMARK   11  A    between atoms: _30  and  _32
REMARK   12  A    between atoms: _32  and  _34
REMARK                            x       y       z     vdW  Elec       q    Type
REMARK                         _______ _______ _______ _____ _____    ______ ____
ROOT
ATOM      1  C   UNL     1      28.122  17.190  -0.695  0.00  0.00    +0.400 C 
ATOM      2  N   UNL     1      28.530  16.125   0.074  0.00  0.00    -0.278 N 
ATOM      3  H   UNL     1      28.867  16.587   0.977  0.00  0.00    +0.152 HD
ATOM      4  O   UNL     1      28.059  18.296  -0.165  0.00  0.00    -0.226 OA
ENDROOT
BRANCH   1   5
ATOM      5  O   UNL     1      27.869  16.921  -1.933  0.00  0.00    -0.450 OA
BRANCH   5   6
ATOM      6  C   UNL     1      26.963  17.296  -2.944  0.00  0.00    +0.240 C 
BRANCH   6   7
ATOM      7  C   UNL     1      27.015  16.516  -4.272  0.00  0.00    +0.100 C 
BRANCH   7   9
ATOM      8  N   UNL     1      25.512  15.115  -5.642  0.00  0.00    -0.134 NA
ATOM      9  C   UNL     1      25.755  15.780  -4.473  0.00  0.00    +0.086 A 
ATOM     10  C   UNL     1      24.685  15.600  -3.622  0.00  0.00    +0.134 A 
ATOM     11  N   UNL     1      23.864  14.744  -4.294  0.00  0.00    -0.248 N 
ATOM     12  N   UNL     1      24.337  14.516  -5.538  0.00  0.00    -0.065 NA
BRANCH  11  13
ATOM     13  C   UNL     1      22.665  14.033  -3.866  0.00  0.00    +0.111 C 
ATOM     14  C   UNL     1      21.947  14.802  -2.748  0.00  0.00    +0.042 C 
ATOM     15  C   UNL     1      21.228  16.024  -3.315  0.00  0.00    +0.086 C 
ATOM     16  N   UNL     1      20.237  15.680  -4.340  0.00  0.00    -0.305 NA
ATOM     17  C   UNL     1      20.806  14.878  -5.424  0.00  0.00    +0.086 C 
ATOM     18  C   UNL     1      19.031  15.090  -3.769  0.00  0.00    +0.104 C 
ATOM     19  C   UNL     1      21.653  13.681  -4.968  0.00  0.00    +0.042 C 
ENDBRANCH  11  13
ENDBRANCH   7   9
ENDBRANCH   6   7
ENDBRANCH   5   6
ENDBRANCH   1   5
BRANCH   2  20
ATOM     20  C   UNL     1      28.691  14.680   0.213  0.00  0.00    +0.152 C 
BRANCH  20  21
ATOM     21  C   UNL     1      30.121  14.181   0.504  0.00  0.00    +0.193 C 
ATOM     22  O   UNL     1      30.040  12.745   0.640  0.00  0.00    -0.219 OA
BRANCH  21  23
ATOM     23  C   UNL     1      31.192  14.405  -0.586  0.00  0.00    +0.212 C 
ATOM     24  O   UNL     1      31.589  15.785  -0.623  0.00  0.00    -0.218 OA
BRANCH  23  25
ATOM     25  C   UNL     1      32.479  13.515  -0.390  0.00  0.00    +0.171 C 
ATOM     26  O   UNL     1      33.271  13.935   0.716  0.00  0.00    -0.343 OA
ATOM     27  C   UNL     1      34.570  13.488   0.970  0.00  0.00    +0.220 C 
ATOM     28  C   UNL     1      35.469  13.612  -0.272  0.00  0.00    +0.076 C 
ATOM     29  C   UNL     1      34.754  12.900  -1.433  0.00  0.00    +0.177 C 
ATOM     30  O   UNL     1      35.563  12.950  -2.600  0.00  0.00    -0.221 OA
ATOM     31  C   UNL     1      33.357  13.548  -1.683  0.00  0.00    +0.155 C 
BRANCH  31  32
ATOM     32  N   UNL     1      32.678  12.879  -2.789  0.00  0.00    -0.202 NA
ATOM     33  C   UNL     1      32.688  13.167  -4.116  0.00  0.00    +0.242 C 
ATOM     34  C   UNL     1      32.141  12.142  -5.075  0.00  0.00    +0.096 C 
ATOM     35  O   UNL     1      33.140  14.244  -4.500  0.00  0.00    -0.273 OA
ENDBRANCH  31  32
BRANCH  27  36
ATOM     36  C   UNL     1      34.628  11.993   1.603  0.00  0.00    +0.391 C 
ATOM     37  O   UNL     1      35.903  11.594   1.434  0.00  0.00    -0.243 OA
ATOM     38  O   UNL     1      33.499  11.845   2.307  0.00  0.00    -0.243 OA
ENDBRANCH  27  36
ENDBRANCH  23  25
ENDBRANCH  21  23
ENDBRANCH  20  21
ENDBRANCH   2  20
TORSDOF 11
