REMARK VINA RESULT:    -7.076      3.599     10.083
REMARK INTER + INTRA:         -15.212
REMARK INTER:                 -13.311
REMARK INTRA:                  -1.900
REMARK UNBOUND:                -2.551
REMARK  Name = lig_assembled_64.pdb
REMARK  14 active torsions:
REMARK  status: ('A' for Active; 'I' for Inactive)
REMARK    1  A    between atoms: _2  and  _9
REMARK    2  A    between atoms: _6  and  _7
REMARK    3  A    between atoms: _6  and  _22
REMARK    4  A    between atoms: _11  and  _12
REMARK    5  A    between atoms: _12  and  _20
REMARK    6  A    between atoms: _13  and  _14
REMARK    7  A    between atoms: _22  and  _24
REMARK    8  A    between atoms: _23  and  _28
REMARK    9  A    between atoms: _24  and  _27
REMARK   10  A    between atoms: _32  and  _42
REMARK   11  A    between atoms: _34  and  _35
REMARK   12  A    between atoms: _36  and  _38
REMARK   13  A    between atoms: _38  and  _40
REMARK   14  A    between atoms: _40  and  _42
REMARK                            x       y       z     vdW  Elec       q    Type
REMARK                         _______ _______ _______ _____ _____    ______ ____
ROOT
ATOM      1  O   UNL     1      28.251  16.301  -1.406  0.00  0.00    -0.450 OA
ENDROOT
BRANCH   1   2
ATOM      2  C   UNL     1      27.463  17.298  -1.639  0.00  0.00    +0.400 C 
ATOM      3  N   UNL     1      26.343  17.010  -2.384  0.00  0.00    -0.278 N 
ATOM      4  H   UNL     1      25.750  17.895  -2.291  0.00  0.00    +0.152 HD
ATOM      5  O   UNL     1      27.610  18.449  -1.236  0.00  0.00    -0.226 OA
BRANCH   3   6
ATOM      6  C   UNL     1      25.624  16.067  -3.236  0.00  0.00    +0.152 C 
BRANCH   6   7
ATOM      7  C   UNL     1      24.675  15.087  -2.515  0.00  0.00    +0.193 C 
ATOM      8  O   UNL     1      23.467  15.024  -3.305  0.00  0.00    -0.219 OA
BRANCH   7   9
ATOM      9  C   UNL     1      25.129  13.616  -2.386  0.00  0.00    +0.212 C 
ATOM     10  O   UNL     1      26.454  13.451  -2.917  0.00  0.00    -0.218 OA
BRANCH   9  11
ATOM     11  C   UNL     1      25.111  13.086  -0.902  0.00  0.00    +0.171 C 
ATOM     12  O   UNL     1      26.279  12.341  -0.573  0.00  0.00    -0.343 OA
ATOM     13  C   UNL     1      26.418  11.560   0.577  0.00  0.00    +0.220 C 
ATOM     14  C   UNL     1      25.231  10.598   0.759  0.00  0.00    +0.076 C 
ATOM     15  C   UNL     1      23.943  11.435   0.697  0.00  0.00    +0.177 C 
ATOM     16  O   UNL     1      22.814  10.597   0.900  0.00  0.00    -0.221 OA
ATOM     17  C   UNL     1      23.855  12.184  -0.669  0.00  0.00    +0.155 C 
BRANCH  17  18
ATOM     18  N   UNL     1      22.628  12.976  -0.735  0.00  0.00    -0.202 NA
ATOM     19  C   UNL     1      21.550  12.839  -1.548  0.00  0.00    +0.242 C 
ATOM     20  C   UNL     1      20.297  13.604  -1.209  0.00  0.00    +0.096 C 
ATOM     21  O   UNL     1      21.619  12.102  -2.530  0.00  0.00    -0.273 OA
ENDBRANCH  17  18
BRANCH  13  22
ATOM     22  C   UNL     1      26.693  12.430   1.921  0.00  0.00    +0.391 C 
ATOM     23  O   UNL     1      26.310  11.631   2.936  0.00  0.00    -0.243 OA
ATOM     24  O   UNL     1      27.459  13.461   1.544  0.00  0.00    -0.243 OA
ENDBRANCH  13  22
ENDBRANCH   9  11
ENDBRANCH   7   9
ENDBRANCH   6   7
ENDBRANCH   3   6
ENDBRANCH   1   2
BRANCH   1  25
ATOM     25  C   UNL     1      28.984  15.746  -0.339  0.00  0.00    +0.240 C 
BRANCH  25  26
ATOM     26  C   UNL     1      30.282  16.461   0.081  0.00  0.00    +0.100 C 
BRANCH  26  28
ATOM     27  N   UNL     1      31.980  14.678  -0.216  0.00  0.00    -0.134 NA
ATOM     28  C   UNL     1      31.260  15.491   0.610  0.00  0.00    +0.086 A 
ATOM     29  C   UNL     1      31.612  15.231   1.913  0.00  0.00    +0.139 A 
ATOM     30  N   UNL     1      32.557  14.235   1.836  0.00  0.00    -0.220 N 
ATOM     31  N   UNL     1      32.769  13.918   0.536  0.00  0.00    -0.061 NA
BRANCH  30  32
ATOM     32  C   UNL     1      33.248  13.594   2.891  0.00  0.00    +0.071 A 
ATOM     33  C   UNL     1      32.627  13.399   4.120  0.00  0.00    +0.063 A 
ATOM     34  CA  UNL     1      33.356  12.766   5.108  0.00  0.00    +0.150 A 
ATOM     35  N   UNL     1      34.639  12.327   4.970  0.00  0.00    -0.240 NA
ATOM     36  C   UNL     1      35.244  12.533   3.768  0.00  0.00    +0.074 A 
ATOM     37  C   UNL     1      34.568  13.151   2.711  0.00  0.00    +0.056 A 
BRANCH  36  38
ATOM     38  C   UNL     1      36.654  12.086   3.676  0.00  0.00    +0.000 A 
ATOM     39  C   UNL     1      37.132  10.967   4.386  0.00  0.00    +0.010 A 
ATOM     40  C   UNL     1      38.457  10.532   4.264  0.00  0.00    +0.001 A 
ATOM     41  C   UNL     1      39.339  11.206   3.426  0.00  0.00    +0.000 A 
ATOM     42  C   UNL     1      38.899  12.318   2.718  0.00  0.00    +0.001 A 
ATOM     43  C   UNL     1      37.574  12.752   2.844  0.00  0.00    +0.010 A 
ENDBRANCH  36  38
BRANCH  34  44
ATOM     44  C   UNL     1      32.730  12.536   6.443  0.00  0.00    +0.355 C 
ATOM     45  OXT UNL     1      31.641  12.018   6.615  0.00  0.00    -0.243 OA
BRANCH  44  46
ATOM     46  O   UNL     1      33.537  12.984   7.433  0.00  0.00    -0.476 OA
ATOM     47  H   UNL     1      33.485  13.967   7.468  0.00  0.00    +0.295 HD
ENDBRANCH  44  46
ENDBRANCH  34  44
ENDBRANCH  30  32
ENDBRANCH  26  28
ENDBRANCH  25  26
ENDBRANCH   1  25
TORSDOF 14
