REMARK VINA RESULT:    -7.345      1.969      3.484
REMARK INTER + INTRA:         -14.417
REMARK INTER:                 -12.423
REMARK INTRA:                  -1.995
REMARK UNBOUND:                -1.919
REMARK  Name = lig_assembled_41.pdb
REMARK  13 active torsions:
REMARK  status: ('A' for Active; 'I' for Inactive)
REMARK    1  A    between atoms: _2  and  _8
REMARK    2  A    between atoms: _5  and  _6
REMARK    3  A    between atoms: _5  and  _16
REMARK    4  A    between atoms: _9  and  _10
REMARK    5  A    between atoms: _10  and  _11
REMARK    6  A    between atoms: _16  and  _18
REMARK    7  A    between atoms: _17  and  _22
REMARK    8  A    between atoms: _18  and  _21
REMARK    9  A    between atoms: _26  and  _36
REMARK   10  A    between atoms: _28  and  _29
REMARK   11  A    between atoms: _30  and  _32
REMARK   12  A    between atoms: _32  and  _34
REMARK   13  A    between atoms: _34  and  _36
REMARK                            x       y       z     vdW  Elec       q    Type
REMARK                         _______ _______ _______ _____ _____    ______ ____
ROOT
ATOM      1  C   UNL     1      27.886  17.422  -0.818  0.00  0.00    +0.400 C 
ATOM      2  N   UNL     1      28.571  16.459  -0.115  0.00  0.00    -0.278 N 
ATOM      3  H   UNL     1      28.797  16.942   0.811  0.00  0.00    +0.152 HD
ATOM      4  O   UNL     1      27.551  18.444  -0.225  0.00  0.00    -0.226 OA
ENDROOT
BRANCH   2   5
ATOM      5  C   UNL     1      29.103  15.100  -0.062  0.00  0.00    +0.152 C 
BRANCH   5   6
ATOM      6  C   UNL     1      30.633  14.974   0.086  0.00  0.00    +0.193 C 
ATOM      7  O   UNL     1      30.987  15.642   1.318  0.00  0.00    -0.219 OA
BRANCH   6   8
ATOM      8  C   UNL     1      31.223  13.555   0.234  0.00  0.00    +0.212 C 
ATOM      9  O   UNL     1      32.170  13.293  -0.814  0.00  0.00    -0.218 OA
BRANCH   8  10
ATOM     10  C   UNL     1      31.930  13.314   1.623  0.00  0.00    +0.171 C 
ATOM     11  O   UNL     1      33.266  12.842   1.483  0.00  0.00    -0.343 OA
ATOM     12  C   UNL     1      34.032  12.321   2.529  0.00  0.00    +0.220 C 
ATOM     13  C   UNL     1      33.271  11.231   3.304  0.00  0.00    +0.076 C 
ATOM     14  C   UNL     1      31.917  11.824   3.726  0.00  0.00    +0.177 C 
ATOM     15  O   UNL     1      31.188  10.868   4.484  0.00  0.00    -0.221 OA
ATOM     16  C   UNL     1      31.115  12.281   2.468  0.00  0.00    +0.155 C 
BRANCH  16  17
ATOM     17  N   UNL     1      29.824  12.839   2.865  0.00  0.00    -0.202 NA
ATOM     18  C   UNL     1      28.569  12.413   2.573  0.00  0.00    +0.242 C 
ATOM     19  C   UNL     1      27.417  12.996   3.351  0.00  0.00    +0.096 C 
ATOM     20  O   UNL     1      28.402  11.572   1.692  0.00  0.00    -0.273 OA
ENDBRANCH  16  17
BRANCH  12  21
ATOM     21  C   UNL     1      34.626  13.458   3.525  0.00  0.00    +0.391 C 
ATOM     22  O   UNL     1      34.955  12.797   4.651  0.00  0.00    -0.243 OA
ATOM     23  O   UNL     1      34.843  14.539   2.764  0.00  0.00    -0.243 OA
ENDBRANCH  12  21
ENDBRANCH   8  10
ENDBRANCH   6   8
ENDBRANCH   5   6
ENDBRANCH   2   5
BRANCH   1  24
ATOM     24  O   UNL     1      27.686  17.165  -2.069  0.00  0.00    -0.450 OA
BRANCH  24  25
ATOM     25  C   UNL     1      26.742  17.441  -3.078  0.00  0.00    +0.240 C 
BRANCH  25  26
ATOM     26  C   UNL     1      26.525  16.367  -4.161  0.00  0.00    +0.100 C 
BRANCH  26  28
ATOM     27  N   UNL     1      24.901  14.576  -4.648  0.00  0.00    -0.134 NA
ATOM     28  C   UNL     1      25.467  15.428  -3.748  0.00  0.00    +0.086 A 
ATOM     29  C   UNL     1      24.904  15.213  -2.509  0.00  0.00    +0.139 A 
ATOM     30  N   UNL     1      23.910  14.286  -2.723  0.00  0.00    -0.219 N 
ATOM     31  N   UNL     1      23.995  13.849  -4.011  0.00  0.00    -0.061 NA
BRANCH  30  32
ATOM     32  C   UNL     1      22.974  13.700  -1.823  0.00  0.00    +0.077 A 
ATOM     33  C   UNL     1      23.245  12.595  -0.988  0.00  0.00    +0.043 A 
ATOM     34  C   UNL     1      22.207  12.085  -0.180  0.00  0.00    +0.013 A 
ATOM     35  C   UNL     1      20.928  12.645  -0.201  0.00  0.00    +0.001 A 
ATOM     36  C   UNL     1      20.668  13.746  -1.003  0.00  0.00    +0.002 A 
ATOM     37  C   UNL     1      21.684  14.276  -1.797  0.00  0.00    +0.028 A 
BRANCH  33  38
ATOM     38  C   UNL     1      24.616  12.054  -0.740  0.00  0.00    +0.162 C 
ATOM     39  O   UNL     1      25.265  12.474   0.216  0.00  0.00    -0.292 OA
ATOM     40  C   UNL     1      25.195  11.002  -1.654  0.00  0.00    +0.091 C 
ENDBRANCH  33  38
ENDBRANCH  30  32
ENDBRANCH  26  28
ENDBRANCH  25  26
ENDBRANCH  24  25
ENDBRANCH   1  24
TORSDOF 12
