REMARK VINA RESULT:    -6.655      2.756     10.252
REMARK INTER + INTRA:         -14.516
REMARK INTER:                 -13.589
REMARK INTRA:                  -0.928
REMARK UNBOUND:                -2.025
REMARK  Name = lig_assembled_10.pdb
REMARK  16 active torsions:
REMARK  status: ('A' for Active; 'I' for Inactive)
REMARK    1  A    between atoms: _2  and  _8
REMARK    2  A    between atoms: _4  and  _8
REMARK    3  A    between atoms: _4  and  _11
REMARK    4  A    between atoms: _5  and  _6
REMARK    5  A    between atoms: _5  and  _15
REMARK    6  A    between atoms: _8  and  _9
REMARK    7  A    between atoms: _9  and  _10
REMARK    8  A    between atoms: _10  and  _13
REMARK    9  A    between atoms: _15  and  _17
REMARK   10  A    between atoms: _16  and  _21
REMARK   11  A    between atoms: _17  and  _20
REMARK   12  A    between atoms: _25  and  _35
REMARK   13  A    between atoms: _27  and  _28
REMARK   14  A    between atoms: _29  and  _31
REMARK   15  A    between atoms: _31  and  _33
REMARK   16  A    between atoms: _33  and  _35
REMARK                            x       y       z     vdW  Elec       q    Type
REMARK                         _______ _______ _______ _____ _____    ______ ____
ROOT
ATOM      1  C   UNL     1      25.748  15.683  -4.814  0.00  0.00    +0.400 C 
ATOM      2  N   UNL     1      24.494  15.122  -4.758  0.00  0.00    -0.278 N 
ATOM      3  H   UNL     1      24.421  14.587  -5.681  0.00  0.00    +0.152 HD
ATOM      4  O   UNL     1      26.501  15.331  -5.718  0.00  0.00    -0.226 OA
ENDROOT
BRANCH   2   5
ATOM      5  C   UNL     1      23.252  14.921  -4.016  0.00  0.00    +0.152 C 
BRANCH   5   6
ATOM      6  C   UNL     1      23.307  13.894  -2.866  0.00  0.00    +0.193 C 
ATOM      7  O   UNL     1      24.632  13.978  -2.297  0.00  0.00    -0.219 OA
BRANCH   6   8
ATOM      8  C   UNL     1      22.359  14.113  -1.666  0.00  0.00    +0.212 C 
ATOM      9  O   UNL     1      21.156  14.776  -2.091  0.00  0.00    -0.218 OA
BRANCH   8  10
ATOM     10  C   UNL     1      21.964  12.776  -0.930  0.00  0.00    +0.171 C 
ATOM     11  O   UNL     1      22.974  12.326  -0.033  0.00  0.00    -0.343 OA
ATOM     12  C   UNL     1      22.995  11.061   0.559  0.00  0.00    +0.220 C 
ATOM     13  C   UNL     1      22.816   9.942  -0.481  0.00  0.00    +0.076 C 
ATOM     14  C   UNL     1      21.545  10.258  -1.286  0.00  0.00    +0.177 C 
ATOM     15  O   UNL     1      21.309   9.230  -2.238  0.00  0.00    -0.221 OA
ATOM     16  C   UNL     1      21.679  11.650  -1.977  0.00  0.00    +0.155 C 
BRANCH  16  17
ATOM     17  N   UNL     1      20.476  11.952  -2.749  0.00  0.00    -0.202 NA
ATOM     18  C   UNL     1      20.289  11.967  -4.094  0.00  0.00    +0.242 C 
ATOM     19  C   UNL     1      18.878  12.021  -4.619  0.00  0.00    +0.096 C 
ATOM     20  O   UNL     1      21.263  11.935  -4.843  0.00  0.00    -0.273 OA
ENDBRANCH  16  17
BRANCH  12  21
ATOM     21  C   UNL     1      21.948  10.906   1.791  0.00  0.00    +0.391 C 
ATOM     22  O   UNL     1      21.282  12.076   1.831  0.00  0.00    -0.243 OA
ATOM     23  O   UNL     1      21.928   9.602   2.097  0.00  0.00    -0.243 OA
ENDBRANCH  12  21
ENDBRANCH   8  10
ENDBRANCH   6   8
ENDBRANCH   5   6
ENDBRANCH   2   5
BRANCH   1  24
ATOM     24  O   UNL     1      26.005  16.568  -3.907  0.00  0.00    -0.450 OA
BRANCH  24  25
ATOM     25  C   UNL     1      27.100  17.304  -3.414  0.00  0.00    +0.240 C 
BRANCH  25  26
ATOM     26  C   UNL     1      27.103  17.654  -1.913  0.00  0.00    +0.100 C 
BRANCH  26  28
ATOM     27  N   UNL     1      29.352  17.716  -0.878  0.00  0.00    -0.134 NA
ATOM     28  C   UNL     1      28.242  17.003  -1.240  0.00  0.00    +0.086 A 
ATOM     29  C   UNL     1      28.409  15.689  -0.866  0.00  0.00    +0.134 A 
ATOM     30  N   UNL     1      29.619  15.671  -0.243  0.00  0.00    -0.237 N 
ATOM     31  N   UNL     1      30.194  16.890  -0.276  0.00  0.00    -0.065 NA
BRANCH  30  32
ATOM     32  C   UNL     1      30.337  14.590   0.413  0.00  0.00    +0.227 C 
BRANCH  32  33
ATOM     33  C   UNL     1      30.983  14.971   1.727  0.00  0.00    +0.330 C 
ATOM     34  O   UNL     1      31.237  14.135   2.587  0.00  0.00    -0.249 OA
BRANCH  33  35
ATOM     35  O   UNL     1      31.316  16.267   1.904  0.00  0.00    -0.479 OA
ATOM     36  H   UNL     1      31.225  16.629   2.823  0.00  0.00    +0.295 HD
ENDBRANCH  33  35
ENDBRANCH  32  33
BRANCH  32  37
ATOM     37  C   UNL     1      31.295  13.820  -0.506  0.00  0.00    +0.158 C 
BRANCH  37  38
ATOM     38  C   UNL     1      32.682  14.397  -0.488  0.00  0.00    +0.307 C 
ATOM     39  O   UNL     1      33.679  13.759  -0.175  0.00  0.00    -0.251 OA
BRANCH  38  40
ATOM     40  O   UNL     1      32.745  15.667  -0.928  0.00  0.00    -0.481 OA
ATOM     41  H   UNL     1      32.368  15.820  -1.818  0.00  0.00    +0.295 HD
ENDBRANCH  38  40
ENDBRANCH  37  38
ENDBRANCH  32  37
ENDBRANCH  30  32
ENDBRANCH  26  28
ENDBRANCH  25  26
ENDBRANCH  24  25
ENDBRANCH   1  24
TORSDOF 16
