REMARK VINA RESULT:    -6.055      3.263      8.809
REMARK INTER + INTRA:         -13.555
REMARK INTER:                 -11.016
REMARK INTRA:                  -2.539
REMARK UNBOUND:                -1.837
REMARK  Name = lig_assembled_45.pdb
REMARK  19 active torsions:
REMARK  status: ('A' for Active; 'I' for Inactive)
REMARK    1  A    between atoms: _2  and  _9
REMARK    2  A    between atoms: _3  and  _11
REMARK    3  A    between atoms: _3  and  _12
REMARK    4  A    between atoms: _3  and  _13
REMARK    5  A    between atoms: _3  and  _15
REMARK    6  A    between atoms: _5  and  _15
REMARK    7  A    between atoms: _6  and  _7
REMARK    8  A    between atoms: _6  and  _16
REMARK    9  A    between atoms: _9  and  _10
REMARK   10  A    between atoms: _10  and  _11
REMARK   11  A    between atoms: _13  and  _14
REMARK   12  A    between atoms: _16  and  _18
REMARK   13  A    between atoms: _17  and  _22
REMARK   14  A    between atoms: _18  and  _21
REMARK   15  A    between atoms: _26  and  _36
REMARK   16  A    between atoms: _28  and  _29
REMARK   17  A    between atoms: _30  and  _32
REMARK   18  A    between atoms: _32  and  _34
REMARK   19  A    between atoms: _34  and  _36
REMARK                            x       y       z     vdW  Elec       q    Type
REMARK                         _______ _______ _______ _____ _____    ______ ____
ROOT
ATOM      1  C   UNL     1      25.067  15.595  -3.307  0.00  0.00    +0.400 C 
ATOM      2  N   UNL     1      25.523  14.364  -2.898  0.00  0.00    -0.278 N 
ATOM      3  H   UNL     1      24.715  13.983  -2.312  0.00  0.00    +0.152 HD
ATOM      4  O   UNL     1      23.889  15.876  -3.097  0.00  0.00    -0.226 OA
ENDROOT
BRANCH   2   5
ATOM      5  C   UNL     1      26.585  13.362  -2.917  0.00  0.00    +0.152 C 
BRANCH   5   6
ATOM      6  C   UNL     1      26.172  11.927  -2.529  0.00  0.00    +0.193 C 
ATOM      7  O   UNL     1      27.391  11.157  -2.432  0.00  0.00    -0.219 OA
BRANCH   6   8
ATOM      8  C   UNL     1      25.480  11.727  -1.162  0.00  0.00    +0.212 C 
ATOM      9  O   UNL     1      25.803  12.809  -0.273  0.00  0.00    -0.218 OA
BRANCH   8  10
ATOM     10  C   UNL     1      23.912  11.613  -1.268  0.00  0.00    +0.171 C 
ATOM     11  O   UNL     1      23.343  12.627  -2.090  0.00  0.00    -0.343 OA
ATOM     12  C   UNL     1      21.976  12.909  -2.162  0.00  0.00    +0.220 C 
ATOM     13  C   UNL     1      21.358  13.092  -0.765  0.00  0.00    +0.076 C 
ATOM     14  C   UNL     1      21.720  11.851   0.068  0.00  0.00    +0.177 C 
ATOM     15  O   UNL     1      21.137  11.951   1.360  0.00  0.00    -0.221 OA
ATOM     16  C   UNL     1      23.270  11.696   0.156  0.00  0.00    +0.155 C 
BRANCH  16  17
ATOM     17  N   UNL     1      23.618  10.522   0.952  0.00  0.00    -0.202 NA
ATOM     18  C   UNL     1      24.110  10.445   2.215  0.00  0.00    +0.242 C 
ATOM     19  C   UNL     1      24.102   9.106   2.905  0.00  0.00    +0.096 C 
ATOM     20  O   UNL     1      24.543  11.458   2.762  0.00  0.00    -0.273 OA
ENDBRANCH  16  17
BRANCH  12  21
ATOM     21  C   UNL     1      21.140  11.835  -3.049  0.00  0.00    +0.391 C 
ATOM     22  O   UNL     1      19.849  12.186  -2.892  0.00  0.00    -0.243 OA
ATOM     23  O   UNL     1      22.039  11.215  -3.823  0.00  0.00    -0.243 OA
ENDBRANCH  12  21
ENDBRANCH   8  10
ENDBRANCH   6   8
ENDBRANCH   5   6
ENDBRANCH   2   5
BRANCH   1  24
ATOM     24  O   UNL     1      25.948  16.364  -3.857  0.00  0.00    -0.450 OA
BRANCH  24  25
ATOM     25  C   UNL     1      27.109  17.081  -3.506  0.00  0.00    +0.240 C 
BRANCH  25  26
ATOM     26  C   UNL     1      27.157  17.712  -2.101  0.00  0.00    +0.100 C 
BRANCH  26  28
ATOM     27  N   UNL     1      29.354  17.757  -0.953  0.00  0.00    -0.134 NA
ATOM     28  C   UNL     1      28.215  17.079  -1.293  0.00  0.00    +0.086 A 
ATOM     29  C   UNL     1      28.275  15.807  -0.768  0.00  0.00    +0.133 A 
ATOM     30  N   UNL     1      29.474  15.788  -0.124  0.00  0.00    -0.251 N 
ATOM     31  N   UNL     1      30.125  16.948  -0.238  0.00  0.00    -0.065 NA
BRANCH  30  32
ATOM     32  C   UNL     1      30.065  14.679   0.596  0.00  0.00    +0.150 C 
BRANCH  32  33
ATOM     33  C   UNL     1      31.526  14.917   0.957  0.00  0.00    +0.074 C 
BRANCH  33  34
ATOM     34  C   UNL     1      32.520  13.808   0.590  0.00  0.00    +0.134 C 
BRANCH  34  35
ATOM     35  N   UNL     1      33.433  13.236   1.724  0.00  0.00    +0.241 N 
ATOM     36  C   UNL     1      34.893  13.614   1.421  0.00  0.00    +0.192 C 
BRANCH  35  37
ATOM     37  C   UNL     1      33.297  11.678   1.644  0.00  0.00    +0.129 C 
ATOM     38  C   UNL     1      32.325  11.195   0.574  0.00  0.00    +0.060 C 
ENDBRANCH  35  37
BRANCH  35  39
ATOM     39  C   UNL     1      33.077  13.715   3.144  0.00  0.00    +0.129 C 
ATOM     40  C   UNL     1      34.094  14.667   3.754  0.00  0.00    +0.060 C 
ENDBRANCH  35  39
ENDBRANCH  34  35
ENDBRANCH  33  34
ENDBRANCH  32  33
ENDBRANCH  30  32
ENDBRANCH  26  28
ENDBRANCH  25  26
ENDBRANCH  24  25
ENDBRANCH   1  24
TORSDOF 16
