REMARK VINA RESULT:    -5.862     21.639     25.176
REMARK INTER + INTRA:         -12.511
REMARK INTER:                 -10.370
REMARK INTRA:                  -2.142
REMARK UNBOUND:                -2.194
REMARK  Name = lig_assembled_14.pdb
REMARK  13 active torsions:
REMARK  status: ('A' for Active; 'I' for Inactive)
REMARK    1  A    between atoms: _2  and  _9
REMARK    2  A    between atoms: _3  and  _10
REMARK    3  A    between atoms: _6  and  _7
REMARK    4  A    between atoms: _6  and  _14
REMARK    5  A    between atoms: _9  and  _10
REMARK    6  A    between atoms: _14  and  _16
REMARK    7  A    between atoms: _15  and  _20
REMARK    8  A    between atoms: _16  and  _19
REMARK    9  A    between atoms: _24  and  _34
REMARK   10  A    between atoms: _26  and  _27
REMARK   11  A    between atoms: _28  and  _30
REMARK   12  A    between atoms: _30  and  _32
REMARK   13  A    between atoms: _32  and  _34
REMARK                            x       y       z     vdW  Elec       q    Type
REMARK                         _______ _______ _______ _____ _____    ______ ____
ROOT
ATOM      1  C   UNL     1      44.810  26.598  11.058  0.00  0.00    +0.400 C 
ATOM      2  N   UNL     1      45.484  25.910  10.077  0.00  0.00    -0.278 N 
ATOM      3  H   UNL     1      44.773  25.854   9.281  0.00  0.00    +0.152 HD
ATOM      4  O   UNL     1      43.731  27.110  10.770  0.00  0.00    -0.226 OA
ENDROOT
BRANCH   2   5
ATOM      5  C   UNL     1      46.712  25.251   9.639  0.00  0.00    +0.152 C 
BRANCH   5   6
ATOM      6  C   UNL     1      47.099  23.964  10.398  0.00  0.00    +0.193 C 
ATOM      7  O   UNL     1      47.879  24.376  11.542  0.00  0.00    -0.219 OA
BRANCH   6   8
ATOM      8  C   UNL     1      45.956  23.115  10.996  0.00  0.00    +0.212 C 
ATOM      9  O   UNL     1      44.771  23.233  10.193  0.00  0.00    -0.218 OA
BRANCH   8  10
ATOM     10  C   UNL     1      46.321  21.588  11.136  0.00  0.00    +0.171 C 
ATOM     11  O   UNL     1      45.550  20.760  10.271  0.00  0.00    -0.343 OA
ATOM     12  C   UNL     1      45.492  19.367  10.359  0.00  0.00    +0.220 C 
ATOM     13  C   UNL     1      45.180  18.898  11.791  0.00  0.00    +0.076 C 
ATOM     14  C   UNL     1      46.202  19.564  12.728  0.00  0.00    +0.177 C 
ATOM     15  O   UNL     1      45.983  19.132  14.064  0.00  0.00    -0.221 OA
ATOM     16  C   UNL     1      46.106  21.117  12.612  0.00  0.00    +0.155 C 
BRANCH  16  17
ATOM     17  N   UNL     1      47.069  21.754  13.506  0.00  0.00    -0.202 NA
ATOM     18  C   UNL     1      46.873  22.691  14.467  0.00  0.00    +0.242 C 
ATOM     19  C   UNL     1      47.990  22.960  15.443  0.00  0.00    +0.096 C 
ATOM     20  O   UNL     1      45.802  23.292  14.521  0.00  0.00    -0.273 OA
ENDBRANCH  16  17
BRANCH  12  21
ATOM     21  C   UNL     1      46.808  18.625   9.761  0.00  0.00    +0.391 C 
ATOM     22  O   UNL     1      47.454  19.576   9.059  0.00  0.00    -0.243 OA
ATOM     23  O   UNL     1      46.912  17.466  10.424  0.00  0.00    -0.243 OA
ENDBRANCH  12  21
ENDBRANCH   8  10
ENDBRANCH   6   8
ENDBRANCH   5   6
ENDBRANCH   2   5
BRANCH   1  24
ATOM     24  O   UNL     1      45.375  26.613  12.220  0.00  0.00    -0.450 OA
BRANCH  24  25
ATOM     25  C   UNL     1      46.349  27.347  12.926  0.00  0.00    +0.240 C 
BRANCH  25  26
ATOM     26  C   UNL     1      47.048  26.648  14.108  0.00  0.00    +0.100 C 
BRANCH  26  28
ATOM     27  N   UNL     1      45.322  27.832  15.428  0.00  0.00    -0.134 NA
ATOM     28  C   UNL     1      46.291  26.867  15.355  0.00  0.00    +0.086 A 
ATOM     29  C   UNL     1      46.388  26.232  16.573  0.00  0.00    +0.133 A 
ATOM     30  N   UNL     1      45.466  26.867  17.346  0.00  0.00    -0.250 N 
ATOM     31  N   UNL     1      44.819  27.821  16.654  0.00  0.00    -0.065 NA
BRANCH  30  32
ATOM     32  C   UNL     1      45.181  26.664  18.749  0.00  0.00    +0.160 C 
BRANCH  32  33
ATOM     33  C   UNL     1      43.842  25.948  18.964  0.00  0.00    +0.107 C 
BRANCH  33  34
ATOM     34  N   UNL     1      43.989  24.633  19.611  0.00  0.00    -0.301 NA
ATOM     35  C   UNL     1      44.726  23.667  18.790  0.00  0.00    +0.084 C 
ATOM     36  C   UNL     1      45.095  22.596  19.796  0.00  0.00    +0.017 C 
ATOM     37  C   UNL     1      45.418  23.378  21.055  0.00  0.00    +0.017 C 
ATOM     38  C   UNL     1      44.727  24.728  20.878  0.00  0.00    +0.084 C 
ENDBRANCH  33  34
ENDBRANCH  32  33
ENDBRANCH  30  32
ENDBRANCH  26  28
ENDBRANCH  25  26
ENDBRANCH  24  25
ENDBRANCH   1  24
TORSDOF 13
