REMARK VINA RESULT:    -6.314      2.995      8.971
REMARK INTER + INTRA:         -11.919
REMARK INTER:                  -9.833
REMARK INTRA:                  -2.086
REMARK UNBOUND:                -1.545
REMARK  Name = lig_assembled_48.pdb
REMARK  11 active torsions:
REMARK  status: ('A' for Active; 'I' for Inactive)
REMARK    1  A    between atoms: _2  and  _8
REMARK    2  A    between atoms: _5  and  _6
REMARK    3  A    between atoms: _5  and  _13
REMARK    4  A    between atoms: _13  and  _15
REMARK    5  A    between atoms: _14  and  _19
REMARK    6  A    between atoms: _15  and  _18
REMARK    7  A    between atoms: _23  and  _33
REMARK    8  A    between atoms: _25  and  _26
REMARK    9  A    between atoms: _27  and  _29
REMARK   10  A    between atoms: _29  and  _31
REMARK   11  A    between atoms: _31  and  _33
REMARK                            x       y       z     vdW  Elec       q    Type
REMARK                         _______ _______ _______ _____ _____    ______ ____
ROOT
ATOM      1  C   UNL     1      28.093  14.049  -0.398  0.00  0.00    +0.152 C 
ENDROOT
BRANCH   1   3
ATOM      2  C   UNL     1      28.783  16.688  -0.340  0.00  0.00    +0.400 C 
ATOM      3  N   UNL     1      28.094  15.502  -0.247  0.00  0.00    -0.278 N 
ATOM      4  H   UNL     1      27.120  15.805   0.070  0.00  0.00    +0.152 HD
ATOM      5  O   UNL     1      28.149  17.736  -0.239  0.00  0.00    -0.226 OA
BRANCH   2   6
ATOM      6  O   UNL     1      30.062  16.583  -0.496  0.00  0.00    -0.450 OA
BRANCH   6   7
ATOM      7  C   UNL     1      31.183  16.074   0.187  0.00  0.00    +0.240 C 
BRANCH   7   8
ATOM      8  C   UNL     1      32.111  15.116  -0.585  0.00  0.00    +0.100 C 
BRANCH   8  10
ATOM      9  N   UNL     1      33.663  13.518   0.484  0.00  0.00    -0.134 NA
ATOM     10  C   UNL     1      32.381  13.913   0.222  0.00  0.00    +0.086 A 
ATOM     11  C   UNL     1      31.508  13.043   0.838  0.00  0.00    +0.134 A 
ATOM     12  N   UNL     1      32.316  12.196   1.537  0.00  0.00    -0.248 N 
ATOM     13  N   UNL     1      33.613  12.443   1.257  0.00  0.00    -0.065 NA
BRANCH  12  14
ATOM     14  C   UNL     1      31.993  11.170   2.522  0.00  0.00    +0.109 C 
ATOM     15  C   UNL     1      32.938  11.251   3.735  0.00  0.00    +0.027 C 
ATOM     16  C   UNL     1      32.632  12.470   4.602  0.00  0.00    +0.002 C 
ATOM     17  C   UNL     1      31.200  12.422   5.121  0.00  0.00    +0.000 C 
ATOM     18  C   UNL     1      30.177  12.262   3.998  0.00  0.00    +0.002 C 
ATOM     19  C   UNL     1      30.531  11.145   3.010  0.00  0.00    +0.027 C 
ENDBRANCH  12  14
ENDBRANCH   8  10
ENDBRANCH   7   8
ENDBRANCH   6   7
ENDBRANCH   2   6
ENDBRANCH   1   3
BRANCH   1  20
ATOM     20  C   UNL     1      28.463  13.511  -1.796  0.00  0.00    +0.193 C 
ATOM     21  O   UNL     1      29.260  12.324  -1.586  0.00  0.00    -0.219 OA
BRANCH  20  22
ATOM     22  C   UNL     1      27.309  13.043  -2.710  0.00  0.00    +0.212 C 
ATOM     23  O   UNL     1      27.454  11.650  -3.029  0.00  0.00    -0.218 OA
BRANCH  22  24
ATOM     24  C   UNL     1      25.882  13.270  -2.080  0.00  0.00    +0.171 C 
ATOM     25  O   UNL     1      25.100  12.081  -2.053  0.00  0.00    -0.343 OA
ATOM     26  C   UNL     1      23.731  12.044  -1.779  0.00  0.00    +0.220 C 
ATOM     27  C   UNL     1      22.949  13.052  -2.639  0.00  0.00    +0.076 C 
ATOM     28  C   UNL     1      23.609  14.428  -2.454  0.00  0.00    +0.177 C 
ATOM     29  O   UNL     1      22.899  15.407  -3.199  0.00  0.00    -0.221 OA
ATOM     30  C   UNL     1      25.109  14.367  -2.883  0.00  0.00    +0.155 C 
BRANCH  30  31
ATOM     31  N   UNL     1      25.738  15.674  -2.715  0.00  0.00    -0.202 NA
ATOM     32  C   UNL     1      26.326  16.479  -3.636  0.00  0.00    +0.242 C 
ATOM     33  C   UNL     1      26.632  17.903  -3.251  0.00  0.00    +0.096 C 
ATOM     34  O   UNL     1      26.591  16.033  -4.751  0.00  0.00    -0.273 OA
ENDBRANCH  30  31
BRANCH  26  35
ATOM     35  C   UNL     1      23.383  12.209  -0.201  0.00  0.00    +0.391 C 
ATOM     36  O   UNL     1      22.053  12.421  -0.158  0.00  0.00    -0.243 OA
ATOM     37  O   UNL     1      24.464  11.782   0.463  0.00  0.00    -0.243 OA
ENDBRANCH  26  35
ENDBRANCH  22  24
ENDBRANCH  20  22
ENDBRANCH   1  20
TORSDOF 11
