REMARK VINA RESULT:    -6.992      2.359      4.050
REMARK INTER + INTRA:         -12.987
REMARK INTER:                 -10.961
REMARK INTRA:                  -2.027
REMARK UNBOUND:                -1.499
REMARK  Name = lig_assembled_15.pdb
REMARK  11 active torsions:
REMARK  status: ('A' for Active; 'I' for Inactive)
REMARK    1  A    between atoms: _2  and  _8
REMARK    2  A    between atoms: _5  and  _6
REMARK    3  A    between atoms: _5  and  _13
REMARK    4  A    between atoms: _13  and  _15
REMARK    5  A    between atoms: _14  and  _19
REMARK    6  A    between atoms: _15  and  _18
REMARK    7  A    between atoms: _23  and  _33
REMARK    8  A    between atoms: _25  and  _26
REMARK    9  A    between atoms: _27  and  _29
REMARK   10  A    between atoms: _29  and  _31
REMARK   11  A    between atoms: _31  and  _33
REMARK                            x       y       z     vdW  Elec       q    Type
REMARK                         _______ _______ _______ _____ _____    ______ ____
ROOT
ATOM      1  C   UNL     1      26.293  16.535  -3.468  0.00  0.00    +0.400 C 
ATOM      2  N   UNL     1      27.231  17.287  -2.800  0.00  0.00    -0.278 N 
ATOM      3  H   UNL     1      27.867  17.641  -3.583  0.00  0.00    +0.152 HD
ATOM      4  O   UNL     1      26.277  16.586  -4.695  0.00  0.00    -0.226 OA
ENDROOT
BRANCH   1   5
ATOM      5  O   UNL     1      25.525  15.809  -2.723  0.00  0.00    -0.450 OA
BRANCH   5   6
ATOM      6  C   UNL     1      24.571  14.781  -2.855  0.00  0.00    +0.240 C 
BRANCH   6   7
ATOM      7  C   UNL     1      23.097  15.141  -2.593  0.00  0.00    +0.100 C 
BRANCH   7   9
ATOM      8  N   UNL     1      21.129  14.134  -1.481  0.00  0.00    -0.134 NA
ATOM      9  C   UNL     1      22.476  14.144  -1.701  0.00  0.00    +0.086 A 
ATOM     10  C   UNL     1      23.055  13.118  -0.989  0.00  0.00    +0.139 A 
ATOM     11  N   UNL     1      22.007  12.482  -0.364  0.00  0.00    -0.220 N 
ATOM     12  N   UNL     1      20.852  13.127  -0.664  0.00  0.00    -0.061 NA
BRANCH  11  13
ATOM     13  C   UNL     1      22.032  11.320   0.450  0.00  0.00    +0.067 A 
ATOM     14  C   UNL     1      22.040  11.421   1.849  0.00  0.00    +0.029 A 
ATOM     15  C   UNL     1      22.104  10.266   2.634  0.00  0.00    +0.017 A 
ATOM     16  C   UNL     1      22.158   9.013   2.026  0.00  0.00    +0.018 A 
ATOM     17 BR   UNL     1      22.275   7.458   3.094  0.00  0.00    -0.050 Br
ATOM     18  C   UNL     1      22.136   8.900   0.638  0.00  0.00    +0.017 A 
ATOM     19  C   UNL     1      22.071  10.051  -0.152  0.00  0.00    +0.029 A 
ENDBRANCH  11  13
ENDBRANCH   7   9
ENDBRANCH   6   7
ENDBRANCH   5   6
ENDBRANCH   1   5
BRANCH   2  20
ATOM     20  C   UNL     1      27.727  17.819  -1.534  0.00  0.00    +0.152 C 
BRANCH  20  21
ATOM     21  C   UNL     1      28.794  16.970  -0.812  0.00  0.00    +0.193 C 
ATOM     22  O   UNL     1      28.968  17.551   0.500  0.00  0.00    -0.219 OA
BRANCH  21  23
ATOM     23  C   UNL     1      28.461  15.488  -0.535  0.00  0.00    +0.212 C 
ATOM     24  O   UNL     1      28.550  14.719  -1.746  0.00  0.00    -0.218 OA
BRANCH  23  25
ATOM     25  C   UNL     1      29.396  14.829   0.550  0.00  0.00    +0.171 C 
ATOM     26  O   UNL     1      30.777  15.060   0.294  0.00  0.00    -0.343 OA
ATOM     27  C   UNL     1      31.821  14.398   0.946  0.00  0.00    +0.220 C 
ATOM     28  C   UNL     1      31.629  12.871   0.924  0.00  0.00    +0.076 C 
ATOM     29  C   UNL     1      30.227  12.573   1.479  0.00  0.00    +0.177 C 
ATOM     30  O   UNL     1      30.013  11.169   1.518  0.00  0.00    -0.221 OA
ATOM     31  C   UNL     1      29.143  13.287   0.613  0.00  0.00    +0.155 C 
BRANCH  31  32
ATOM     32  N   UNL     1      27.808  13.001   1.132  0.00  0.00    -0.202 NA
ATOM     33  C   UNL     1      26.790  12.303   0.569  0.00  0.00    +0.242 C 
ATOM     34  C   UNL     1      25.626  11.906   1.440  0.00  0.00    +0.096 C 
ATOM     35  O   UNL     1      26.839  12.012  -0.625  0.00  0.00    -0.273 OA
ENDBRANCH  31  32
BRANCH  27  36
ATOM     36  C   UNL     1      32.093  14.944   2.452  0.00  0.00    +0.391 C 
ATOM     37  O   UNL     1      32.978  14.077   2.981  0.00  0.00    -0.243 OA
ATOM     38  O   UNL     1      31.586  16.182   2.493  0.00  0.00    -0.243 OA
ENDBRANCH  27  36
ENDBRANCH  23  25
ENDBRANCH  21  23
ENDBRANCH  20  21
ENDBRANCH   2  20
TORSDOF 11
