REMARK VINA RESULT:    -6.387      1.774      3.527
REMARK INTER + INTRA:         -13.529
REMARK INTER:                 -11.995
REMARK INTRA:                  -1.534
REMARK UNBOUND:                -2.287
REMARK  Name = lig_assembled_67.pdb
REMARK  13 active torsions:
REMARK  status: ('A' for Active; 'I' for Inactive)
REMARK    1  A    between atoms: _2  and  _8
REMARK    2  A    between atoms: _5  and  _6
REMARK    3  A    between atoms: _5  and  _14
REMARK    4  A    between atoms: _8  and  _9
REMARK    5  A    between atoms: _9  and  _10
REMARK    6  A    between atoms: _14  and  _16
REMARK    7  A    between atoms: _15  and  _20
REMARK    8  A    between atoms: _16  and  _19
REMARK    9  A    between atoms: _24  and  _34
REMARK   10  A    between atoms: _26  and  _27
REMARK   11  A    between atoms: _28  and  _30
REMARK   12  A    between atoms: _30  and  _32
REMARK   13  A    between atoms: _32  and  _34
REMARK                            x       y       z     vdW  Elec       q    Type
REMARK                         _______ _______ _______ _____ _____    ______ ____
ROOT
ATOM      1  C   UNL     1      28.758  16.943  -0.479  0.00  0.00    +0.400 C 
ATOM      2  N   UNL     1      28.887  15.837   0.328  0.00  0.00    -0.278 N 
ATOM      3  H   UNL     1      29.606  16.144   1.056  0.00  0.00    +0.152 HD
ATOM      4  O   UNL     1      29.289  17.989  -0.115  0.00  0.00    -0.226 OA
ENDROOT
BRANCH   2   5
ATOM      5  C   UNL     1      28.480  14.468   0.636  0.00  0.00    +0.152 C 
BRANCH   5   6
ATOM      6  C   UNL     1      28.780  13.977   2.067  0.00  0.00    +0.193 C 
ATOM      7  O   UNL     1      27.578  13.335   2.546  0.00  0.00    -0.219 OA
BRANCH   6   8
ATOM      8  C   UNL     1      29.882  12.908   2.240  0.00  0.00    +0.212 C 
ATOM      9  O   UNL     1      29.475  11.666   1.645  0.00  0.00    -0.218 OA
BRANCH   8  10
ATOM     10  C   UNL     1      31.267  13.334   1.619  0.00  0.00    +0.171 C 
ATOM     11  O   UNL     1      31.317  13.143   0.209  0.00  0.00    -0.343 OA
ATOM     12  C   UNL     1      32.486  13.205  -0.554  0.00  0.00    +0.220 C 
ATOM     13  C   UNL     1      33.601  12.325   0.038  0.00  0.00    +0.076 C 
ATOM     14  C   UNL     1      33.769  12.722   1.514  0.00  0.00    +0.177 C 
ATOM     15  O   UNL     1      34.818  11.964   2.100  0.00  0.00    -0.221 OA
ATOM     16  C   UNL     1      32.426  12.519   2.282  0.00  0.00    +0.155 C 
BRANCH  16  17
ATOM     17  N   UNL     1      32.584  12.889   3.686  0.00  0.00    -0.202 NA
ATOM     18  C   UNL     1      32.508  12.117   4.800  0.00  0.00    +0.242 C 
ATOM     19  C   UNL     1      33.002  12.691   6.103  0.00  0.00    +0.096 C 
ATOM     20  O   UNL     1      32.043  10.982   4.722  0.00  0.00    -0.273 OA
ENDBRANCH  16  17
BRANCH  12  21
ATOM     21  C   UNL     1      33.002  14.721  -0.824  0.00  0.00    +0.391 C 
ATOM     22  O   UNL     1      34.271  14.584  -1.255  0.00  0.00    -0.243 OA
ATOM     23  O   UNL     1      31.908  15.492  -0.810  0.00  0.00    -0.243 OA
ENDBRANCH  12  21
ENDBRANCH   8  10
ENDBRANCH   6   8
ENDBRANCH   5   6
ENDBRANCH   2   5
BRANCH   1  24
ATOM     24  O   UNL     1      28.103  16.761  -1.578  0.00  0.00    -0.450 OA
BRANCH  24  25
ATOM     25  C   UNL     1      27.112  17.399  -2.349  0.00  0.00    +0.240 C 
BRANCH  25  26
ATOM     26  C   UNL     1      26.985  16.986  -3.828  0.00  0.00    +0.100 C 
BRANCH  26  28
ATOM     27  N   UNL     1      25.633  15.421  -5.186  0.00  0.00    -0.134 NA
ATOM     28  C   UNL     1      25.803  16.125  -4.023  0.00  0.00    +0.086 A 
ATOM     29  C   UNL     1      24.742  15.871  -3.184  0.00  0.00    +0.133 A 
ATOM     30  N   UNL     1      23.961  15.011  -3.894  0.00  0.00    -0.251 N 
ATOM     31  N   UNL     1      24.495  14.743  -5.097  0.00  0.00    -0.065 NA
BRANCH  30  32
ATOM     32  C   UNL     1      22.714  14.396  -3.496  0.00  0.00    +0.150 C 
BRANCH  32  33
ATOM     33  C   UNL     1      22.508  14.354  -1.984  0.00  0.00    +0.084 C 
BRANCH  33  34
ATOM     34  C   UNL     1      22.380  12.933  -1.454  0.00  0.00    +0.252 C 
ATOM     35  O   UNL     1      23.406  12.671  -0.490  0.00  0.00    -0.349 OA
ATOM     36  C   UNL     1      22.803  11.709   0.373  0.00  0.00    +0.191 C 
ATOM     37  C   UNL     1      21.362  12.148   0.430  0.00  0.00    +0.191 C 
ATOM     38  O   UNL     1      21.100  12.741  -0.843  0.00  0.00    -0.349 OA
ENDBRANCH  33  34
ENDBRANCH  32  33
ENDBRANCH  30  32
ENDBRANCH  26  28
ENDBRANCH  25  26
ENDBRANCH  24  25
ENDBRANCH   1  24
TORSDOF 13
