REMARK VINA RESULT:    -5.966      2.962      8.963
REMARK INTER + INTRA:         -13.165
REMARK INTER:                 -11.508
REMARK INTRA:                  -1.657
REMARK UNBOUND:                -1.966
REMARK  Name = lig_assembled_17.pdb
REMARK  17 active torsions:
REMARK  status: ('A' for Active; 'I' for Inactive)
REMARK    1  A    between atoms: _2  and  _9
REMARK    2  A    between atoms: _3  and  _10
REMARK    3  A    between atoms: _3  and  _11
REMARK    4  A    between atoms: _3  and  _13
REMARK    5  A    between atoms: _5  and  _13
REMARK    6  A    between atoms: _6  and  _7
REMARK    7  A    between atoms: _6  and  _14
REMARK    8  A    between atoms: _9  and  _10
REMARK    9  A    between atoms: _11  and  _12
REMARK   10  A    between atoms: _14  and  _16
REMARK   11  A    between atoms: _15  and  _20
REMARK   12  A    between atoms: _16  and  _19
REMARK   13  A    between atoms: _24  and  _34
REMARK   14  A    between atoms: _26  and  _27
REMARK   15  A    between atoms: _28  and  _30
REMARK   16  A    between atoms: _30  and  _32
REMARK   17  A    between atoms: _32  and  _34
REMARK                            x       y       z     vdW  Elec       q    Type
REMARK                         _______ _______ _______ _____ _____    ______ ____
ROOT
ATOM      1  C   UNL     1      27.387  17.666  -1.938  0.00  0.00    +0.400 C 
ATOM      2  N   UNL     1      26.312  17.251  -2.689  0.00  0.00    -0.278 N 
ATOM      3  H   UNL     1      25.665  18.102  -2.686  0.00  0.00    +0.152 HD
ATOM      4  O   UNL     1      27.453  18.853  -1.627  0.00  0.00    -0.226 OA
ENDROOT
BRANCH   2   5
ATOM      5  C   UNL     1      25.679  16.200  -3.481  0.00  0.00    +0.152 C 
BRANCH   5   6
ATOM      6  C   UNL     1      24.727  15.255  -2.719  0.00  0.00    +0.193 C 
ATOM      7  O   UNL     1      23.477  15.252  -3.445  0.00  0.00    -0.219 OA
BRANCH   6   8
ATOM      8  C   UNL     1      25.122  13.765  -2.625  0.00  0.00    +0.212 C 
ATOM      9  O   UNL     1      26.408  13.548  -3.228  0.00  0.00    -0.218 OA
BRANCH   8  10
ATOM     10  C   UNL     1      25.161  13.222  -1.145  0.00  0.00    +0.171 C 
ATOM     11  O   UNL     1      26.336  12.466  -0.871  0.00  0.00    -0.343 OA
ATOM     12  C   UNL     1      26.515  11.673   0.266  0.00  0.00    +0.220 C 
ATOM     13  C   UNL     1      25.329  10.719   0.489  0.00  0.00    +0.076 C 
ATOM     14  C   UNL     1      24.046  11.567   0.487  0.00  0.00    +0.177 C 
ATOM     15  O   UNL     1      22.919  10.737   0.730  0.00  0.00    -0.221 OA
ATOM     16  C   UNL     1      23.908  12.329  -0.868  0.00  0.00    +0.155 C 
BRANCH  16  17
ATOM     17  N   UNL     1      22.687  13.131  -0.877  0.00  0.00    -0.202 NA
ATOM     18  C   UNL     1      21.560  12.988  -1.620  0.00  0.00    +0.242 C 
ATOM     19  C   UNL     1      20.336  13.772  -1.222  0.00  0.00    +0.096 C 
ATOM     20  O   UNL     1      21.563  12.230  -2.588  0.00  0.00    -0.273 OA
ENDBRANCH  16  17
BRANCH  12  21
ATOM     21  C   UNL     1      26.853  12.530   1.605  0.00  0.00    +0.391 C 
ATOM     22  O   UNL     1      26.368  11.790   2.621  0.00  0.00    -0.243 OA
ATOM     23  O   UNL     1      27.730  13.470   1.231  0.00  0.00    -0.243 OA
ENDBRANCH  12  21
ENDBRANCH   8  10
ENDBRANCH   6   8
ENDBRANCH   5   6
ENDBRANCH   2   5
BRANCH   1  24
ATOM     24  O   UNL     1      28.224  16.741  -1.601  0.00  0.00    -0.450 OA
BRANCH  24  25
ATOM     25  C   UNL     1      28.845  16.232  -0.444  0.00  0.00    +0.240 C 
BRANCH  25  26
ATOM     26  C   UNL     1      30.226  16.802  -0.068  0.00  0.00    +0.100 C 
BRANCH  26  28
ATOM     27  N   UNL     1      32.019  15.212  -0.673  0.00  0.00    -0.134 NA
ATOM     28  C   UNL     1      31.154  15.708   0.267  0.00  0.00    +0.086 A 
ATOM     29  C   UNL     1      31.343  15.034   1.454  0.00  0.00    +0.133 A 
ATOM     30  N   UNL     1      32.347  14.159   1.174  0.00  0.00    -0.250 N 
ATOM     31  N   UNL     1      32.744  14.258  -0.106  0.00  0.00    -0.065 NA
BRANCH  30  32
ATOM     32  C   UNL     1      33.012  13.233   2.068  0.00  0.00    +0.160 C 
BRANCH  32  33
ATOM     33  C   UNL     1      32.679  13.560   3.531  0.00  0.00    +0.107 C 
BRANCH  33  34
ATOM     34  N   UNL     1      32.698  12.415   4.474  0.00  0.00    -0.301 NA
BRANCH  34  35
ATOM     35  C   UNL     1      31.337  12.227   5.020  0.00  0.00    +0.081 C 
ATOM     36  C   UNL     1      30.207  12.488   4.029  0.00  0.00    +0.020 C 
ENDBRANCH  34  35
BRANCH  34  37
ATOM     37  C   UNL     1      33.734  12.534   5.516  0.00  0.00    +0.081 C 
ATOM     38  C   UNL     1      34.608  11.306   5.750  0.00  0.00    +0.020 C 
ENDBRANCH  34  37
ENDBRANCH  33  34
ENDBRANCH  32  33
ENDBRANCH  30  32
ENDBRANCH  26  28
ENDBRANCH  25  26
ENDBRANCH  24  25
ENDBRANCH   1  24
TORSDOF 15
