REMARK VINA RESULT:    -7.073      2.059      3.475
REMARK INTER + INTRA:         -14.977
REMARK INTER:                 -12.908
REMARK INTRA:                  -2.070
REMARK UNBOUND:                -2.115
REMARK  Name = lig_assembled_26.pdb
REMARK  15 active torsions:
REMARK  status: ('A' for Active; 'I' for Inactive)
REMARK    1  A    between atoms: _2  and  _8
REMARK    2  A    between atoms: _5  and  _6
REMARK    3  A    between atoms: _5  and  _18
REMARK    4  A    between atoms: _8  and  _9
REMARK    5  A    between atoms: _8  and  _10
REMARK    6  A    between atoms: _10  and  _11
REMARK    7  A    between atoms: _11  and  _12
REMARK    8  A    between atoms: _18  and  _20
REMARK    9  A    between atoms: _19  and  _24
REMARK   10  A    between atoms: _20  and  _23
REMARK   11  A    between atoms: _28  and  _38
REMARK   12  A    between atoms: _30  and  _31
REMARK   13  A    between atoms: _32  and  _34
REMARK   14  A    between atoms: _34  and  _36
REMARK   15  A    between atoms: _36  and  _38
REMARK                            x       y       z     vdW  Elec       q    Type
REMARK                         _______ _______ _______ _____ _____    ______ ____
ROOT
ATOM      1  C   UNL     1      27.736  17.340  -1.118  0.00  0.00    +0.400 C 
ATOM      2  N   UNL     1      28.282  16.494  -0.181  0.00  0.00    -0.278 N 
ATOM      3  H   UNL     1      28.604  17.158   0.592  0.00  0.00    +0.152 HD
ATOM      4  O   UNL     1      27.578  18.519  -0.812  0.00  0.00    -0.226 OA
ENDROOT
BRANCH   2   5
ATOM      5  C   UNL     1      28.599  15.128   0.227  0.00  0.00    +0.152 C 
BRANCH   5   6
ATOM      6  C   UNL     1      29.467  14.310  -0.751  0.00  0.00    +0.193 C 
ATOM      7  O   UNL     1      30.744  14.980  -0.832  0.00  0.00    -0.219 OA
BRANCH   6   8
ATOM      8  C   UNL     1      29.816  12.859  -0.355  0.00  0.00    +0.212 C 
ATOM      9  O   UNL     1      30.908  12.370  -1.151  0.00  0.00    -0.218 OA
BRANCH   8  10
ATOM     10  C   UNL     1      30.194  12.701   1.168  0.00  0.00    +0.171 C 
ATOM     11  O   UNL     1      31.585  12.471   1.366  0.00  0.00    -0.343 OA
ATOM     12  C   UNL     1      32.151  12.058   2.575  0.00  0.00    +0.220 C 
ATOM     13  C   UNL     1      31.426  10.831   3.154  0.00  0.00    +0.076 C 
ATOM     14  C   UNL     1      29.928  11.168   3.223  0.00  0.00    +0.177 C 
ATOM     15  O   UNL     1      29.214  10.079   3.790  0.00  0.00    -0.221 OA
ATOM     16  C   UNL     1      29.390  11.519   1.801  0.00  0.00    +0.155 C 
BRANCH  16  17
ATOM     17  N   UNL     1      27.965  11.834   1.861  0.00  0.00    -0.202 NA
ATOM     18  C   UNL     1      26.913  11.212   1.269  0.00  0.00    +0.242 C 
ATOM     19  C   UNL     1      25.523  11.561   1.732  0.00  0.00    +0.096 C 
ATOM     20  O   UNL     1      27.117  10.389   0.379  0.00  0.00    -0.273 OA
ENDBRANCH  16  17
BRANCH  12  21
ATOM     21  C   UNL     1      32.276  13.250   3.671  0.00  0.00    +0.391 C 
ATOM     22  O   UNL     1      32.584  12.629   4.826  0.00  0.00    -0.243 OA
ATOM     23  O   UNL     1      32.327  14.391   2.973  0.00  0.00    -0.243 OA
ENDBRANCH  12  21
ENDBRANCH   8  10
ENDBRANCH   6   8
ENDBRANCH   5   6
ENDBRANCH   2   5
BRANCH   1  24
ATOM     24  O   UNL     1      27.464  16.806  -2.263  0.00  0.00    -0.450 OA
BRANCH  24  25
ATOM     25  C   UNL     1      26.723  17.092  -3.427  0.00  0.00    +0.240 C 
BRANCH  25  26
ATOM     26  C   UNL     1      26.628  15.989  -4.498  0.00  0.00    +0.100 C 
BRANCH  26  28
ATOM     27  N   UNL     1      24.783  14.755  -5.609  0.00  0.00    -0.134 NA
ATOM     28  C   UNL     1      25.280  15.394  -4.503  0.00  0.00    +0.086 A 
ATOM     29  C   UNL     1      24.340  15.354  -3.501  0.00  0.00    +0.134 A 
ATOM     30  N   UNL     1      23.280  14.705  -4.059  0.00  0.00    -0.248 N 
ATOM     31  N   UNL     1      23.563  14.320  -5.321  0.00  0.00    -0.065 NA
BRANCH  30  32
ATOM     32  C   UNL     1      22.003  14.337  -3.467  0.00  0.00    +0.113 C 
ATOM     33  C   UNL     1      21.406  13.030  -4.008  0.00  0.00    +0.033 C 
BRANCH  32  34
ATOM     34  C   UNL     1      22.033  14.357  -1.928  0.00  0.00    +0.106 C 
BRANCH  34  35
ATOM     35  C   UNL     1      20.917  13.558  -1.279  0.00  0.00    +0.165 C 
ATOM     36  O   UNL     1      19.735  13.876  -1.384  0.00  0.00    -0.292 OA
BRANCH  35  37
ATOM     37  C   UNL     1      21.273  12.368  -0.451  0.00  0.00    +0.017 A 
ATOM     38  C   UNL     1      21.660  11.146  -1.016  0.00  0.00    +0.011 A 
ATOM     39  C   UNL     1      22.022  10.078  -0.192  0.00  0.00    +0.001 A 
ATOM     40  C   UNL     1      21.992  10.219   1.195  0.00  0.00    +0.000 A 
ATOM     41  C   UNL     1      21.596  11.426   1.764  0.00  0.00    +0.001 A 
ATOM     42  C   UNL     1      21.237  12.497   0.946  0.00  0.00    +0.011 A 
ENDBRANCH  35  37
ENDBRANCH  34  35
ENDBRANCH  32  34
ENDBRANCH  30  32
ENDBRANCH  26  28
ENDBRANCH  25  26
ENDBRANCH  24  25
ENDBRANCH   1  24
TORSDOF 14
