REMARK VINA RESULT:    -6.736      2.864      8.558
REMARK INTER + INTRA:         -13.339
REMARK INTER:                 -11.478
REMARK INTRA:                  -1.860
REMARK UNBOUND:                -1.681
REMARK  Name = lig_assembled_59.pdb
REMARK  13 active torsions:
REMARK  status: ('A' for Active; 'I' for Inactive)
REMARK    1  A    between atoms: _2  and  _9
REMARK    2  A    between atoms: _6  and  _7
REMARK    3  A    between atoms: _6  and  _15
REMARK    4  A    between atoms: _12  and  _13
REMARK    5  A    between atoms: _13  and  _14
REMARK    6  A    between atoms: _15  and  _17
REMARK    7  A    between atoms: _16  and  _21
REMARK    8  A    between atoms: _17  and  _20
REMARK    9  A    between atoms: _25  and  _35
REMARK   10  A    between atoms: _27  and  _28
REMARK   11  A    between atoms: _29  and  _31
REMARK   12  A    between atoms: _31  and  _33
REMARK   13  A    between atoms: _33  and  _35
REMARK                            x       y       z     vdW  Elec       q    Type
REMARK                         _______ _______ _______ _____ _____    ______ ____
ROOT
ATOM      1  C   UNL     1      28.270  17.156  -0.740  0.00  0.00    +0.400 C 
ATOM      2  N   UNL     1      27.435  16.286  -1.400  0.00  0.00    -0.278 N 
ATOM      3  H   UNL     1      26.459  16.616  -1.115  0.00  0.00    +0.152 HD
ATOM      4  O   UNL     1      27.770  18.132  -0.186  0.00  0.00    -0.226 OA
ENDROOT
BRANCH   1   5
ATOM      5  O   UNL     1      29.523  16.838  -0.741  0.00  0.00    -0.450 OA
BRANCH   5   6
ATOM      6  C   UNL     1      30.523  16.433   0.165  0.00  0.00    +0.240 C 
BRANCH   6   7
ATOM      7  C   UNL     1      31.563  15.411  -0.333  0.00  0.00    +0.100 C 
BRANCH   7   9
ATOM      8  N   UNL     1      32.853  13.498   0.553  0.00  0.00    -0.134 NA
ATOM      9  C   UNL     1      31.988  14.533   0.774  0.00  0.00    +0.087 A 
ATOM     10  C   UNL     1      31.647  14.559   2.105  0.00  0.00    +0.141 A 
ATOM     11  N   UNL     1      32.336  13.507   2.666  0.00  0.00    -0.202 N 
ATOM     12  N   UNL     1      33.064  12.880   1.707  0.00  0.00    -0.059 NA
BRANCH  11  13
ATOM     13  C   UNL     1      32.316  13.088   4.023  0.00  0.00    +0.156 A 
ATOM     14  C   UNL     1      33.470  13.226   4.792  0.00  0.00    +0.048 A 
ATOM     15  C   UNL     1      33.456  12.773   6.110  0.00  0.00    +0.011 A 
ATOM     16  C   UNL     1      32.297  12.202   6.640  0.00  0.00    -0.004 A 
ATOM     17  C   UNL     1      31.193  12.108   5.799  0.00  0.00    +0.119 A 
ATOM     18  N   UNL     1      31.170  12.542   4.516  0.00  0.00    -0.236 NA
BRANCH  16  19
ATOM     19  C   UNL     1      32.289  11.626   8.025  0.00  0.00    +0.192 C 
BRANCH  19  20
ATOM     20  O   UNL     1      31.903  12.596   8.987  0.00  0.00    -0.390 OA
ATOM     21  H   UNL     1      32.430  13.394   8.811  0.00  0.00    +0.210 HD
ENDBRANCH  19  20
ENDBRANCH  16  19
ENDBRANCH  11  13
ENDBRANCH   7   9
ENDBRANCH   6   7
ENDBRANCH   5   6
ENDBRANCH   1   5
BRANCH   2  22
ATOM     22  C   UNL     1      27.286  15.149  -2.305  0.00  0.00    +0.152 C 
BRANCH  22  23
ATOM     23  C   UNL     1      25.900  14.473  -2.324  0.00  0.00    +0.193 C 
ATOM     24  O   UNL     1      25.469  14.447  -3.702  0.00  0.00    -0.219 OA
BRANCH  23  25
ATOM     25  C   UNL     1      25.817  12.999  -1.867  0.00  0.00    +0.212 C 
ATOM     26  O   UNL     1      26.800  12.206  -2.551  0.00  0.00    -0.218 OA
BRANCH  25  27
ATOM     27  C   UNL     1      26.014  12.816  -0.313  0.00  0.00    +0.171 C 
ATOM     28  O   UNL     1      27.342  12.434   0.029  0.00  0.00    -0.343 OA
ATOM     29  C   UNL     1      27.729  11.972   1.289  0.00  0.00    +0.220 C 
ATOM     30  C   UNL     1      26.816  10.839   1.788  0.00  0.00    +0.076 C 
ATOM     31  C   UNL     1      25.365  11.342   1.700  0.00  0.00    +0.177 C 
ATOM     32  O   UNL     1      24.479  10.345   2.188  0.00  0.00    -0.221 OA
ATOM     33  C   UNL     1      25.021  11.737   0.230  0.00  0.00    +0.155 C 
BRANCH  33  34
ATOM     34  N   UNL     1      23.641  12.209   0.141  0.00  0.00    -0.202 NA
ATOM     35  C   UNL     1      22.576  11.661  -0.497  0.00  0.00    +0.242 C 
ATOM     36  C   UNL     1      21.203  12.195  -0.184  0.00  0.00    +0.096 C 
ATOM     37  O   UNL     1      22.754  10.752  -1.305  0.00  0.00    -0.273 OA
ENDBRANCH  33  34
BRANCH  29  38
ATOM     38  C   UNL     1      27.873  13.154   2.395  0.00  0.00    +0.391 C 
ATOM     39  O   UNL     1      27.869  12.520   3.584  0.00  0.00    -0.243 OA
ATOM     40  O   UNL     1      28.238  14.250   1.720  0.00  0.00    -0.243 OA
ENDBRANCH  29  38
ENDBRANCH  25  27
ENDBRANCH  23  25
ENDBRANCH  22  23
ENDBRANCH   2  22
TORSDOF 13
