REMARK VINA RESULT:    -7.277      2.575      5.221
REMARK INTER + INTRA:         -13.885
REMARK INTER:                 -12.511
REMARK INTRA:                  -1.374
REMARK UNBOUND:                -1.503
REMARK  Name = lig_assembled_89.pdb
REMARK  14 active torsions:
REMARK  status: ('A' for Active; 'I' for Inactive)
REMARK    1  A    between atoms: _2  and  _11
REMARK    2  A    between atoms: _5  and  _19
REMARK    3  A    between atoms: _8  and  _9
REMARK    4  A    between atoms: _8  and  _24
REMARK    5  A    between atoms: _19  and  _20
REMARK    6  A    between atoms: _19  and  _21
REMARK    7  A    between atoms: _24  and  _26
REMARK    8  A    between atoms: _25  and  _30
REMARK    9  A    between atoms: _26  and  _29
REMARK   10  A    between atoms: _34  and  _44
REMARK   11  A    between atoms: _36  and  _37
REMARK   12  A    between atoms: _38  and  _40
REMARK   13  A    between atoms: _40  and  _42
REMARK   14  A    between atoms: _42  and  _44
REMARK                            x       y       z     vdW  Elec       q    Type
REMARK                         _______ _______ _______ _____ _____    ______ ____
ROOT
ATOM      1  C   UNL     1      31.430  13.230  -1.712  0.00  0.00    +0.240 C 
ENDROOT
BRANCH   1   2
ATOM      2  C   UNL     1      30.161  12.376  -1.895  0.00  0.00    +0.100 C 
BRANCH   2   4
ATOM      3  N   UNL     1      28.989  14.408  -1.135  0.00  0.00    -0.134 NA
ATOM      4  C   UNL     1      28.960  13.225  -1.811  0.00  0.00    +0.087 A 
ATOM      5  C   UNL     1      27.707  13.047  -2.349  0.00  0.00    +0.141 A 
ATOM      6  N   UNL     1      26.997  14.178  -1.993  0.00  0.00    -0.200 N 
ATOM      7  N   UNL     1      27.800  14.981  -1.257  0.00  0.00    -0.059 NA
BRANCH   6   8
ATOM      8  C   UNL     1      25.672  14.494  -2.414  0.00  0.00    +0.186 A 
ATOM      9  C   UNL     1      24.474  13.893  -2.082  0.00  0.00    +0.158 A 
ATOM     10  C   UNL     1      24.141  12.714  -1.344  0.00  0.00    +0.280 A 
ATOM     11  O   UNL     1      24.947  11.815  -1.148  0.00  0.00    -0.265 OA
ATOM     12  N   UNL     1      22.809  12.646  -0.889  0.00  0.00    -0.302 N 
ATOM     13  C   UNL     1      21.785  13.453  -1.515  0.00  0.00    +0.069 A 
ATOM     14  C   UNL     1      20.415  13.237  -1.305  0.00  0.00    +0.028 A 
ATOM     15  C   UNL     1      19.449  14.004  -1.969  0.00  0.00    +0.002 A 
ATOM     16  C   UNL     1      19.829  15.013  -2.848  0.00  0.00    +0.002 A 
ATOM     17  C   UNL     1      21.180  15.264  -3.070  0.00  0.00    +0.028 A 
ATOM     18  C   UNL     1      22.143  14.482  -2.415  0.00  0.00    +0.072 A 
ATOM     19  N   UNL     1      23.513  14.704  -2.622  0.00  0.00    -0.291 N 
ATOM     20  C   UNL     1      24.156  15.680  -3.341  0.00  0.00    +0.207 A 
ATOM     21  N   UNL     1      25.464  15.591  -3.228  0.00  0.00    -0.216 NA
BRANCH  12  22
ATOM     22  C   UNL     1      22.464  11.589   0.091  0.00  0.00    +0.085 C 
ATOM     23  C   UNL     1      21.913  10.303  -0.553  0.00  0.00    +0.030 C 
ATOM     24  C   UNL     1      21.505  12.103   1.165  0.00  0.00    +0.030 C 
ENDBRANCH  12  22
ENDBRANCH   6   8
ENDBRANCH   2   4
ENDBRANCH   1   2
BRANCH   1  25
ATOM     25  O   UNL     1      32.050  13.210  -0.448  0.00  0.00    -0.450 OA
BRANCH  25  26
ATOM     26  C   UNL     1      33.006  13.808   0.185  0.00  0.00    +0.400 C 
ATOM     27  N   UNL     1      32.664  14.358   1.398  0.00  0.00    -0.278 N 
ATOM     28  H   UNL     1      33.608  14.615   1.827  0.00  0.00    +0.152 HD
ATOM     29  O   UNL     1      34.174  13.900  -0.184  0.00  0.00    -0.226 OA
BRANCH  27  30
ATOM     30  C   UNL     1      31.614  14.751   2.334  0.00  0.00    +0.152 C 
BRANCH  30  31
ATOM     31  C   UNL     1      30.751  13.608   2.907  0.00  0.00    +0.193 C 
ATOM     32  O   UNL     1      29.818  13.233   1.869  0.00  0.00    -0.219 OA
BRANCH  31  33
ATOM     33  C   UNL     1      31.465  12.290   3.278  0.00  0.00    +0.212 C 
ATOM     34  O   UNL     1      31.486  11.396   2.153  0.00  0.00    -0.218 OA
BRANCH  33  35
ATOM     35  C   UNL     1      32.943  12.501   3.782  0.00  0.00    +0.171 C 
ATOM     36  O   UNL     1      33.912  12.121   2.810  0.00  0.00    -0.343 OA
ATOM     37  C   UNL     1      35.276  11.974   3.073  0.00  0.00    +0.220 C 
ATOM     38  C   UNL     1      35.528  11.082   4.301  0.00  0.00    +0.076 C 
ATOM     39  C   UNL     1      34.702  11.654   5.465  0.00  0.00    +0.177 C 
ATOM     40  O   UNL     1      34.930  10.888   6.640  0.00  0.00    -0.221 OA
ATOM     41  C   UNL     1      33.188  11.679   5.089  0.00  0.00    +0.155 C 
BRANCH  41  42
ATOM     42  N   UNL     1      32.399  12.215   6.196  0.00  0.00    -0.202 NA
ATOM     43  C   UNL     1      31.449  11.613   6.956  0.00  0.00    +0.242 C 
ATOM     44  C   UNL     1      31.003  12.301   8.220  0.00  0.00    +0.096 C 
ATOM     45  O   UNL     1      30.981  10.534   6.600  0.00  0.00    -0.273 OA
ENDBRANCH  41  42
BRANCH  37  46
ATOM     46  C   UNL     1      36.069  13.388   3.190  0.00  0.00    +0.391 C 
ATOM     47  O   UNL     1      37.374  13.059   3.140  0.00  0.00    -0.243 OA
ATOM     48  O   UNL     1      35.153  14.343   2.988  0.00  0.00    -0.243 OA
ENDBRANCH  37  46
ENDBRANCH  33  35
ENDBRANCH  31  33
ENDBRANCH  30  31
ENDBRANCH  27  30
ENDBRANCH  25  26
ENDBRANCH   1  25
TORSDOF 12
