REMARK VINA RESULT:    -5.867      3.157      8.044
REMARK INTER + INTRA:         -13.785
REMARK INTER:                 -10.668
REMARK INTRA:                  -3.117
REMARK UNBOUND:                -3.117
REMARK  Name = lig_assembled_9.pdb
REMARK  15 active torsions:
REMARK  status: ('A' for Active; 'I' for Inactive)
REMARK    1  A    between atoms: _2  and  _8
REMARK    2  A    between atoms: _5  and  _6
REMARK    3  A    between atoms: _5  and  _18
REMARK    4  A    between atoms: _10  and  _11
REMARK    5  A    between atoms: _11  and  _16
REMARK    6  A    between atoms: _12  and  _13
REMARK    7  A    between atoms: _12  and  _16
REMARK    8  A    between atoms: _18  and  _20
REMARK    9  A    between atoms: _19  and  _24
REMARK   10  A    between atoms: _20  and  _23
REMARK   11  A    between atoms: _28  and  _38
REMARK   12  A    between atoms: _30  and  _31
REMARK   13  A    between atoms: _32  and  _34
REMARK   14  A    between atoms: _34  and  _36
REMARK   15  A    between atoms: _36  and  _38
REMARK                            x       y       z     vdW  Elec       q    Type
REMARK                         _______ _______ _______ _____ _____    ______ ____
ROOT
ATOM      1  C   UNL     1      20.791  13.675  -1.369  0.00  0.00    +0.400 C 
ATOM      2  N   UNL     1      20.764  12.390  -1.857  0.00  0.00    -0.278 N 
ATOM      3  H   UNL     1      20.152  11.870  -1.151  0.00  0.00    +0.152 HD
ATOM      4  O   UNL     1      20.034  13.960  -0.444  0.00  0.00    -0.226 OA
ENDROOT
BRANCH   2   5
ATOM      5  C   UNL     1      21.174  11.442  -2.889  0.00  0.00    +0.152 C 
BRANCH   5   6
ATOM      6  C   UNL     1      22.047  10.260  -2.419  0.00  0.00    +0.193 C 
ATOM      7  O   UNL     1      22.340   9.468  -3.591  0.00  0.00    -0.219 OA
BRANCH   6   8
ATOM      8  C   UNL     1      23.432  10.588  -1.819  0.00  0.00    +0.212 C 
ATOM      9  O   UNL     1      23.718  11.990  -1.954  0.00  0.00    -0.218 OA
BRANCH   8  10
ATOM     10  C   UNL     1      23.565  10.191  -0.300  0.00  0.00    +0.171 C 
ATOM     11  O   UNL     1      22.412  10.538   0.460  0.00  0.00    -0.343 OA
ATOM     12  C   UNL     1      22.354  10.524   1.856  0.00  0.00    +0.220 C 
ATOM     13  C   UNL     1      23.529  11.295   2.483  0.00  0.00    +0.076 C 
ATOM     14  C   UNL     1      24.827  10.729   1.883  0.00  0.00    +0.177 C 
ATOM     15  O   UNL     1      25.949  11.382   2.460  0.00  0.00    -0.221 OA
ATOM     16  C   UNL     1      24.815  10.888   0.331  0.00  0.00    +0.155 C 
BRANCH  16  17
ATOM     17  N   UNL     1      26.049  10.357  -0.243  0.00  0.00    -0.202 NA
ATOM     18  C   UNL     1      27.049  11.001  -0.896  0.00  0.00    +0.242 C 
ATOM     19  C   UNL     1      28.345  10.267  -1.123  0.00  0.00    +0.096 C 
ATOM     20  O   UNL     1      26.878  12.156  -1.283  0.00  0.00    -0.273 OA
ENDBRANCH  16  17
BRANCH  12  21
ATOM     21  C   UNL     1      22.217   9.032   2.483  0.00  0.00    +0.391 C 
ATOM     22  O   UNL     1      22.596   9.160   3.769  0.00  0.00    -0.243 OA
ATOM     23  O   UNL     1      21.508   8.322   1.597  0.00  0.00    -0.243 OA
ENDBRANCH  12  21
ENDBRANCH   8  10
ENDBRANCH   6   8
ENDBRANCH   5   6
ENDBRANCH   2   5
BRANCH   1  24
ATOM     24  O   UNL     1      21.649  14.466  -1.924  0.00  0.00    -0.450 OA
BRANCH  24  25
ATOM     25  C   UNL     1      21.801  15.219  -3.105  0.00  0.00    +0.240 C 
BRANCH  25  26
ATOM     26  C   UNL     1      22.756  14.668  -4.181  0.00  0.00    +0.100 C 
BRANCH  26  28
ATOM     27  N   UNL     1      25.100  15.089  -4.855  0.00  0.00    -0.134 NA
ATOM     28  C   UNL     1      24.145  15.063  -3.881  0.00  0.00    +0.086 A 
ATOM     29  C   UNL     1      24.707  15.457  -2.690  0.00  0.00    +0.139 A 
ATOM     30  N   UNL     1      26.016  15.754  -2.995  0.00  0.00    -0.220 N 
ATOM     31  N   UNL     1      26.236  15.502  -4.307  0.00  0.00    -0.061 NA
BRANCH  30  32
ATOM     32  C   UNL     1      27.028  16.275  -2.149  0.00  0.00    +0.068 A 
ATOM     33  C   UNL     1      27.891  15.414  -1.458  0.00  0.00    +0.042 A 
ATOM     34  C   UNL     1      28.870  15.933  -0.597  0.00  0.00    +0.061 A 
ATOM     35  C   UNL     1      28.984  17.319  -0.432  0.00  0.00    +0.015 A 
ATOM     36  C   UNL     1      28.134  18.179  -1.129  0.00  0.00    +0.003 A 
ATOM     37  C   UNL     1      27.160  17.662  -1.985  0.00  0.00    +0.028 A 
BRANCH  34  38
ATOM     38  C   UNL     1      29.844  15.057   0.107  0.00  0.00    +0.339 C 
ATOM     39  O   UNL     1      30.910  15.449   0.552  0.00  0.00    -0.245 OA
BRANCH  38  40
ATOM     40  O   UNL     1      29.407  13.773   0.081  0.00  0.00    -0.461 OA
BRANCH  40  41
ATOM     41  C   UNL     1      30.162  12.849   0.875  0.00  0.00    +0.229 C 
ATOM     42  C   UNL     1      29.323  12.476   2.084  0.00  0.00    +0.048 C 
ENDBRANCH  40  41
ENDBRANCH  38  40
ENDBRANCH  34  38
ENDBRANCH  30  32
ENDBRANCH  26  28
ENDBRANCH  25  26
ENDBRANCH  24  25
ENDBRANCH   1  24
TORSDOF 14
