REMARK VINA RESULT:    -6.267      1.906      2.656
REMARK INTER + INTRA:         -13.967
REMARK INTER:                 -12.106
REMARK INTRA:                  -1.861
REMARK UNBOUND:                -1.837
REMARK  Name = lig_assembled_45.pdb
REMARK  19 active torsions:
REMARK  status: ('A' for Active; 'I' for Inactive)
REMARK    1  A    between atoms: _2  and  _9
REMARK    2  A    between atoms: _3  and  _11
REMARK    3  A    between atoms: _3  and  _12
REMARK    4  A    between atoms: _3  and  _13
REMARK    5  A    between atoms: _3  and  _15
REMARK    6  A    between atoms: _5  and  _15
REMARK    7  A    between atoms: _6  and  _7
REMARK    8  A    between atoms: _6  and  _16
REMARK    9  A    between atoms: _9  and  _10
REMARK   10  A    between atoms: _10  and  _11
REMARK   11  A    between atoms: _13  and  _14
REMARK   12  A    between atoms: _16  and  _18
REMARK   13  A    between atoms: _17  and  _22
REMARK   14  A    between atoms: _18  and  _21
REMARK   15  A    between atoms: _26  and  _36
REMARK   16  A    between atoms: _28  and  _29
REMARK   17  A    between atoms: _30  and  _32
REMARK   18  A    between atoms: _32  and  _34
REMARK   19  A    between atoms: _34  and  _36
REMARK                            x       y       z     vdW  Elec       q    Type
REMARK                         _______ _______ _______ _____ _____    ______ ____
ROOT
ATOM      1  C   UNL     1      28.796  17.075  -0.465  0.00  0.00    +0.400 C 
ATOM      2  N   UNL     1      28.811  15.886   0.225  0.00  0.00    -0.278 N 
ATOM      3  H   UNL     1      29.417  16.103   1.078  0.00  0.00    +0.152 HD
ATOM      4  O   UNL     1      29.267  18.069   0.082  0.00  0.00    -0.226 OA
ENDROOT
BRANCH   2   5
ATOM      5  C   UNL     1      28.368  14.498   0.321  0.00  0.00    +0.152 C 
BRANCH   5   6
ATOM      6  C   UNL     1      29.099  13.487  -0.586  0.00  0.00    +0.193 C 
ATOM      7  O   UNL     1      28.669  13.756  -1.939  0.00  0.00    -0.219 OA
BRANCH   6   8
ATOM      8  C   UNL     1      30.640  13.567  -0.649  0.00  0.00    +0.212 C 
ATOM      9  O   UNL     1      31.060  14.896  -0.997  0.00  0.00    -0.218 OA
BRANCH   8  10
ATOM     10  C   UNL     1      31.342  13.154   0.701  0.00  0.00    +0.171 C 
ATOM     11  O   UNL     1      30.818  13.850   1.827  0.00  0.00    -0.343 OA
ATOM     12  C   UNL     1      31.409  13.861   3.092  0.00  0.00    +0.220 C 
ATOM     13  C   UNL     1      32.902  14.225   3.021  0.00  0.00    +0.076 C 
ATOM     14  C   UNL     1      33.562  13.276   2.007  0.00  0.00    +0.177 C 
ATOM     15  O   UNL     1      34.955  13.543   1.932  0.00  0.00    -0.221 OA
ATOM     16  C   UNL     1      32.880  13.423   0.611  0.00  0.00    +0.155 C 
BRANCH  16  17
ATOM     17  N   UNL     1      33.508  12.528  -0.357  0.00  0.00    -0.202 NA
ATOM     18  C   UNL     1      34.156  12.818  -1.514  0.00  0.00    +0.242 C 
ATOM     19  C   UNL     1      34.966  11.731  -2.173  0.00  0.00    +0.096 C 
ATOM     20  O   UNL     1      34.071  13.948  -1.992  0.00  0.00    -0.273 OA
ENDBRANCH  16  17
BRANCH  12  21
ATOM     21  C   UNL     1      31.167  12.491   3.931  0.00  0.00    +0.391 C 
ATOM     22  O   UNL     1      32.069  12.532   4.931  0.00  0.00    -0.243 OA
ATOM     23  O   UNL     1      29.996  12.000   3.508  0.00  0.00    -0.243 OA
ENDBRANCH  12  21
ENDBRANCH   8  10
ENDBRANCH   6   8
ENDBRANCH   5   6
ENDBRANCH   2   5
BRANCH   1  24
ATOM     24  O   UNL     1      28.307  17.022  -1.661  0.00  0.00    -0.450 OA
BRANCH  24  25
ATOM     25  C   UNL     1      27.152  17.423  -2.361  0.00  0.00    +0.240 C 
BRANCH  25  26
ATOM     26  C   UNL     1      26.976  16.902  -3.800  0.00  0.00    +0.100 C 
BRANCH  26  28
ATOM     27  N   UNL     1      24.638  16.247  -3.299  0.00  0.00    -0.134 NA
ATOM     28  C   UNL     1      25.849  15.955  -3.867  0.00  0.00    +0.086 A 
ATOM     29  C   UNL     1      25.784  14.709  -4.450  0.00  0.00    +0.133 A 
ATOM     30  N   UNL     1      24.508  14.309  -4.198  0.00  0.00    -0.251 N 
ATOM     31  N   UNL     1      23.822  15.221  -3.505  0.00  0.00    -0.065 NA
BRANCH  30  32
ATOM     32  C   UNL     1      23.893  13.052  -4.571  0.00  0.00    +0.150 C 
BRANCH  32  33
ATOM     33  C   UNL     1      22.472  12.906  -4.040  0.00  0.00    +0.074 C 
BRANCH  33  34
ATOM     34  C   UNL     1      22.276  11.985  -2.829  0.00  0.00    +0.134 C 
BRANCH  34  35
ATOM     35  N   UNL     1      22.123  12.648  -1.420  0.00  0.00    +0.241 N 
ATOM     36  C   UNL     1      23.524  12.872  -0.825  0.00  0.00    +0.192 C 
BRANCH  35  37
ATOM     37  C   UNL     1      21.368  11.604  -0.531  0.00  0.00    +0.129 C 
ATOM     38  C   UNL     1      21.552  11.818   0.967  0.00  0.00    +0.060 C 
ENDBRANCH  35  37
BRANCH  35  39
ATOM     39  C   UNL     1      21.359  13.985  -1.414  0.00  0.00    +0.129 C 
ATOM     40  C   UNL     1      19.867  13.852  -1.672  0.00  0.00    +0.060 C 
ENDBRANCH  35  39
ENDBRANCH  34  35
ENDBRANCH  33  34
ENDBRANCH  32  33
ENDBRANCH  30  32
ENDBRANCH  26  28
ENDBRANCH  25  26
ENDBRANCH  24  25
ENDBRANCH   1  24
TORSDOF 16
