REMARK VINA RESULT:    -6.398      4.291      9.294
REMARK INTER + INTRA:         -12.682
REMARK INTER:                 -10.716
REMARK INTRA:                  -1.966
REMARK UNBOUND:                -2.544
REMARK  Name = lig_assembled_65.pdb
REMARK  11 active torsions:
REMARK  status: ('A' for Active; 'I' for Inactive)
REMARK    1  A    between atoms: _8  and  _14
REMARK    2  A    between atoms: _9  and  _10
REMARK    3  A    between atoms: _9  and  _15
REMARK    4  A    between atoms: _15  and  _17
REMARK    5  A    between atoms: _16  and  _21
REMARK    6  A    between atoms: _17  and  _20
REMARK    7  A    between atoms: _25  and  _35
REMARK    8  A    between atoms: _27  and  _28
REMARK    9  A    between atoms: _29  and  _31
REMARK   10  A    between atoms: _31  and  _33
REMARK   11  A    between atoms: _33  and  _35
REMARK                            x       y       z     vdW  Elec       q    Type
REMARK                         _______ _______ _______ _____ _____    ______ ____
ROOT
ATOM      1  C   UNL     1      32.007  14.904   2.038  0.00  0.00    +0.400 C 
ATOM      2  N   UNL     1      31.293  15.907   1.424  0.00  0.00    -0.278 N 
ATOM      3  H   UNL     1      30.962  16.510   2.242  0.00  0.00    +0.152 HD
ATOM      4  O   UNL     1      32.245  15.013   3.238  0.00  0.00    -0.226 OA
ENDROOT
BRANCH   1   5
ATOM      5  O   UNL     1      32.336  13.908   1.282  0.00  0.00    -0.450 OA
BRANCH   5   6
ATOM      6  C   UNL     1      32.978  12.658   1.381  0.00  0.00    +0.240 C 
BRANCH   6   7
ATOM      7  C   UNL     1      32.143  11.469   1.894  0.00  0.00    +0.100 C 
BRANCH   7   9
ATOM      8  N   UNL     1      30.527  11.994   3.694  0.00  0.00    -0.134 NA
ATOM      9  C   UNL     1      31.797  11.659   3.315  0.00  0.00    +0.087 A 
ATOM     10  C   UNL     1      32.586  11.555   4.435  0.00  0.00    +0.146 A 
ATOM     11  N   UNL     1      31.748  11.846   5.489  0.00  0.00    -0.155 N 
ATOM     12  C   UNL     1      32.089  11.893   6.873  0.00  0.00    +0.416 C 
ATOM     13  N   UNL     1      31.131  12.194   7.759  0.00  0.00    +0.041 NA
ATOM     14  C   UNL     1      31.530  12.233   9.029  0.00  0.00    +0.339 C 
ATOM     15  C   UNL     1      30.507  12.578  10.066  0.00  0.00    +0.149 C 
ATOM     16  N   UNL     1      32.777  11.998   9.437  0.00  0.00    +0.007 NA
ATOM     17  C   UNL     1      33.650  11.723   8.480  0.00  0.00    +0.386 C 
ATOM     18  N   UNL     1      34.954  11.486   8.859  0.00  0.00    -0.296 N 
ATOM     19  H   UNL     1      34.999  11.203   9.828  0.00  0.00    +0.148 HD
ATOM     20  H   UNL     1      35.434  10.910   8.182  0.00  0.00    +0.148 HD
ATOM     21  N   UNL     1      33.365  11.635   7.193  0.00  0.00    -0.290 NA
ATOM     22  N   UNL     1      30.500  12.103   5.018  0.00  0.00    -0.056 NA
ENDBRANCH   7   9
ENDBRANCH   6   7
ENDBRANCH   5   6
ENDBRANCH   1   5
BRANCH   2  23
ATOM     23  C   UNL     1      30.810  16.511   0.186  0.00  0.00    +0.152 C 
BRANCH  23  24
ATOM     24  C   UNL     1      29.331  16.248  -0.166  0.00  0.00    +0.193 C 
ATOM     25  O   UNL     1      28.949  17.252  -1.132  0.00  0.00    -0.219 OA
BRANCH  24  26
ATOM     26  C   UNL     1      28.986  14.906  -0.849  0.00  0.00    +0.212 C 
ATOM     27  O   UNL     1      30.171  14.111  -1.021  0.00  0.00    -0.218 OA
BRANCH  26  28
ATOM     28  C   UNL     1      27.922  14.056  -0.056  0.00  0.00    +0.171 C 
ATOM     29  O   UNL     1      28.521  13.106   0.819  0.00  0.00    -0.343 OA
ATOM     30  C   UNL     1      27.828  12.071   1.451  0.00  0.00    +0.220 C 
ATOM     31  C   UNL     1      26.978  11.261   0.456  0.00  0.00    +0.076 C 
ATOM     32  C   UNL     1      26.094  12.257  -0.313  0.00  0.00    +0.177 C 
ATOM     33  O   UNL     1      25.257  11.555  -1.222  0.00  0.00    -0.221 OA
ATOM     34  C   UNL     1      26.983  13.304  -1.054  0.00  0.00    +0.155 C 
BRANCH  34  35
ATOM     35  N   UNL     1      26.146  14.247  -1.792  0.00  0.00    -0.202 NA
ATOM     36  C   UNL     1      26.090  14.498  -3.125  0.00  0.00    +0.242 C 
ATOM     37  C   UNL     1      24.933  15.307  -3.652  0.00  0.00    +0.096 C 
ATOM     38  O   UNL     1      26.973  14.065  -3.863  0.00  0.00    -0.273 OA
ENDBRANCH  34  35
BRANCH  30  39
ATOM     39  C   UNL     1      26.948  12.564   2.725  0.00  0.00    +0.391 C 
ATOM     40  O   UNL     1      26.067  11.569   2.945  0.00  0.00    -0.243 OA
ATOM     41  O   UNL     1      27.608  13.603   3.251  0.00  0.00    -0.243 OA
ENDBRANCH  30  39
ENDBRANCH  26  28
ENDBRANCH  24  26
ENDBRANCH  23  24
ENDBRANCH   2  23
TORSDOF 10
