REMARK VINA RESULT:    -6.883      1.772      2.333
REMARK INTER + INTRA:         -12.918
REMARK INTER:                 -11.647
REMARK INTRA:                  -1.271
REMARK UNBOUND:                -1.609
REMARK  Name = lig_assembled_87.pdb
REMARK  12 active torsions:
REMARK  status: ('A' for Active; 'I' for Inactive)
REMARK    1  A    between atoms: _2  and  _9
REMARK    2  A    between atoms: _3  and  _12
REMARK    3  A    between atoms: _6  and  _7
REMARK    4  A    between atoms: _6  and  _16
REMARK    5  A    between atoms: _16  and  _18
REMARK    6  A    between atoms: _17  and  _22
REMARK    7  A    between atoms: _18  and  _21
REMARK    8  A    between atoms: _26  and  _36
REMARK    9  A    between atoms: _28  and  _29
REMARK   10  A    between atoms: _30  and  _32
REMARK   11  A    between atoms: _32  and  _34
REMARK   12  A    between atoms: _34  and  _36
REMARK                            x       y       z     vdW  Elec       q    Type
REMARK                         _______ _______ _______ _____ _____    ______ ____
ROOT
ATOM      1  C   UNL     1      27.892  17.418  -0.840  0.00  0.00    +0.400 C 
ATOM      2  N   UNL     1      28.610  16.535  -0.069  0.00  0.00    -0.278 N 
ATOM      3  H   UNL     1      28.804  17.088   0.825  0.00  0.00    +0.152 HD
ATOM      4  O   UNL     1      27.506  18.462  -0.319  0.00  0.00    -0.226 OA
ENDROOT
BRANCH   1   5
ATOM      5  O   UNL     1      27.716  17.071  -2.073  0.00  0.00    -0.450 OA
BRANCH   5   6
ATOM      6  C   UNL     1      26.746  16.441  -2.877  0.00  0.00    +0.240 C 
BRANCH   6   7
ATOM      7  C   UNL     1      26.585  14.916  -2.734  0.00  0.00    +0.100 C 
BRANCH   7   9
ATOM      8  N   UNL     1      24.771  13.289  -2.327  0.00  0.00    -0.134 NA
ATOM      9  C   UNL     1      25.157  14.565  -2.624  0.00  0.00    +0.086 A 
ATOM     10  C   UNL     1      24.038  15.355  -2.761  0.00  0.00    +0.134 A 
ATOM     11  N   UNL     1      23.000  14.533  -2.415  0.00  0.00    -0.248 N 
ATOM     12  N   UNL     1      23.450  13.269  -2.273  0.00  0.00    -0.065 NA
BRANCH  11  13
ATOM     13  C   UNL     1      21.567  14.816  -2.206  0.00  0.00    +0.112 C 
ATOM     14  C   UNL     1      20.690  13.566  -1.916  0.00  0.00    +0.045 C 
ATOM     15  C   UNL     1      19.551  13.304  -2.914  0.00  0.00    +0.059 C 
ATOM     16  C   UNL     1      18.345  14.220  -2.664  0.00  0.00    +0.020 C 
ATOM     17  C   UNL     1      18.538  15.386  -3.633  0.00  0.00    +0.020 C 
ATOM     18  C   UNL     1      19.924  15.142  -4.231  0.00  0.00    +0.059 C 
ATOM     19  N   UNL     1      19.901  13.683  -4.277  0.00  0.00    -0.299 NA
ATOM     20  C   UNL     1      21.027  13.013  -4.890  0.00  0.00    +0.105 C 
ATOM     21  C   UNL     1      21.009  15.738  -3.332  0.00  0.00    +0.045 C 
ENDBRANCH  11  13
ENDBRANCH   7   9
ENDBRANCH   6   7
ENDBRANCH   5   6
ENDBRANCH   1   5
BRANCH   2  22
ATOM     22  C   UNL     1      29.199  15.207   0.079  0.00  0.00    +0.152 C 
BRANCH  22  23
ATOM     23  C   UNL     1      30.582  15.150   0.760  0.00  0.00    +0.193 C 
ATOM     24  O   UNL     1      31.001  16.517   0.966  0.00  0.00    -0.219 OA
BRANCH  23  25
ATOM     25  C   UNL     1      30.664  14.506   2.162  0.00  0.00    +0.212 C 
ATOM     26  O   UNL     1      29.588  13.572   2.348  0.00  0.00    -0.218 OA
BRANCH  25  27
ATOM     27  C   UNL     1      32.028  13.763   2.430  0.00  0.00    +0.171 C 
ATOM     28  O   UNL     1      33.003  14.609   3.030  0.00  0.00    -0.343 OA
ATOM     29  C   UNL     1      34.357  14.288   3.152  0.00  0.00    +0.220 C 
ATOM     30  C   UNL     1      34.957  13.825   1.812  0.00  0.00    +0.076 C 
ATOM     31  C   UNL     1      34.068  12.691   1.275  0.00  0.00    +0.177 C 
ATOM     32  O   UNL     1      34.601  12.199   0.054  0.00  0.00    -0.221 OA
ATOM     33  C   UNL     1      32.603  13.197   1.090  0.00  0.00    +0.155 C 
BRANCH  33  34
ATOM     34  N   UNL     1      31.757  12.125   0.573  0.00  0.00    -0.202 NA
ATOM     35  C   UNL     1      31.329  11.892  -0.694  0.00  0.00    +0.242 C 
ATOM     36  C   UNL     1      30.711  10.554  -1.005  0.00  0.00    +0.096 C 
ATOM     37  O   UNL     1      31.454  12.767  -1.548  0.00  0.00    -0.273 OA
ENDBRANCH  33  34
BRANCH  29  38
ATOM     38  C   UNL     1      34.666  13.226   4.342  0.00  0.00    +0.391 C 
ATOM     39  O   UNL     1      35.864  12.695   4.032  0.00  0.00    -0.243 OA
ATOM     40  O   UNL     1      33.784  13.493   5.313  0.00  0.00    -0.243 OA
ENDBRANCH  29  38
ENDBRANCH  25  27
ENDBRANCH  23  25
ENDBRANCH  22  23
ENDBRANCH   2  22
TORSDOF 11
