REMARK VINA RESULT:    -6.177      3.147      8.868
REMARK INTER + INTRA:         -12.412
REMARK INTER:                 -10.873
REMARK INTRA:                  -1.539
REMARK UNBOUND:                -2.263
REMARK  Name = lig_assembled_52.pdb
REMARK  11 active torsions:
REMARK  status: ('A' for Active; 'I' for Inactive)
REMARK    1  A    between atoms: _2  and  _9
REMARK    2  A    between atoms: _6  and  _7
REMARK    3  A    between atoms: _6  and  _13
REMARK    4  A    between atoms: _13  and  _15
REMARK    5  A    between atoms: _14  and  _19
REMARK    6  A    between atoms: _15  and  _18
REMARK    7  A    between atoms: _23  and  _33
REMARK    8  A    between atoms: _25  and  _26
REMARK    9  A    between atoms: _27  and  _29
REMARK   10  A    between atoms: _29  and  _31
REMARK   11  A    between atoms: _31  and  _33
REMARK                            x       y       z     vdW  Elec       q    Type
REMARK                         _______ _______ _______ _____ _____    ______ ____
ROOT
ATOM      1  C   UNL     1      27.487  15.115  -2.000  0.00  0.00    +0.152 C 
ENDROOT
BRANCH   1   3
ATOM      2  C   UNL     1      28.285  17.371  -0.689  0.00  0.00    +0.400 C 
ATOM      3  N   UNL     1      27.531  16.364  -1.244  0.00  0.00    -0.278 N 
ATOM      4  H   UNL     1      26.528  16.651  -1.015  0.00  0.00    +0.152 HD
ATOM      5  O   UNL     1      27.701  18.367  -0.269  0.00  0.00    -0.226 OA
BRANCH   2   6
ATOM      6  O   UNL     1      29.558  17.152  -0.634  0.00  0.00    -0.450 OA
BRANCH   6   7
ATOM      7  C   UNL     1      30.490  16.465   0.168  0.00  0.00    +0.240 C 
BRANCH   7   8
ATOM      8  C   UNL     1      30.750  14.982  -0.157  0.00  0.00    +0.100 C 
BRANCH   8  10
ATOM      9  N   UNL     1      32.762  13.922   0.818  0.00  0.00    -0.134 NA
ATOM     10  C   UNL     1      31.468  14.333   0.956  0.00  0.00    +0.086 A 
ATOM     11  C   UNL     1      31.039  14.039   2.230  0.00  0.00    +0.140 A 
ATOM     12  N   UNL     1      32.125  13.461   2.847  0.00  0.00    -0.218 N 
ATOM     13  N   UNL     1      33.153  13.390   1.967  0.00  0.00    -0.060 NA
BRANCH  12  14
ATOM     14  C   UNL     1      32.244  13.003   4.176  0.00  0.00    +0.085 A 
ATOM     15  C   UNL     1      31.181  12.390   4.846  0.00  0.00    +0.031 A 
ATOM     16  C   UNL     1      31.355  11.979   6.166  0.00  0.00    +0.022 A 
ATOM     17  C   UNL     1      32.583  12.192   6.769  0.00  0.00    +0.111 A 
ATOM     18  N   UNL     1      33.630  12.773   6.147  0.00  0.00    -0.261 NA
ATOM     19  C   UNL     1      33.442  13.167   4.863  0.00  0.00    +0.138 A 
ENDBRANCH  12  14
ENDBRANCH   8  10
ENDBRANCH   7   8
ENDBRANCH   6   7
ENDBRANCH   2   6
ENDBRANCH   1   3
BRANCH   1  20
ATOM     20  C   UNL     1      26.148  14.785  -2.689  0.00  0.00    +0.193 C 
ATOM     21  O   UNL     1      26.383  14.861  -4.113  0.00  0.00    -0.219 OA
BRANCH  20  22
ATOM     22  C   UNL     1      25.560  13.373  -2.471  0.00  0.00    +0.212 C 
ATOM     23  O   UNL     1      26.332  12.392  -3.183  0.00  0.00    -0.218 OA
BRANCH  22  24
ATOM     24  C   UNL     1      25.489  12.954  -0.953  0.00  0.00    +0.171 C 
ATOM     25  O   UNL     1      26.598  12.155  -0.553  0.00  0.00    -0.343 OA
ATOM     26  C   UNL     1      26.669  11.452   0.651  0.00  0.00    +0.220 C 
ATOM     27  C   UNL     1      25.415  10.591   0.884  0.00  0.00    +0.076 C 
ATOM     28  C   UNL     1      24.190  11.510   0.742  0.00  0.00    +0.177 C 
ATOM     29  O   UNL     1      23.002  10.771   0.987  0.00  0.00    -0.221 OA
ATOM     30  C   UNL     1      24.169  12.163  -0.675  0.00  0.00    +0.155 C 
BRANCH  30  31
ATOM     31  N   UNL     1      23.003  13.031  -0.817  0.00  0.00    -0.202 NA
ATOM     32  C   UNL     1      21.794  12.775  -1.376  0.00  0.00    +0.242 C 
ATOM     33  C   UNL     1      20.670  13.747  -1.127  0.00  0.00    +0.096 C 
ATOM     34  O   UNL     1      21.643  11.768  -2.065  0.00  0.00    -0.273 OA
ENDBRANCH  30  31
BRANCH  26  35
ATOM     35  C   UNL     1      26.991  12.395   1.934  0.00  0.00    +0.391 C 
ATOM     36  O   UNL     1      26.674  11.644   3.007  0.00  0.00    -0.243 OA
ATOM     37  O   UNL     1      27.717  13.419   1.467  0.00  0.00    -0.243 OA
ENDBRANCH  26  35
ENDBRANCH  22  24
ENDBRANCH  20  22
ENDBRANCH   1  20
TORSDOF 11
