REMARK VINA RESULT:    -5.919      2.446     10.562
REMARK INTER + INTRA:         -13.048
REMARK INTER:                 -10.728
REMARK INTRA:                  -2.321
REMARK UNBOUND:                -2.286
REMARK  Name = lig_assembled_62.pdb
REMARK  15 active torsions:
REMARK  status: ('A' for Active; 'I' for Inactive)
REMARK    1  A    between atoms: _2  and  _9
REMARK    2  A    between atoms: _5  and  _9
REMARK    3  A    between atoms: _6  and  _7
REMARK    4  A    between atoms: _6  and  _14
REMARK    5  A    between atoms: _9  and  _10
REMARK    6  A    between atoms: _10  and  _13
REMARK    7  A    between atoms: _11  and  _13
REMARK    8  A    between atoms: _14  and  _16
REMARK    9  A    between atoms: _15  and  _20
REMARK   10  A    between atoms: _16  and  _19
REMARK   11  A    between atoms: _24  and  _34
REMARK   12  A    between atoms: _26  and  _27
REMARK   13  A    between atoms: _28  and  _30
REMARK   14  A    between atoms: _30  and  _32
REMARK   15  A    between atoms: _32  and  _34
REMARK                            x       y       z     vdW  Elec       q    Type
REMARK                         _______ _______ _______ _____ _____    ______ ____
ROOT
ATOM      1  C   UNL     1      27.160  16.981  -2.365  0.00  0.00    +0.400 C 
ATOM      2  N   UNL     1      26.333  16.733  -3.435  0.00  0.00    -0.278 N 
ATOM      3  H   UNL     1      25.752  17.626  -3.510  0.00  0.00    +0.152 HD
ATOM      4  O   UNL     1      27.185  18.119  -1.903  0.00  0.00    -0.226 OA
ENDROOT
BRANCH   2   5
ATOM      5  C   UNL     1      25.913  15.824  -4.498  0.00  0.00    +0.152 C 
BRANCH   5   6
ATOM      6  C   UNL     1      24.525  15.172  -4.326  0.00  0.00    +0.193 C 
ATOM      7  O   UNL     1      24.466  14.069  -5.257  0.00  0.00    -0.219 OA
BRANCH   6   8
ATOM      8  C   UNL     1      24.198  14.538  -2.956  0.00  0.00    +0.212 C 
ATOM      9  O   UNL     1      24.287  15.522  -1.913  0.00  0.00    -0.218 OA
BRANCH   8  10
ATOM     10  C   UNL     1      22.770  13.873  -2.901  0.00  0.00    +0.171 C 
ATOM     11  O   UNL     1      21.718  14.827  -2.996  0.00  0.00    -0.343 OA
ATOM     12  C   UNL     1      20.374  14.548  -2.733  0.00  0.00    +0.220 C 
ATOM     13  C   UNL     1      20.193  13.843  -1.377  0.00  0.00    +0.076 C 
ATOM     14  C   UNL     1      21.123  12.619  -1.364  0.00  0.00    +0.177 C 
ATOM     15  O   UNL     1      20.965  11.907  -0.145  0.00  0.00    -0.221 OA
ATOM     16  C   UNL     1      22.604  13.067  -1.571  0.00  0.00    +0.155 C 
BRANCH  16  17
ATOM     17  N   UNL     1      23.491  11.907  -1.552  0.00  0.00    -0.202 NA
ATOM     18  C   UNL     1      24.284  11.437  -0.555  0.00  0.00    +0.242 C 
ATOM     19  C   UNL     1      24.871  10.057  -0.699  0.00  0.00    +0.096 C 
ATOM     20  O   UNL     1      24.500  12.138   0.431  0.00  0.00    -0.273 OA
ENDBRANCH  16  17
BRANCH  12  21
ATOM     21  C   UNL     1      19.635  13.737  -3.931  0.00  0.00    +0.391 C 
ATOM     22  O   UNL     1      18.661  13.031  -3.324  0.00  0.00    -0.243 OA
ATOM     23  O   UNL     1      20.061  14.293  -5.072  0.00  0.00    -0.243 OA
ENDBRANCH  12  21
ENDBRANCH   8  10
ENDBRANCH   6   8
ENDBRANCH   5   6
ENDBRANCH   2   5
BRANCH   1  24
ATOM     24  O   UNL     1      27.823  15.963  -1.922  0.00  0.00    -0.450 OA
BRANCH  24  25
ATOM     25  C   UNL     1      27.756  14.556  -1.938  0.00  0.00    +0.240 C 
BRANCH  25  26
ATOM     26  C   UNL     1      27.275  13.852  -0.655  0.00  0.00    +0.100 C 
BRANCH  26  28
ATOM     27  N   UNL     1      28.123  13.983   1.668  0.00  0.00    -0.134 NA
ATOM     28  C   UNL     1      28.366  13.787   0.334  0.00  0.00    +0.086 A 
ATOM     29  C   UNL     1      29.710  13.542   0.156  0.00  0.00    +0.134 A 
ATOM     30  N   UNL     1      30.233  13.617   1.414  0.00  0.00    -0.237 N 
ATOM     31  N   UNL     1      29.271  13.875   2.320  0.00  0.00    -0.065 NA
BRANCH  30  32
ATOM     32  C   UNL     1      31.603  13.428   1.857  0.00  0.00    +0.219 C 
BRANCH  32  33
ATOM     33  C   UNL     1      32.105  14.672   2.571  0.00  0.00    +0.237 C 
ATOM     34  O   UNL     1      33.011  14.675   3.402  0.00  0.00    -0.274 OA
ATOM     35  N   UNL     1      31.530  15.855   2.194  0.00  0.00    -0.328 N 
ATOM     36  H   UNL     1      30.846  15.937   1.453  0.00  0.00    +0.145 HD
ATOM     37  H   UNL     1      31.852  16.702   2.647  0.00  0.00    +0.145 HD
ENDBRANCH  32  33
BRANCH  32  38
ATOM     38  C   UNL     1      32.508  13.072   0.679  0.00  0.00    +0.195 C 
BRANCH  38  39
ATOM     39  O   UNL     1      33.119  14.265   0.170  0.00  0.00    -0.380 OA
ATOM     40  C   UNL     1      33.263  14.222  -1.244  0.00  0.00    +0.194 C 
ENDBRANCH  38  39
ENDBRANCH  32  38
ENDBRANCH  30  32
ENDBRANCH  26  28
ENDBRANCH  25  26
ENDBRANCH  24  25
ENDBRANCH   1  24
TORSDOF 14
