REMARK VINA RESULT:    -6.887      1.896      3.538
REMARK INTER + INTRA:         -13.552
REMARK INTER:                 -11.286
REMARK INTRA:                  -2.266
REMARK UNBOUND:                -1.431
REMARK  Name = lig_assembled_36.pdb
REMARK  13 active torsions:
REMARK  status: ('A' for Active; 'I' for Inactive)
REMARK    1  A    between atoms: _2  and  _9
REMARK    2  A    between atoms: _6  and  _7
REMARK    3  A    between atoms: _6  and  _16
REMARK    4  A    between atoms: _9  and  _10
REMARK    5  A    between atoms: _13  and  _14
REMARK    6  A    between atoms: _16  and  _18
REMARK    7  A    between atoms: _17  and  _22
REMARK    8  A    between atoms: _18  and  _21
REMARK    9  A    between atoms: _26  and  _36
REMARK   10  A    between atoms: _28  and  _29
REMARK   11  A    between atoms: _30  and  _32
REMARK   12  A    between atoms: _32  and  _34
REMARK   13  A    between atoms: _34  and  _36
REMARK                            x       y       z     vdW  Elec       q    Type
REMARK                         _______ _______ _______ _____ _____    ______ ____
ROOT
ATOM      1  C   UNL     1      28.511  14.189  -0.959  0.00  0.00    +0.400 C 
ATOM      2  N   UNL     1      29.736  13.583  -0.806  0.00  0.00    -0.278 N 
ATOM      3  H   UNL     1      29.510  12.710  -0.233  0.00  0.00    +0.152 HD
ATOM      4  O   UNL     1      27.510  13.568  -0.611  0.00  0.00    -0.226 OA
ENDROOT
BRANCH   1   5
ATOM      5  O   UNL     1      28.537  15.390  -1.435  0.00  0.00    -0.450 OA
BRANCH   5   6
ATOM      6  C   UNL     1      27.731  16.545  -1.465  0.00  0.00    +0.240 C 
BRANCH   6   7
ATOM      7  C   UNL     1      27.164  16.982  -2.829  0.00  0.00    +0.100 C 
BRANCH   7   9
ATOM      8  N   UNL     1      26.430  14.896  -3.946  0.00  0.00    -0.134 NA
ATOM      9  C   UNL     1      26.114  16.046  -3.270  0.00  0.00    +0.086 A 
ATOM     10  C   UNL     1      24.749  16.106  -3.095  0.00  0.00    +0.134 A 
ATOM     11  N   UNL     1      24.305  14.920  -3.601  0.00  0.00    -0.247 N 
ATOM     12  N   UNL     1      25.309  14.221  -4.162  0.00  0.00    -0.065 NA
BRANCH  11  13
ATOM     13  C   UNL     1      22.958  14.385  -3.570  0.00  0.00    +0.180 C 
BRANCH  13  14
ATOM     14  C   UNL     1      22.702  13.616  -2.294  0.00  0.00    -0.026 A 
ATOM     15  C   UNL     1      23.753  12.987  -1.609  0.00  0.00    +0.007 A 
ATOM     16  C   UNL     1      23.507  12.281  -0.426  0.00  0.00    +0.019 A 
ATOM     17  C   UNL     1      22.209  12.190   0.083  0.00  0.00    +0.052 A 
ATOM     18  C   UNL     1      21.153  12.792  -0.607  0.00  0.00    +0.019 A 
ATOM     19  C   UNL     1      21.398  13.497  -1.789  0.00  0.00    +0.007 A 
BRANCH  17  20
ATOM     20  C   UNL     1      21.962  11.483   1.308  0.00  0.00    +0.099 C 
ATOM     21  N   UNL     1      21.757  10.904   2.292  0.00  0.00    -0.191 NA
ENDBRANCH  17  20
ENDBRANCH  13  14
ENDBRANCH  11  13
ENDBRANCH   7   9
ENDBRANCH   6   7
ENDBRANCH   5   6
ENDBRANCH   1   5
BRANCH   2  22
ATOM     22  C   UNL     1      31.170  13.589  -1.082  0.00  0.00    +0.152 C 
BRANCH  22  23
ATOM     23  C   UNL     1      32.023  14.547  -0.225  0.00  0.00    +0.193 C 
ATOM     24  O   UNL     1      31.856  15.867  -0.788  0.00  0.00    -0.219 OA
BRANCH  23  25
ATOM     25  C   UNL     1      31.639  14.710   1.262  0.00  0.00    +0.212 C 
ATOM     26  O   UNL     1      30.560  15.649   1.401  0.00  0.00    -0.218 OA
BRANCH  25  27
ATOM     27  C   UNL     1      31.220  13.355   1.951  0.00  0.00    +0.171 C 
ATOM     28  O   UNL     1      29.816  13.261   2.165  0.00  0.00    -0.343 OA
ATOM     29  C   UNL     1      29.204  12.293   2.965  0.00  0.00    +0.220 C 
ATOM     30  C   UNL     1      29.856  12.206   4.356  0.00  0.00    +0.076 C 
ATOM     31  C   UNL     1      31.367  12.013   4.147  0.00  0.00    +0.177 C 
ATOM     32  O   UNL     1      32.015  11.887   5.405  0.00  0.00    -0.221 OA
ATOM     33  C   UNL     1      31.953  13.202   3.324  0.00  0.00    +0.155 C 
BRANCH  33  34
ATOM     34  N   UNL     1      33.390  13.026   3.129  0.00  0.00    -0.202 NA
ATOM     35  C   UNL     1      34.426  13.763   3.602  0.00  0.00    +0.242 C 
ATOM     36  C   UNL     1      35.817  13.192   3.497  0.00  0.00    +0.096 C 
ATOM     37  O   UNL     1      34.210  14.865   4.101  0.00  0.00    -0.273 OA
ENDBRANCH  33  34
BRANCH  29  38
ATOM     38  C   UNL     1      29.111  10.833   2.257  0.00  0.00    +0.391 C 
ATOM     39  O   UNL     1      28.545  10.034   3.183  0.00  0.00    -0.243 OA
ATOM     40  O   UNL     1      29.342  11.038   0.955  0.00  0.00    -0.243 OA
ENDBRANCH  29  38
ENDBRANCH  25  27
ENDBRANCH  23  25
ENDBRANCH  22  23
ENDBRANCH   2  22
TORSDOF 13
