REMARK VINA RESULT:    -5.586      3.485      9.350
REMARK INTER + INTRA:         -12.178
REMARK INTER:                 -10.542
REMARK INTRA:                  -1.636
REMARK UNBOUND:                -2.511
REMARK  Name = lig_assembled_1.pdb
REMARK  13 active torsions:
REMARK  status: ('A' for Active; 'I' for Inactive)
REMARK    1  A    between atoms: _2  and  _8
REMARK    2  A    between atoms: _4  and  _8
REMARK    3  A    between atoms: _4  and  _9
REMARK    4  A    between atoms: _5  and  _6
REMARK    5  A    between atoms: _5  and  _10
REMARK    6  A    between atoms: _10  and  _12
REMARK    7  A    between atoms: _11  and  _16
REMARK    8  A    between atoms: _12  and  _15
REMARK    9  A    between atoms: _20  and  _30
REMARK   10  A    between atoms: _22  and  _23
REMARK   11  A    between atoms: _24  and  _26
REMARK   12  A    between atoms: _26  and  _28
REMARK   13  A    between atoms: _28  and  _30
REMARK                            x       y       z     vdW  Elec       q    Type
REMARK                         _______ _______ _______ _____ _____    ______ ____
ROOT
ATOM      1  C   UNL     1      25.698  15.583  -3.346  0.00  0.00    +0.193 C 
ATOM      2  O   UNL     1      25.958  16.164  -4.643  0.00  0.00    -0.219 OA
ENDROOT
BRANCH   1   3
ATOM      3  C   UNL     1      24.965  14.259  -3.656  0.00  0.00    +0.212 C 
ATOM      4  O   UNL     1      25.883  13.290  -4.187  0.00  0.00    -0.218 OA
BRANCH   3   5
ATOM      5  C   UNL     1      24.244  13.636  -2.401  0.00  0.00    +0.171 C 
ATOM      6  O   UNL     1      24.768  12.360  -2.046  0.00  0.00    -0.343 OA
ATOM      7  C   UNL     1      24.164  11.485  -1.140  0.00  0.00    +0.220 C 
ATOM      8  C   UNL     1      22.677  11.262  -1.466  0.00  0.00    +0.076 C 
ATOM      9  C   UNL     1      22.014  12.645  -1.569  0.00  0.00    +0.177 C 
ATOM     10  O   UNL     1      20.626  12.495  -1.831  0.00  0.00    -0.221 OA
ATOM     11  C   UNL     1      22.711  13.494  -2.677  0.00  0.00    +0.155 C 
BRANCH  11  12
ATOM     12  N   UNL     1      22.079  14.807  -2.783  0.00  0.00    -0.202 NA
ATOM     13  C   UNL     1      21.530  15.421  -3.861  0.00  0.00    +0.242 C 
ATOM     14  C   UNL     1      20.684  16.647  -3.633  0.00  0.00    +0.096 C 
ATOM     15  O   UNL     1      21.732  14.969  -4.987  0.00  0.00    -0.273 OA
ENDBRANCH  11  12
BRANCH   7  16
ATOM     16  C   UNL     1      24.378  11.912   0.413  0.00  0.00    +0.391 C 
ATOM     17  O   UNL     1      23.368  11.319   1.078  0.00  0.00    -0.243 OA
ATOM     18  O   UNL     1      25.612  12.424   0.489  0.00  0.00    -0.243 OA
ENDBRANCH   7  16
ENDBRANCH   3   5
ENDBRANCH   1   3
BRANCH   1  19
ATOM     19  C   UNL     1      27.056  15.494  -2.620  0.00  0.00    +0.152 C 
BRANCH  19  21
ATOM     20  C   UNL     1      28.223  17.141  -0.783  0.00  0.00    +0.400 C 
ATOM     21  N   UNL     1      27.325  16.532  -1.628  0.00  0.00    -0.278 N 
ATOM     22  H   UNL     1      26.429  17.098  -1.485  0.00  0.00    +0.152 HD
ATOM     23  O   UNL     1      27.895  18.200  -0.255  0.00  0.00    -0.226 OA
BRANCH  20  24
ATOM     24  O   UNL     1      29.336  16.509  -0.600  0.00  0.00    -0.450 OA
BRANCH  24  25
ATOM     25  C   UNL     1      30.531  16.641   0.133  0.00  0.00    +0.240 C 
BRANCH  25  26
ATOM     26  C   UNL     1      31.401  15.382   0.307  0.00  0.00    +0.100 C 
BRANCH  26  28
ATOM     27  N   UNL     1      31.165  14.287   2.517  0.00  0.00    -0.134 NA
ATOM     28  C   UNL     1      30.746  14.426   1.220  0.00  0.00    +0.086 A 
ATOM     29  C   UNL     1      29.695  13.567   0.992  0.00  0.00    +0.133 A 
ATOM     30  N   UNL     1      29.528  12.930   2.185  0.00  0.00    -0.249 N 
ATOM     31  N   UNL     1      30.414  13.361   3.097  0.00  0.00    -0.065 NA
BRANCH  30  32
ATOM     32  C   UNL     1      28.551  11.920   2.526  0.00  0.00    +0.173 C 
BRANCH  32  33
ATOM     33  C   UNL     1      27.725  12.291   3.751  0.00  0.00    +0.179 C 
BRANCH  33  34
ATOM     34  O   UNL     1      27.525  13.702   3.829  0.00  0.00    -0.393 OA
ATOM     35  H   UNL     1      27.147  13.886   4.710  0.00  0.00    +0.209 HD
ENDBRANCH  33  34
ENDBRANCH  32  33
ENDBRANCH  30  32
ENDBRANCH  26  28
ENDBRANCH  25  26
ENDBRANCH  24  25
ENDBRANCH  20  24
ENDBRANCH  19  21
ENDBRANCH   1  19
TORSDOF 13
