REMARK VINA RESULT:    -6.638      2.519      4.323
REMARK INTER + INTRA:         -13.169
REMARK INTER:                 -11.738
REMARK INTRA:                  -1.431
REMARK UNBOUND:                -1.681
REMARK  Name = lig_assembled_59.pdb
REMARK  13 active torsions:
REMARK  status: ('A' for Active; 'I' for Inactive)
REMARK    1  A    between atoms: _2  and  _9
REMARK    2  A    between atoms: _6  and  _7
REMARK    3  A    between atoms: _6  and  _15
REMARK    4  A    between atoms: _12  and  _13
REMARK    5  A    between atoms: _13  and  _14
REMARK    6  A    between atoms: _15  and  _17
REMARK    7  A    between atoms: _16  and  _21
REMARK    8  A    between atoms: _17  and  _20
REMARK    9  A    between atoms: _25  and  _35
REMARK   10  A    between atoms: _27  and  _28
REMARK   11  A    between atoms: _29  and  _31
REMARK   12  A    between atoms: _31  and  _33
REMARK   13  A    between atoms: _33  and  _35
REMARK                            x       y       z     vdW  Elec       q    Type
REMARK                         _______ _______ _______ _____ _____    ______ ____
ROOT
ATOM      1  C   UNL     1      28.568  16.985  -0.489  0.00  0.00    +0.400 C 
ATOM      2  N   UNL     1      28.639  15.906   0.360  0.00  0.00    -0.278 N 
ATOM      3  H   UNL     1      29.160  16.293   1.209  0.00  0.00    +0.152 HD
ATOM      4  O   UNL     1      28.907  18.084  -0.058  0.00  0.00    -0.226 OA
ENDROOT
BRANCH   1   5
ATOM      5  O   UNL     1      28.173  16.726  -1.692  0.00  0.00    -0.450 OA
BRANCH   5   6
ATOM      6  C   UNL     1      27.011  16.307  -2.368  0.00  0.00    +0.240 C 
BRANCH   6   7
ATOM      7  C   UNL     1      26.838  14.796  -2.616  0.00  0.00    +0.100 C 
BRANCH   7   9
ATOM      8  N   UNL     1      25.112  13.262  -1.734  0.00  0.00    -0.134 NA
ATOM      9  C   UNL     1      25.430  14.403  -2.416  0.00  0.00    +0.087 A 
ATOM     10  C   UNL     1      24.272  15.021  -2.824  0.00  0.00    +0.141 A 
ATOM     11  N   UNL     1      23.258  14.211  -2.363  0.00  0.00    -0.202 N 
ATOM     12  N   UNL     1      23.791  13.152  -1.701  0.00  0.00    -0.059 NA
BRANCH  11  13
ATOM     13  C   UNL     1      21.860  14.396  -2.535  0.00  0.00    +0.156 A 
ATOM     14  C   UNL     1      20.982  13.785  -1.641  0.00  0.00    +0.048 A 
ATOM     15  C   UNL     1      19.610  13.935  -1.841  0.00  0.00    +0.011 A 
ATOM     16  C   UNL     1      19.140  14.693  -2.916  0.00  0.00    -0.004 A 
ATOM     17  C   UNL     1      20.091  15.266  -3.754  0.00  0.00    +0.119 A 
ATOM     18  N   UNL     1      21.430  15.145  -3.587  0.00  0.00    -0.236 NA
BRANCH  16  19
ATOM     19  C   UNL     1      17.671  14.791  -3.202  0.00  0.00    +0.192 C 
BRANCH  19  20
ATOM     20  O   UNL     1      17.411  15.684  -4.274  0.00  0.00    -0.390 OA
ATOM     21  H   UNL     1      18.257  16.103  -4.506  0.00  0.00    +0.210 HD
ENDBRANCH  19  20
ENDBRANCH  16  19
ENDBRANCH  11  13
ENDBRANCH   7   9
ENDBRANCH   6   7
ENDBRANCH   5   6
ENDBRANCH   1   5
BRANCH   2  22
ATOM     22  C   UNL     1      28.317  14.505   0.622  0.00  0.00    +0.152 C 
BRANCH  22  23
ATOM     23  C   UNL     1      28.649  13.984   2.035  0.00  0.00    +0.193 C 
ATOM     24  O   UNL     1      27.501  13.228   2.479  0.00  0.00    -0.219 OA
BRANCH  23  25
ATOM     25  C   UNL     1      29.834  13.004   2.176  0.00  0.00    +0.212 C 
ATOM     26  O   UNL     1      29.516  11.741   1.568  0.00  0.00    -0.218 OA
BRANCH  25  27
ATOM     27  C   UNL     1      31.171  13.545   1.540  0.00  0.00    +0.171 C 
ATOM     28  O   UNL     1      31.194  13.419   0.122  0.00  0.00    -0.343 OA
ATOM     29  C   UNL     1      32.335  13.590  -0.666  0.00  0.00    +0.220 C 
ATOM     30  C   UNL     1      33.520  12.760  -0.143  0.00  0.00    +0.076 C 
ATOM     31  C   UNL     1      33.703  13.103   1.345  0.00  0.00    +0.177 C 
ATOM     32  O   UNL     1      34.815  12.390   1.870  0.00  0.00    -0.221 OA
ATOM     33  C   UNL     1      32.398  12.780   2.136  0.00  0.00    +0.155 C 
BRANCH  33  34
ATOM     34  N   UNL     1      32.571  13.098   3.551  0.00  0.00    -0.202 NA
ATOM     35  C   UNL     1      32.584  12.274   4.630  0.00  0.00    +0.242 C 
ATOM     36  C   UNL     1      33.074  12.824   5.944  0.00  0.00    +0.096 C 
ATOM     37  O   UNL     1      32.201  11.112   4.512  0.00  0.00    -0.273 OA
ENDBRANCH  33  34
BRANCH  29  38
ATOM     38  C   UNL     1      32.745  15.148  -0.880  0.00  0.00    +0.391 C 
ATOM     39  O   UNL     1      33.914  15.110  -1.550  0.00  0.00    -0.243 OA
ATOM     40  O   UNL     1      31.651  15.862  -0.591  0.00  0.00    -0.243 OA
ENDBRANCH  29  38
ENDBRANCH  25  27
ENDBRANCH  23  25
ENDBRANCH  22  23
ENDBRANCH   2  22
TORSDOF 13
