MODEL 1
REMARK VINA RESULT:    -4.849      0.000      0.000
REMARK INTER + INTRA:         -13.814
REMARK INTER:                  -6.759
REMARK INTRA:                  -7.055
REMARK UNBOUND:                -6.414
REMARK  Name = lig_assembled.pdb
REMARK  9 active torsions:
REMARK  status: ('A' for Active; 'I' for Inactive)
REMARK    1  A    between atoms: _1  and  _4
REMARK    2  A    between atoms: _1  and  _11
REMARK    3  A    between atoms: _2  and  _8
REMARK    4  A    between atoms: _4  and  _7
REMARK    5  A    between atoms: _16  and  _26
REMARK    6  A    between atoms: _18  and  _19
REMARK    7  A    between atoms: _20  and  _22
REMARK    8  A    between atoms: _22  and  _24
REMARK    9  A    between atoms: _24  and  _26
REMARK                            x       y       z     vdW  Elec       q    Type
REMARK                         _______ _______ _______ _____ _____    ______ ____
ROOT
ATOM      1  C   UNL     1      30.934  33.093  16.155  0.00  0.00    +0.212 C 
ATOM      2  O   UNL     1      31.571  32.194  15.257  0.00  0.00    -0.218 OA
ENDROOT
BRANCH   1   3
ATOM      3  C   UNL     1      30.123  34.053  15.305  0.00  0.00    +0.171 C 
ATOM      4  O   UNL     1      29.286  33.246  14.448  0.00  0.00    -0.343 OA
ATOM      5  C   UNL     1      28.211  34.003  13.808  0.00  0.00    +0.220 C 
ATOM      6  C   UNL     1      28.858  35.061  12.886  0.00  0.00    +0.076 C 
ATOM      7  C   UNL     1      29.942  35.869  13.635  0.00  0.00    +0.177 C 
ATOM      8  O   UNL     1      30.676  36.655  12.706  0.00  0.00    -0.221 OA
ATOM      9  C   UNL     1      30.927  35.006  14.422  0.00  0.00    +0.155 C 
BRANCH   9  10
ATOM     10  N   UNL     1      31.731  35.898  15.270  0.00  0.00    -0.202 NA
ATOM     11  C   UNL     1      33.067  35.919  15.358  0.00  0.00    +0.242 C 
ATOM     12  C   UNL     1      33.817  34.911  14.507  0.00  0.00    +0.096 C 
ATOM     13  O   UNL     1      33.684  36.706  16.084  0.00  0.00    -0.273 OA
ENDBRANCH   9  10
BRANCH   5  14
ATOM     14  C   UNL     1      27.272  34.662  14.825  0.00  0.00    +0.391 C 
ATOM     15  O   UNL     1      26.818  35.791  14.608  0.00  0.00    -0.243 OA
ATOM     16  O   UNL     1      26.976  34.080  15.873  0.00  0.00    -0.243 OA
ENDBRANCH   5  14
ENDBRANCH   1   3
BRANCH   1  17
ATOM     17  C   UNL     1      30.016  32.343  17.148  0.00  0.00    +0.193 C 
ATOM     18  O   UNL     1      30.546  32.470  18.480  0.00  0.00    -0.219 OA
BRANCH  17  19
ATOM     19  C   UNL     1      29.881  30.874  16.787  0.00  0.00    +0.152 C 
BRANCH  19  21
ATOM     20  C   UNL     1      27.404  30.591  16.270  0.00  0.00    +0.401 C 
ATOM     21  N   UNL     1      28.795  30.706  15.810  0.00  0.00    -0.278 N 
ATOM     22  H   UNL     1      29.005  30.671  14.823  0.00  0.00    +0.152 HD
ATOM     23  O   UNL     1      26.505  30.454  15.475  0.00  0.00    -0.226 OA
BRANCH  20  24
ATOM     24  O   UNL     1      27.128  30.645  17.672  0.00  0.00    -0.444 OA
BRANCH  24  25
ATOM     25  C   UNL     1      26.566  29.400  18.097  0.00  0.00    +0.292 C 
BRANCH  25  26
ATOM     26  C   UNL     1      27.589  28.643  18.965  0.00  0.00    +0.120 A 
ATOM     27  C   UNL     1      27.655  27.318  19.140  0.00  0.00    +0.133 A 
ATOM     28  N   UNL     1      28.760  26.943  20.038  0.00  0.00    -0.265 N 
ATOM     29  H   UNL     1      29.049  26.027  20.349  0.00  0.00    +0.190 HD
ATOM     30  N   UNL     1      29.402  28.177  20.422  0.00  0.00    -0.068 NA
ATOM     31  N   UNL     1      28.675  29.241  19.755  0.00  0.00    -0.131 NA
ENDBRANCH  25  26
ENDBRANCH  24  25
ENDBRANCH  20  24
ENDBRANCH  19  21
ENDBRANCH  17  19
ENDBRANCH   1  17
TORSDOF 9
BEGIN_RES LYS A 135
REMARK  4 active torsions:
REMARK  status: ('A' for Active; 'I' for Inactive)
REMARK    1  A    between atoms: CA   and  CB  
REMARK    2  A    between atoms: CB   and  CG  
REMARK    3  A    between atoms: CG   and  CD  
REMARK    4  A    between atoms: CD   and  CE  
ROOT
ATOM      1  CA  LYS A 135      33.193  34.663   9.290  1.00 25.02     0.186 C 
ENDROOT
BRANCH   1   2
ATOM      2  CB  LYS A 135      32.060  35.360  10.034  1.00 26.63     0.034 C 
BRANCH   2   3
ATOM      3  CG  LYS A 135      30.813  35.535   9.206  1.00 29.45     0.005 C 
BRANCH   3   4
ATOM      4  CD  LYS A 135      30.075  34.213   9.063  1.00 32.00     0.041 C 
BRANCH   4   5
ATOM      5  CE  LYS A 135      28.589  34.451   8.870  1.00 34.25     0.338 C 
ATOM      6  NZ  LYS A 135      27.784  33.553   9.744  1.00 35.99     0.618 N 
ENDBRANCH   4   5
ENDBRANCH   3   4
ENDBRANCH   2   3
ENDBRANCH   1   2
END_RES LYS A 135
BEGIN_RES ARG A 124
REMARK  4 active torsions:
REMARK  status: ('A' for Active; 'I' for Inactive)
REMARK    5  A    between atoms: CA   and  CB  
REMARK    6  A    between atoms: CB   and  CG  
REMARK    7  A    between atoms: CG   and  CD  
REMARK    8  A    between atoms: CD   and  NE  
REMARK       I    between atoms: NE   and  CZ  
ROOT
ATOM      7  CA  ARG A 124      31.045  26.515   9.594  1.00 17.84     0.186 C 
ENDROOT
BRANCH   7   8
ATOM      8  CB  ARG A 124      29.529  26.705   9.647  1.00 16.18     0.036 C 
BRANCH   8   9
ATOM      9  CG  ARG A 124      28.923  26.931  11.078  1.00 16.22     0.029 C 
BRANCH   9  10
ATOM     10  CD  ARG A 124      27.606  26.152  11.302  1.00 15.09     0.145 C 
BRANCH  10  11
ATOM     11  NE  ARG A 124      26.423  27.019  11.490  1.00 16.98    -0.083 NA
ATOM     12  CZ  ARG A 124      26.063  27.575  12.642  1.00 18.21     0.782 C 
ATOM     13  NH1 ARG A 124      26.776  27.394  13.747  1.00 21.11     0.063 N 
ATOM     14  NH2 ARG A 124      24.988  28.346  12.697  1.00 21.25     0.063 N 
ENDBRANCH  10  11
ENDBRANCH   9  10
ENDBRANCH   8   9
ENDBRANCH   7   8
END_RES ARG A 124
BEGIN_RES ASN A 133
REMARK  2 active torsions:
REMARK  status: ('A' for Active; 'I' for Inactive)
REMARK    9  A    between atoms: CA   and  CB  
REMARK   10  A    between atoms: CB   and  CG  
ROOT
ATOM     15  CA  ASN A 133      31.225  30.257  11.749  1.00 18.15     0.196 C 
ENDROOT
BRANCH  15  16
ATOM     16  CB  ASN A 133      30.092  31.240  11.460  1.00 18.27     0.126 C 
BRANCH  16  17
ATOM     17  CG  ASN A 133      28.731  30.641  11.632  1.00 18.94     0.276 C 
ATOM     18  OD1 ASN A 133      28.109  30.762  12.690  1.00 18.09    -0.269 OA
ATOM     19  ND2 ASN A 133      28.248  29.979  10.582  1.00 18.93    -0.107 N 
ENDBRANCH  16  17
ENDBRANCH  15  16
END_RES ASN A 133
BEGIN_RES LYS A 131
REMARK  4 active torsions:
REMARK  status: ('A' for Active; 'I' for Inactive)
REMARK   11  A    between atoms: CA   and  CB  
REMARK   12  A    between atoms: CB   and  CG  
REMARK   13  A    between atoms: CG   and  CD  
REMARK   14  A    between atoms: CD   and  CE  
ROOT
ATOM     20  CA  LYS A 131      29.867  25.555  16.977  1.00 20.52     0.186 C 
ENDROOT
BRANCH  20  21
ATOM     21  CB  LYS A 131      28.345  25.722  17.026  1.00 20.94     0.034 C 
BRANCH  21  22
ATOM     22  CG  LYS A 131      27.600  24.416  16.799  1.00 22.96     0.005 C 
BRANCH  22  23
ATOM     23  CD  LYS A 131      26.147  24.520  17.173  1.00 24.33     0.041 C 
BRANCH  23  24
ATOM     24  CE  LYS A 131      25.631  23.149  17.598  1.00 26.91     0.338 C 
ATOM     25  NZ  LYS A 131      24.150  23.145  17.649  1.00 27.40     0.618 N 
ENDBRANCH  23  24
ENDBRANCH  22  23
ENDBRANCH  21  22
ENDBRANCH  20  21
END_RES LYS A 131
ENDMDL
MODEL 2
REMARK VINA RESULT:    -4.788      1.320      2.908
REMARK INTER + INTRA:         -13.722
REMARK INTER:                  -6.600
REMARK INTRA:                  -7.122
REMARK UNBOUND:                -6.414
REMARK  Name = lig_assembled.pdb
REMARK  9 active torsions:
REMARK  status: ('A' for Active; 'I' for Inactive)
REMARK    1  A    between atoms: _1  and  _4
REMARK    2  A    between atoms: _1  and  _11
REMARK    3  A    between atoms: _2  and  _8
REMARK    4  A    between atoms: _4  and  _7
REMARK    5  A    between atoms: _16  and  _26
REMARK    6  A    between atoms: _18  and  _19
REMARK    7  A    between atoms: _20  and  _22
REMARK    8  A    between atoms: _22  and  _24
REMARK    9  A    between atoms: _24  and  _26
REMARK                            x       y       z     vdW  Elec       q    Type
REMARK                         _______ _______ _______ _____ _____    ______ ____
ROOT
ATOM      1  C   UNL     1      30.604  33.762  16.918  0.00  0.00    +0.212 C 
ATOM      2  O   UNL     1      31.405  34.401  17.903  0.00  0.00    -0.218 OA
ENDROOT
BRANCH   1   3
ATOM      3  C   UNL     1      30.735  34.584  15.650  0.00  0.00    +0.171 C 
ATOM      4  O   UNL     1      31.666  35.649  15.939  0.00  0.00    -0.343 OA
ATOM      5  C   UNL     1      32.158  36.330  14.741  0.00  0.00    +0.220 C 
ATOM      6  C   UNL     1      30.952  37.004  14.049  0.00  0.00    +0.076 C 
ATOM      7  C   UNL     1      29.782  36.009  13.866  0.00  0.00    +0.177 C 
ATOM      8  O   UNL     1      28.619  36.712  13.454  0.00  0.00    -0.221 OA
ATOM      9  C   UNL     1      29.445  35.211  15.125  0.00  0.00    +0.155 C 
BRANCH   9  10
ATOM     10  N   UNL     1      28.503  34.147  14.745  0.00  0.00    -0.202 NA
ATOM     11  C   UNL     1      27.319  33.893  15.316  0.00  0.00    +0.242 C 
ATOM     12  C   UNL     1      26.924  34.786  16.478  0.00  0.00    +0.096 C 
ATOM     13  O   UNL     1      26.567  32.988  14.939  0.00  0.00    -0.273 OA
ENDBRANCH   9  10
BRANCH   5  14
ATOM     14  C   UNL     1      32.881  35.379  13.781  0.00  0.00    +0.391 C 
ATOM     15  O   UNL     1      32.591  35.373  12.580  0.00  0.00    -0.243 OA
ATOM     16  O   UNL     1      33.745  34.602  14.201  0.00  0.00    -0.243 OA
ENDBRANCH   5  14
ENDBRANCH   1   3
BRANCH   1  17
ATOM     17  C   UNL     1      31.069  32.308  16.670  0.00  0.00    +0.193 C 
ATOM     18  O   UNL     1      31.062  32.037  15.256  0.00  0.00    -0.219 OA
BRANCH  17  19
ATOM     19  C   UNL     1      30.183  31.305  17.390  0.00  0.00    +0.152 C 
BRANCH  19  21
ATOM     20  C   UNL     1      27.985  30.289  16.604  0.00  0.00    +0.401 C 
ATOM     21  N   UNL     1      29.422  30.526  16.403  0.00  0.00    -0.278 N 
ATOM     22  H   UNL     1      29.886  30.154  15.587  0.00  0.00    +0.152 HD
ATOM     23  O   UNL     1      27.351  29.650  15.798  0.00  0.00    -0.226 OA
BRANCH  20  24
ATOM     24  O   UNL     1      27.347  30.825  17.766  0.00  0.00    -0.444 OA
BRANCH  24  25
ATOM     25  C   UNL     1      26.612  29.792  18.427  0.00  0.00    +0.292 C 
BRANCH  25  26
ATOM     26  C   UNL     1      27.591  28.842  19.142  0.00  0.00    +0.120 A 
ATOM     27  C   UNL     1      27.614  27.507  19.046  0.00  0.00    +0.133 A 
ATOM     28  N   UNL     1      28.686  26.922  19.869  0.00  0.00    -0.265 N 
ATOM     29  H   UNL     1      28.940  25.952  19.993  0.00  0.00    +0.190 HD
ATOM     30  N   UNL     1      29.354  28.031  20.507  0.00  0.00    -0.068 NA
ATOM     31  N   UNL     1      28.674  29.231  20.057  0.00  0.00    -0.131 NA
ENDBRANCH  25  26
ENDBRANCH  24  25
ENDBRANCH  20  24
ENDBRANCH  19  21
ENDBRANCH  17  19
ENDBRANCH   1  17
TORSDOF 9
BEGIN_RES LYS A 135
REMARK  4 active torsions:
REMARK  status: ('A' for Active; 'I' for Inactive)
REMARK    1  A    between atoms: CA   and  CB  
REMARK    2  A    between atoms: CB   and  CG  
REMARK    3  A    between atoms: CG   and  CD  
REMARK    4  A    between atoms: CD   and  CE  
ROOT
ATOM      1  CA  LYS A 135      33.193  34.663   9.290  1.00 25.02     0.186 C 
ENDROOT
BRANCH   1   2
ATOM      2  CB  LYS A 135      32.060  35.360  10.034  1.00 26.63     0.034 C 
BRANCH   2   3
ATOM      3  CG  LYS A 135      30.820  35.554   9.199  1.00 29.45     0.005 C 
BRANCH   3   4
ATOM      4  CD  LYS A 135      30.248  34.212   8.769  1.00 32.00     0.041 C 
BRANCH   4   5
ATOM      5  CE  LYS A 135      28.738  34.206   8.913  1.00 34.25     0.338 C 
ATOM      6  NZ  LYS A 135      28.091  34.955   7.800  1.00 35.99     0.618 N 
ENDBRANCH   4   5
ENDBRANCH   3   4
ENDBRANCH   2   3
ENDBRANCH   1   2
END_RES LYS A 135
BEGIN_RES ARG A 124
REMARK  4 active torsions:
REMARK  status: ('A' for Active; 'I' for Inactive)
REMARK    5  A    between atoms: CA   and  CB  
REMARK    6  A    between atoms: CB   and  CG  
REMARK    7  A    between atoms: CG   and  CD  
REMARK    8  A    between atoms: CD   and  NE  
REMARK       I    between atoms: NE   and  CZ  
ROOT
ATOM      7  CA  ARG A 124      31.045  26.515   9.594  1.00 17.84     0.186 C 
ENDROOT
BRANCH   7   8
ATOM      8  CB  ARG A 124      29.529  26.705   9.647  1.00 16.18     0.036 C 
BRANCH   8   9
ATOM      9  CG  ARG A 124      28.920  26.910  11.080  1.00 16.22     0.029 C 
BRANCH   9  10
ATOM     10  CD  ARG A 124      27.554  26.208  11.258  1.00 15.09     0.145 C 
BRANCH  10  11
ATOM     11  NE  ARG A 124      26.432  27.138  11.509  1.00 16.98    -0.083 NA
ATOM     12  CZ  ARG A 124      26.025  27.531  12.711  1.00 18.21     0.782 C 
ATOM     13  NH1 ARG A 124      26.628  27.109  13.816  1.00 21.11     0.063 N 
ATOM     14  NH2 ARG A 124      25.013  28.378  12.822  1.00 21.25     0.063 N 
ENDBRANCH  10  11
ENDBRANCH   9  10
ENDBRANCH   8   9
ENDBRANCH   7   8
END_RES ARG A 124
BEGIN_RES ASN A 133
REMARK  2 active torsions:
REMARK  status: ('A' for Active; 'I' for Inactive)
REMARK    9  A    between atoms: CA   and  CB  
REMARK   10  A    between atoms: CB   and  CG  
ROOT
ATOM     15  CA  ASN A 133      31.225  30.257  11.749  1.00 18.15     0.196 C 
ENDROOT
BRANCH  15  16
ATOM     16  CB  ASN A 133      30.092  31.240  11.460  1.00 18.27     0.126 C 
BRANCH  16  17
ATOM     17  CG  ASN A 133      28.732  30.622  11.561  1.00 18.94     0.276 C 
ATOM     18  OD1 ASN A 133      28.278  29.925  10.652  1.00 18.09    -0.269 OA
ATOM     19  ND2 ASN A 133      28.059  30.875  12.683  1.00 18.93    -0.107 N 
ENDBRANCH  16  17
ENDBRANCH  15  16
END_RES ASN A 133
BEGIN_RES LYS A 131
REMARK  4 active torsions:
REMARK  status: ('A' for Active; 'I' for Inactive)
REMARK   11  A    between atoms: CA   and  CB  
REMARK   12  A    between atoms: CB   and  CG  
REMARK   13  A    between atoms: CG   and  CD  
REMARK   14  A    between atoms: CD   and  CE  
ROOT
ATOM     20  CA  LYS A 131      29.867  25.555  16.977  1.00 20.52     0.186 C 
ENDROOT
BRANCH  20  21
ATOM     21  CB  LYS A 131      28.345  25.722  17.026  1.00 20.94     0.034 C 
BRANCH  21  22
ATOM     22  CG  LYS A 131      27.601  24.401  16.898  1.00 22.96     0.005 C 
BRANCH  22  23
ATOM     23  CD  LYS A 131      26.148  24.532  17.261  1.00 24.33     0.041 C 
BRANCH  23  24
ATOM     24  CE  LYS A 131      25.769  23.432  18.248  1.00 26.91     0.338 C 
ATOM     25  NZ  LYS A 131      25.088  22.319  17.546  1.00 27.40     0.618 N 
ENDBRANCH  23  24
ENDBRANCH  22  23
ENDBRANCH  21  22
ENDBRANCH  20  21
END_RES LYS A 131
ENDMDL
MODEL 3
REMARK VINA RESULT:    -4.747      1.482      2.607
REMARK INTER + INTRA:         -13.658
REMARK INTER:                  -6.390
REMARK INTRA:                  -7.269
REMARK UNBOUND:                -6.414
REMARK  Name = lig_assembled.pdb
REMARK  9 active torsions:
REMARK  status: ('A' for Active; 'I' for Inactive)
REMARK    1  A    between atoms: _1  and  _4
REMARK    2  A    between atoms: _1  and  _11
REMARK    3  A    between atoms: _2  and  _8
REMARK    4  A    between atoms: _4  and  _7
REMARK    5  A    between atoms: _16  and  _26
REMARK    6  A    between atoms: _18  and  _19
REMARK    7  A    between atoms: _20  and  _22
REMARK    8  A    between atoms: _22  and  _24
REMARK    9  A    between atoms: _24  and  _26
REMARK                            x       y       z     vdW  Elec       q    Type
REMARK                         _______ _______ _______ _____ _____    ______ ____
ROOT
ATOM      1  C   UNL     1      28.587  34.235  14.150  0.00  0.00    +0.212 C 
ATOM      2  O   UNL     1      28.085  34.244  12.820  0.00  0.00    -0.218 OA
ENDROOT
BRANCH   1   3
ATOM      3  C   UNL     1      29.581  35.377  14.246  0.00  0.00    +0.171 C 
ATOM      4  O   UNL     1      29.724  35.918  12.915  0.00  0.00    -0.343 OA
ATOM      5  C   UNL     1      30.383  37.224  12.888  0.00  0.00    +0.220 C 
ATOM      6  C   UNL     1      31.821  37.042  13.423  0.00  0.00    +0.076 C 
ATOM      7  C   UNL     1      31.826  36.276  14.767  0.00  0.00    +0.177 C 
ATOM      8  O   UNL     1      33.159  35.917  15.104  0.00  0.00    -0.221 OA
ATOM      9  C   UNL     1      30.972  35.009  14.762  0.00  0.00    +0.155 C 
BRANCH   9  10
ATOM     10  N   UNL     1      30.869  34.530  16.148  0.00  0.00    -0.202 NA
ATOM     11  C   UNL     1      31.074  33.276  16.572  0.00  0.00    +0.242 C 
ATOM     12  C   UNL     1      31.433  32.254  15.509  0.00  0.00    +0.096 C 
ATOM     13  O   UNL     1      30.983  32.940  17.758  0.00  0.00    -0.273 OA
ENDBRANCH   9  10
BRANCH   5  14
ATOM     14  C   UNL     1      29.624  38.281  13.699  0.00  0.00    +0.391 C 
ATOM     15  O   UNL     1      30.245  39.078  14.410  0.00  0.00    -0.243 OA
ATOM     16  O   UNL     1      28.391  38.331  13.663  0.00  0.00    -0.243 OA
ENDBRANCH   5  14
ENDBRANCH   1   3
BRANCH   1  17
ATOM     17  C   UNL     1      27.451  34.419  15.183  0.00  0.00    +0.193 C 
ATOM     18  O   UNL     1      27.625  35.673  15.869  0.00  0.00    -0.219 OA
BRANCH  17  19
ATOM     19  C   UNL     1      27.420  33.283  16.191  0.00  0.00    +0.152 C 
BRANCH  19  21
ATOM     20  C   UNL     1      28.176  30.854  16.316  0.00  0.00    +0.401 C 
ATOM     21  N   UNL     1      27.775  32.023  15.521  0.00  0.00    -0.278 N 
ATOM     22  H   UNL     1      27.742  31.960  14.513  0.00  0.00    +0.152 HD
ATOM     23  O   UNL     1      28.468  29.815  15.774  0.00  0.00    -0.226 OA
BRANCH  20  24
ATOM     24  O   UNL     1      28.215  30.963  17.742  0.00  0.00    -0.444 OA
BRANCH  24  25
ATOM     25  C   UNL     1      27.167  30.174  18.310  0.00  0.00    +0.292 C 
BRANCH  25  26
ATOM     26  C   UNL     1      27.772  28.942  19.009  0.00  0.00    +0.120 A 
ATOM     27  C   UNL     1      27.500  27.661  18.735  0.00  0.00    +0.133 A 
ATOM     28  N   UNL     1      28.261  26.746  19.602  0.00  0.00    -0.265 N 
ATOM     29  H   UNL     1      28.261  25.736  19.624  0.00  0.00    +0.190 HD
ATOM     30  N   UNL     1      29.058  27.582  20.468  0.00  0.00    -0.068 NA
ATOM     31  N   UNL     1      28.755  28.953  20.102  0.00  0.00    -0.131 NA
ENDBRANCH  25  26
ENDBRANCH  24  25
ENDBRANCH  20  24
ENDBRANCH  19  21
ENDBRANCH  17  19
ENDBRANCH   1  17
TORSDOF 9
BEGIN_RES LYS A 135
REMARK  4 active torsions:
REMARK  status: ('A' for Active; 'I' for Inactive)
REMARK    1  A    between atoms: CA   and  CB  
REMARK    2  A    between atoms: CB   and  CG  
REMARK    3  A    between atoms: CG   and  CD  
REMARK    4  A    between atoms: CD   and  CE  
ROOT
ATOM      1  CA  LYS A 135      33.193  34.663   9.290  1.00 25.02     0.186 C 
ENDROOT
BRANCH   1   2
ATOM      2  CB  LYS A 135      32.060  35.360  10.034  1.00 26.63     0.034 C 
BRANCH   2   3
ATOM      3  CG  LYS A 135      30.710  34.733   9.800  1.00 29.45     0.005 C 
BRANCH   3   4
ATOM      4  CD  LYS A 135      30.462  34.531   8.313  1.00 32.00     0.041 C 
BRANCH   4   5
ATOM      5  CE  LYS A 135      29.018  34.839   7.967  1.00 34.25     0.338 C 
ATOM      6  NZ  LYS A 135      28.916  35.514   6.643  1.00 35.99     0.618 N 
ENDBRANCH   4   5
ENDBRANCH   3   4
ENDBRANCH   2   3
ENDBRANCH   1   2
END_RES LYS A 135
BEGIN_RES ARG A 124
REMARK  4 active torsions:
REMARK  status: ('A' for Active; 'I' for Inactive)
REMARK    5  A    between atoms: CA   and  CB  
REMARK    6  A    between atoms: CB   and  CG  
REMARK    7  A    between atoms: CG   and  CD  
REMARK    8  A    between atoms: CD   and  NE  
REMARK       I    between atoms: NE   and  CZ  
ROOT
ATOM      7  CA  ARG A 124      31.045  26.515   9.594  1.00 17.84     0.186 C 
ENDROOT
BRANCH   7   8
ATOM      8  CB  ARG A 124      29.529  26.705   9.647  1.00 16.18     0.036 C 
BRANCH   8   9
ATOM      9  CG  ARG A 124      28.916  26.875  11.083  1.00 16.22     0.029 C 
BRANCH   9  10
ATOM     10  CD  ARG A 124      27.568  26.137  11.251  1.00 15.09     0.145 C 
BRANCH  10  11
ATOM     11  NE  ARG A 124      26.417  27.039  11.477  1.00 16.98    -0.083 NA
ATOM     12  CZ  ARG A 124      26.039  27.506  12.663  1.00 18.21     0.782 C 
ATOM     13  NH1 ARG A 124      26.701  27.194  13.770  1.00 21.11     0.063 N 
ATOM     14  NH2 ARG A 124      24.998  28.318  12.752  1.00 21.25     0.063 N 
ENDBRANCH  10  11
ENDBRANCH   9  10
ENDBRANCH   8   9
ENDBRANCH   7   8
END_RES ARG A 124
BEGIN_RES ASN A 133
REMARK  2 active torsions:
REMARK  status: ('A' for Active; 'I' for Inactive)
REMARK    9  A    between atoms: CA   and  CB  
REMARK   10  A    between atoms: CB   and  CG  
ROOT
ATOM     15  CA  ASN A 133      31.225  30.257  11.749  1.00 18.15     0.196 C 
ENDROOT
BRANCH  15  16
ATOM     16  CB  ASN A 133      30.092  31.240  11.460  1.00 18.27     0.126 C 
BRANCH  16  17
ATOM     17  CG  ASN A 133      28.748  30.586  11.377  1.00 18.94     0.276 C 
ATOM     18  OD1 ASN A 133      28.432  29.897  10.405  1.00 18.09    -0.269 OA
ATOM     19  ND2 ASN A 133      27.932  30.798  12.409  1.00 18.93    -0.107 N 
ENDBRANCH  16  17
ENDBRANCH  15  16
END_RES ASN A 133
BEGIN_RES LYS A 131
REMARK  4 active torsions:
REMARK  status: ('A' for Active; 'I' for Inactive)
REMARK   11  A    between atoms: CA   and  CB  
REMARK   12  A    between atoms: CB   and  CG  
REMARK   13  A    between atoms: CG   and  CD  
REMARK   14  A    between atoms: CD   and  CE  
ROOT
ATOM     20  CA  LYS A 131      29.867  25.555  16.977  1.00 20.52     0.186 C 
ENDROOT
BRANCH  20  21
ATOM     21  CB  LYS A 131      28.345  25.722  17.026  1.00 20.94     0.034 C 
BRANCH  21  22
ATOM     22  CG  LYS A 131      27.599  24.451  16.652  1.00 22.96     0.005 C 
BRANCH  22  23
ATOM     23  CD  LYS A 131      27.075  23.725  17.860  1.00 24.33     0.041 C 
BRANCH  23  24
ATOM     24  CE  LYS A 131      25.716  24.299  18.249  1.00 26.91     0.338 C 
ATOM     25  NZ  LYS A 131      24.882  24.520  17.044  1.00 27.40     0.618 N 
ENDBRANCH  23  24
ENDBRANCH  22  23
ENDBRANCH  21  22
ENDBRANCH  20  21
END_RES LYS A 131
ENDMDL
MODEL 4
REMARK VINA RESULT:    -4.710      2.080      5.356
REMARK INTER + INTRA:         -13.602
REMARK INTER:                  -6.236
REMARK INTRA:                  -7.366
REMARK UNBOUND:                -6.414
REMARK  Name = lig_assembled.pdb
REMARK  9 active torsions:
REMARK  status: ('A' for Active; 'I' for Inactive)
REMARK    1  A    between atoms: _1  and  _4
REMARK    2  A    between atoms: _1  and  _11
REMARK    3  A    between atoms: _2  and  _8
REMARK    4  A    between atoms: _4  and  _7
REMARK    5  A    between atoms: _16  and  _26
REMARK    6  A    between atoms: _18  and  _19
REMARK    7  A    between atoms: _20  and  _22
REMARK    8  A    between atoms: _22  and  _24
REMARK    9  A    between atoms: _24  and  _26
REMARK                            x       y       z     vdW  Elec       q    Type
REMARK                         _______ _______ _______ _____ _____    ______ ____
ROOT
ATOM      1  C   UNL     1      30.027  32.296  17.786  0.00  0.00    +0.212 C 
ATOM      2  O   UNL     1      29.230  33.471  17.724  0.00  0.00    -0.218 OA
ENDROOT
BRANCH   1   3
ATOM      3  C   UNL     1      29.094  31.158  18.152  0.00  0.00    +0.171 C 
ATOM      4  O   UNL     1      27.748  31.637  17.943  0.00  0.00    -0.343 OA
ATOM      5  C   UNL     1      26.748  30.570  17.929  0.00  0.00    +0.220 C 
ATOM      6  C   UNL     1      26.743  29.905  19.323  0.00  0.00    +0.076 C 
ATOM      7  C   UNL     1      28.174  29.526  19.769  0.00  0.00    +0.177 C 
ATOM      8  O   UNL     1      28.161  29.145  21.138  0.00  0.00    -0.221 OA
ATOM      9  C   UNL     1      29.197  30.646  19.589  0.00  0.00    +0.155 C 
BRANCH   9  10
ATOM     10  N   UNL     1      30.534  30.076  19.810  0.00  0.00    -0.202 NA
ATOM     11  C   UNL     1      31.374  30.384  20.807  0.00  0.00    +0.242 C 
ATOM     12  C   UNL     1      30.897  31.436  21.792  0.00  0.00    +0.096 C 
ATOM     13  O   UNL     1      32.483  29.856  20.944  0.00  0.00    -0.273 OA
ENDBRANCH   9  10
BRANCH   5  14
ATOM     14  C   UNL     1      27.009  29.536  16.828  0.00  0.00    +0.391 C 
ATOM     15  O   UNL     1      27.201  28.352  17.124  0.00  0.00    -0.243 OA
ATOM     16  O   UNL     1      27.048  29.879  15.642  0.00  0.00    -0.243 OA
ENDBRANCH   5  14
ENDBRANCH   1   3
BRANCH   1  17
ATOM     17  C   UNL     1      30.719  32.013  16.432  0.00  0.00    +0.193 C 
ATOM     18  O   UNL     1      31.768  32.975  16.219  0.00  0.00    -0.219 OA
BRANCH  17  19
ATOM     19  C   UNL     1      29.733  32.062  15.277  0.00  0.00    +0.152 C 
BRANCH  19  21
ATOM     20  C   UNL     1      29.887  33.956  13.582  0.00  0.00    +0.401 C 
ATOM     21  N   UNL     1      30.379  32.674  14.107  0.00  0.00    -0.278 N 
ATOM     22  H   UNL     1      31.162  32.214  13.664  0.00  0.00    +0.152 HD
ATOM     23  O   UNL     1      30.412  34.466  12.621  0.00  0.00    -0.226 OA
BRANCH  20  24
ATOM     24  O   UNL     1      28.778  34.591  14.224  0.00  0.00    -0.444 OA
BRANCH  24  25
ATOM     25  C   UNL     1      27.707  34.743  13.288  0.00  0.00    +0.292 C 
BRANCH  25  26
ATOM     26  C   UNL     1      26.585  33.743  13.626  0.00  0.00    +0.120 A 
ATOM     27  C   UNL     1      26.361  33.173  14.815  0.00  0.00    +0.133 A 
ATOM     28  N   UNL     1      25.201  32.267  14.775  0.00  0.00    -0.265 N 
ATOM     29  H   UNL     1      24.800  31.707  15.513  0.00  0.00    +0.190 HD
ATOM     30  N   UNL     1      24.699  32.318  13.422  0.00  0.00    -0.068 NA
ATOM     31  N   UNL     1      25.559  33.237  12.702  0.00  0.00    -0.131 NA
ENDBRANCH  25  26
ENDBRANCH  24  25
ENDBRANCH  20  24
ENDBRANCH  19  21
ENDBRANCH  17  19
ENDBRANCH   1  17
TORSDOF 9
BEGIN_RES LYS A 135
REMARK  4 active torsions:
REMARK  status: ('A' for Active; 'I' for Inactive)
REMARK    1  A    between atoms: CA   and  CB  
REMARK    2  A    between atoms: CB   and  CG  
REMARK    3  A    between atoms: CG   and  CD  
REMARK    4  A    between atoms: CD   and  CE  
ROOT
ATOM      1  CA  LYS A 135      33.193  34.663   9.290  1.00 25.02     0.186 C 
ENDROOT
BRANCH   1   2
ATOM      2  CB  LYS A 135      32.060  35.360  10.034  1.00 26.63     0.034 C 
BRANCH   2   3
ATOM      3  CG  LYS A 135      30.808  35.521   9.211  1.00 29.45     0.005 C 
BRANCH   3   4
ATOM      4  CD  LYS A 135      30.168  34.169   8.937  1.00 32.00     0.041 C 
BRANCH   4   5
ATOM      5  CE  LYS A 135      28.681  34.325   8.684  1.00 34.25     0.338 C 
ATOM      6  NZ  LYS A 135      27.882  33.692   9.770  1.00 35.99     0.618 N 
ENDBRANCH   4   5
ENDBRANCH   3   4
ENDBRANCH   2   3
ENDBRANCH   1   2
END_RES LYS A 135
BEGIN_RES ARG A 124
REMARK  4 active torsions:
REMARK  status: ('A' for Active; 'I' for Inactive)
REMARK    5  A    between atoms: CA   and  CB  
REMARK    6  A    between atoms: CB   and  CG  
REMARK    7  A    between atoms: CG   and  CD  
REMARK    8  A    between atoms: CD   and  NE  
REMARK       I    between atoms: NE   and  CZ  
ROOT
ATOM      7  CA  ARG A 124      31.045  26.515   9.594  1.00 17.84     0.186 C 
ENDROOT
BRANCH   7   8
ATOM      8  CB  ARG A 124      29.529  26.705   9.647  1.00 16.18     0.036 C 
BRANCH   8   9
ATOM      9  CG  ARG A 124      28.908  26.813  11.086  1.00 16.22     0.029 C 
BRANCH   9  10
ATOM     10  CD  ARG A 124      27.497  26.188  11.179  1.00 15.09     0.145 C 
BRANCH  10  11
ATOM     11  NE  ARG A 124      26.437  27.156  11.536  1.00 16.98    -0.083 NA
ATOM     12  CZ  ARG A 124      26.125  27.517  12.776  1.00 18.21     0.782 C 
ATOM     13  NH1 ARG A 124      26.776  27.025  13.823  1.00 21.11     0.063 N 
ATOM     14  NH2 ARG A 124      25.162  28.402  12.984  1.00 21.25     0.063 N 
ENDBRANCH  10  11
ENDBRANCH   9  10
ENDBRANCH   8   9
ENDBRANCH   7   8
END_RES ARG A 124
BEGIN_RES ASN A 133
REMARK  2 active torsions:
REMARK  status: ('A' for Active; 'I' for Inactive)
REMARK    9  A    between atoms: CA   and  CB  
REMARK   10  A    between atoms: CB   and  CG  
ROOT
ATOM     15  CA  ASN A 133      31.225  30.257  11.749  1.00 18.15     0.196 C 
ENDROOT
BRANCH  15  16
ATOM     16  CB  ASN A 133      30.092  31.240  11.460  1.00 18.27     0.126 C 
BRANCH  16  17
ATOM     17  CG  ASN A 133      28.748  30.585  11.373  1.00 18.94     0.276 C 
ATOM     18  OD1 ASN A 133      28.427  29.917  10.389  1.00 18.09    -0.269 OA
ATOM     19  ND2 ASN A 133      27.939  30.774  12.415  1.00 18.93    -0.107 N 
ENDBRANCH  16  17
ENDBRANCH  15  16
END_RES ASN A 133
BEGIN_RES LYS A 131
REMARK  4 active torsions:
REMARK  status: ('A' for Active; 'I' for Inactive)
REMARK   11  A    between atoms: CA   and  CB  
REMARK   12  A    between atoms: CB   and  CG  
REMARK   13  A    between atoms: CG   and  CD  
REMARK   14  A    between atoms: CD   and  CE  
ROOT
ATOM     20  CA  LYS A 131      29.867  25.555  16.977  1.00 20.52     0.186 C 
ENDROOT
BRANCH  20  21
ATOM     21  CB  LYS A 131      28.345  25.722  17.026  1.00 20.94     0.034 C 
BRANCH  21  22
ATOM     22  CG  LYS A 131      27.601  24.402  16.891  1.00 22.96     0.005 C 
BRANCH  22  23
ATOM     23  CD  LYS A 131      26.113  24.575  17.017  1.00 24.33     0.041 C 
BRANCH  23  24
ATOM     24  CE  LYS A 131      25.498  23.298  17.581  1.00 26.91     0.338 C 
ATOM     25  NZ  LYS A 131      25.683  23.238  19.051  1.00 27.40     0.618 N 
ENDBRANCH  23  24
ENDBRANCH  22  23
ENDBRANCH  21  22
ENDBRANCH  20  21
END_RES LYS A 131
ENDMDL
MODEL 5
REMARK VINA RESULT:    -4.644      2.592      6.396
REMARK INTER + INTRA:         -13.501
REMARK INTER:                  -6.363
REMARK INTRA:                  -7.138
REMARK UNBOUND:                -6.414
REMARK  Name = lig_assembled.pdb
REMARK  9 active torsions:
REMARK  status: ('A' for Active; 'I' for Inactive)
REMARK    1  A    between atoms: _1  and  _4
REMARK    2  A    between atoms: _1  and  _11
REMARK    3  A    between atoms: _2  and  _8
REMARK    4  A    between atoms: _4  and  _7
REMARK    5  A    between atoms: _16  and  _26
REMARK    6  A    between atoms: _18  and  _19
REMARK    7  A    between atoms: _20  and  _22
REMARK    8  A    between atoms: _22  and  _24
REMARK    9  A    between atoms: _24  and  _26
REMARK                            x       y       z     vdW  Elec       q    Type
REMARK                         _______ _______ _______ _____ _____    ______ ____
ROOT
ATOM      1  C   UNL     1      26.914  34.073  15.323  0.00  0.00    +0.212 C 
ATOM      2  O   UNL     1      26.335  34.300  16.600  0.00  0.00    -0.218 OA
ENDROOT
BRANCH   1   3
ATOM      3  C   UNL     1      27.878  32.913  15.482  0.00  0.00    +0.171 C 
ATOM      4  O   UNL     1      27.660  32.369  16.802  0.00  0.00    -0.343 OA
ATOM      5  C   UNL     1      28.265  31.050  16.992  0.00  0.00    +0.220 C 
ATOM      6  C   UNL     1      29.796  31.204  16.850  0.00  0.00    +0.076 C 
ATOM      7  C   UNL     1      30.165  31.971  15.559  0.00  0.00    +0.177 C 
ATOM      8  O   UNL     1      31.546  32.304  15.581  0.00  0.00    -0.221 OA
ATOM      9  C   UNL     1      29.362  33.254  15.348  0.00  0.00    +0.155 C 
BRANCH   9  10
ATOM     10  N   UNL     1      29.632  33.736  13.985  0.00  0.00    -0.202 NA
ATOM     11  C   UNL     1      30.176  34.914  13.653  0.00  0.00    +0.242 C 
ATOM     12  C   UNL     1      30.533  35.841  14.800  0.00  0.00    +0.096 C 
ATOM     13  O   UNL     1      30.389  35.254  12.484  0.00  0.00    -0.273 OA
ENDBRANCH   9  10
BRANCH   5  14
ATOM     14  C   UNL     1      27.724  30.009  16.006  0.00  0.00    +0.391 C 
ATOM     15  O   UNL     1      26.511  29.782  15.949  0.00  0.00    -0.243 OA
ATOM     16  O   UNL     1      28.496  29.377  15.276  0.00  0.00    -0.243 OA
ENDBRANCH   5  14
ENDBRANCH   1   3
BRANCH   1  17
ATOM     17  C   UNL     1      25.837  33.739  14.265  0.00  0.00    +0.193 C 
ATOM     18  O   UNL     1      25.332  32.411  14.498  0.00  0.00    -0.219 OA
BRANCH  17  19
ATOM     19  C   UNL     1      26.387  33.839  12.853  0.00  0.00    +0.152 C 
BRANCH  19  21
ATOM     20  C   UNL     1      26.746  35.987  11.534  0.00  0.00    +0.401 C 
ATOM     21  N   UNL     1      27.070  35.129  12.682  0.00  0.00    -0.278 N 
ATOM     22  H   UNL     1      27.762  35.427  13.355  0.00  0.00    +0.152 HD
ATOM     23  O   UNL     1      27.301  37.050  11.386  0.00  0.00    -0.226 OA
BRANCH  20  24
ATOM     24  O   UNL     1      25.762  35.548  10.593  0.00  0.00    -0.444 OA
BRANCH  24  25
ATOM     25  C   UNL     1      25.310  36.662   9.819  0.00  0.00    +0.292 C 
BRANCH  25  26
ATOM     26  C   UNL     1      23.930  36.342   9.215  0.00  0.00    +0.120 A 
ATOM     27  C   UNL     1      23.095  35.374   9.611  0.00  0.00    +0.133 A 
ATOM     28  N   UNL     1      21.862  35.357   8.806  0.00  0.00    -0.265 N 
ATOM     29  H   UNL     1      21.062  34.745   8.875  0.00  0.00    +0.190 HD
ATOM     30  N   UNL     1      21.994  36.425   7.844  0.00  0.00    -0.068 NA
ATOM     31  N   UNL     1      23.283  37.042   8.095  0.00  0.00    -0.131 NA
ENDBRANCH  25  26
ENDBRANCH  24  25
ENDBRANCH  20  24
ENDBRANCH  19  21
ENDBRANCH  17  19
ENDBRANCH   1  17
TORSDOF 9
BEGIN_RES LYS A 135
REMARK  4 active torsions:
REMARK  status: ('A' for Active; 'I' for Inactive)
REMARK    1  A    between atoms: CA   and  CB  
REMARK    2  A    between atoms: CB   and  CG  
REMARK    3  A    between atoms: CG   and  CD  
REMARK    4  A    between atoms: CD   and  CE  
ROOT
ATOM      1  CA  LYS A 135      33.193  34.663   9.290  1.00 25.02     0.186 C 
ENDROOT
BRANCH   1   2
ATOM      2  CB  LYS A 135      32.060  35.360  10.034  1.00 26.63     0.034 C 
BRANCH   2   3
ATOM      3  CG  LYS A 135      30.794  35.483   9.226  1.00 29.45     0.005 C 
BRANCH   3   4
ATOM      4  CD  LYS A 135      30.239  34.108   8.885  1.00 32.00     0.041 C 
BRANCH   4   5
ATOM      5  CE  LYS A 135      28.757  34.039   9.201  1.00 34.25     0.338 C 
ATOM      6  NZ  LYS A 135      27.952  34.712   8.144  1.00 35.99     0.618 N 
ENDBRANCH   4   5
ENDBRANCH   3   4
ENDBRANCH   2   3
ENDBRANCH   1   2
END_RES LYS A 135
BEGIN_RES ARG A 124
REMARK  4 active torsions:
REMARK  status: ('A' for Active; 'I' for Inactive)
REMARK    5  A    between atoms: CA   and  CB  
REMARK    6  A    between atoms: CB   and  CG  
REMARK    7  A    between atoms: CG   and  CD  
REMARK    8  A    between atoms: CD   and  NE  
REMARK       I    between atoms: NE   and  CZ  
ROOT
ATOM      7  CA  ARG A 124      31.045  26.515   9.594  1.00 17.84     0.186 C 
ENDROOT
BRANCH   7   8
ATOM      8  CB  ARG A 124      29.529  26.705   9.647  1.00 16.18     0.036 C 
BRANCH   8   9
ATOM      9  CG  ARG A 124      28.908  26.810  11.086  1.00 16.22     0.029 C 
BRANCH   9  10
ATOM     10  CD  ARG A 124      27.467  26.255  11.159  1.00 15.09     0.145 C 
BRANCH  10  11
ATOM     11  NE  ARG A 124      26.449  27.275  11.494  1.00 16.98    -0.083 NA
ATOM     12  CZ  ARG A 124      26.096  27.619  12.728  1.00 18.21     0.782 C 
ATOM     13  NH1 ARG A 124      26.663  27.059  13.790  1.00 21.11     0.063 N 
ATOM     14  NH2 ARG A 124      25.179  28.555  12.916  1.00 21.25     0.063 N 
ENDBRANCH  10  11
ENDBRANCH   9  10
ENDBRANCH   8   9
ENDBRANCH   7   8
END_RES ARG A 124
BEGIN_RES ASN A 133
REMARK  2 active torsions:
REMARK  status: ('A' for Active; 'I' for Inactive)
REMARK    9  A    between atoms: CA   and  CB  
REMARK   10  A    between atoms: CB   and  CG  
ROOT
ATOM     15  CA  ASN A 133      31.225  30.257  11.749  1.00 18.15     0.196 C 
ENDROOT
BRANCH  15  16
ATOM     16  CB  ASN A 133      30.092  31.240  11.460  1.00 18.27     0.126 C 
BRANCH  16  17
ATOM     17  CG  ASN A 133      28.747  30.587  11.387  1.00 18.94     0.276 C 
ATOM     18  OD1 ASN A 133      28.428  29.888  10.423  1.00 18.09    -0.269 OA
ATOM     19  ND2 ASN A 133      27.932  30.813  12.417  1.00 18.93    -0.107 N 
ENDBRANCH  16  17
ENDBRANCH  15  16
END_RES ASN A 133
BEGIN_RES LYS A 131
REMARK  4 active torsions:
REMARK  status: ('A' for Active; 'I' for Inactive)
REMARK   11  A    between atoms: CA   and  CB  
REMARK   12  A    between atoms: CB   and  CG  
REMARK   13  A    between atoms: CG   and  CD  
REMARK   14  A    between atoms: CD   and  CE  
ROOT
ATOM     20  CA  LYS A 131      29.867  25.555  16.977  1.00 20.52     0.186 C 
ENDROOT
BRANCH  20  21
ATOM     21  CB  LYS A 131      28.345  25.722  17.026  1.00 20.94     0.034 C 
BRANCH  21  22
ATOM     22  CG  LYS A 131      27.599  24.421  16.773  1.00 22.96     0.005 C 
BRANCH  22  23
ATOM     23  CD  LYS A 131      26.834  23.962  17.984  1.00 24.33     0.041 C 
BRANCH  23  24
ATOM     24  CE  LYS A 131      25.581  23.215  17.540  1.00 26.91     0.338 C 
ATOM     25  NZ  LYS A 131      24.554  24.166  17.052  1.00 27.40     0.618 N 
ENDBRANCH  23  24
ENDBRANCH  22  23
ENDBRANCH  21  22
ENDBRANCH  20  21
END_RES LYS A 131
ENDMDL
