REMARK WARNING: 32 MAX_TORS EXCEEDED!!!
REMARK  33 active torsions:
REMARK  status: ('A' for Active; 'I' for Inactive)
REMARK    1  A    between atoms: O_1  and  C_2 
REMARK    2  A    between atoms: C_2  and  C_3 
REMARK    3  A    between atoms: C_5  and  O_6 
REMARK    4  A    between atoms: O_6  and  C_7 
REMARK    5  A    between atoms: C_7  and  C_8 
REMARK    6  A    between atoms: C_8  and  N_9 
REMARK    7  A    between atoms: C_12  and  O_13 
REMARK    8  A    between atoms: C_14  and  O_15 
REMARK    9  A    between atoms: C_16  and  O_17 
REMARK   10  A    between atoms: O_17  and  C_18 
REMARK   11  A    between atoms: C_20  and  C_21 
REMARK   12  A    between atoms: C_21  and  O_22 
REMARK   13  A    between atoms: O_22  and  C_23 
REMARK   14  A    between atoms: C_23  and  C_24 
REMARK   15  A    between atoms: C_24  and  O_25 
REMARK   16  A    between atoms: C_28  and  O_29 
REMARK   17  A    between atoms: C_30  and  N_31 
REMARK       I    between atoms: N_31  and  C_32 
REMARK   18  A    between atoms: C_35  and  C_36 
REMARK   19  A    between atoms: C_36  and  O_37 
REMARK   20  A    between atoms: C_36  and  C_38 
REMARK   21  A    between atoms: C_38  and  O_39 
REMARK   22  A    between atoms: C_38  and  C_40 
REMARK   23  A    between atoms: C_40  and  N_41 
REMARK       I    between atoms: N_41  and  C_42 
REMARK   24  A    between atoms: C_42  and  O_43 
REMARK   25  A    between atoms: O_43  and  C_44 
REMARK   26  A    between atoms: C_44  and  A_45 
REMARK   27  A    between atoms: N_47  and  C_48 
REMARK   28  A    between atoms: C_48  and  C_49 
REMARK       I    between atoms: C_49  and  N_51 
REMARK   29  A    between atoms: N_51  and  C_52 
REMARK   30  A    between atoms: C_52  and  A_53 
REMARK   31  A    between atoms: C_62  and  O_63 
REMARK   32  A    between atoms: C_64  and  O_65 
REMARK   33  A    between atoms: C_66  and  O_67 
ROOT
ATOM      1  N           0     -11.022   3.754   1.969  0.00  0.00    -0.113
ATOM      2  N           0     -11.813   4.423   2.406  0.00  0.00    -0.168
ATOM      3  N           0     -12.603   5.092   2.843  0.00  0.00     0.068
ENDROOT
BRANCH   1   4
ATOM      4  C           0     -10.528   3.994   0.610  0.00  0.00     0.215
BRANCH   4   5
ATOM      5  C           0      -9.023   4.265   0.655  0.00  0.00     0.195
BRANCH   5   6
ATOM      6  O           0      -8.341   3.092   1.104  0.00  0.00    -0.357
BRANCH   6   7
ATOM      7  C           0      -6.948   3.407   1.124  0.00  0.00     0.291
ATOM      8  O           0      -6.498   3.656  -0.206  0.00  0.00    -0.348
ATOM      9  C           0      -5.158   4.139  -0.126  0.00  0.00     0.180
ATOM     10  C           0      -4.236   3.022   0.369  0.00  0.00     0.187
ATOM     11  C           0      -4.681   2.591   1.771  0.00  0.00     0.183
ATOM     12  C           0      -6.171   2.232   1.722  0.00  0.00     0.204
BRANCH   9  13
ATOM     13  C           0      -4.700   4.600  -1.511  0.00  0.00     0.198
BRANCH  13  14
ATOM     14  O           0      -5.482   5.723  -1.922  0.00  0.00    -0.398
ATOM     15  H           0      -5.162   5.982  -2.797  0.00  0.00     0.209
ENDBRANCH  13  14
ENDBRANCH   9  13
BRANCH  10  16
ATOM     16  O           0      -2.890   3.501   0.421  0.00  0.00    -0.348
BRANCH  16  17
ATOM     17  C           0      -2.214   2.956  -0.713  0.00  0.00     0.292
ATOM     18  C           0      -0.826   3.591  -0.831  0.00  0.00     0.204
ATOM     19  C           0      -0.122   3.026  -2.070  0.00  0.00     0.183
ATOM     20  C           0      -0.133   1.495  -1.984  0.00  0.00     0.180
ATOM     21  C           0      -1.573   1.018  -1.778  0.00  0.00     0.180
ATOM     22  O           0      -2.086   1.544  -0.555  0.00  0.00    -0.348
BRANCH  18  23
ATOM     23  O           0      -0.958   5.008  -0.960  0.00  0.00    -0.388
ATOM     24  H           0      -1.404   5.321  -0.162  0.00  0.00     0.210
ENDBRANCH  18  23
BRANCH  19  25
ATOM     25  O           0       1.227   3.494  -2.114  0.00  0.00    -0.390
ATOM     26  H           0       1.187   4.458  -2.168  0.00  0.00     0.210
ENDBRANCH  19  25
BRANCH  20  27
ATOM     27  O           0       0.673   1.071  -0.883  0.00  0.00    -0.390
ATOM     28  H           0       1.569   1.392  -1.054  0.00  0.00     0.210
ENDBRANCH  20  27
BRANCH  21  29
ATOM     29  C           0      -1.598  -0.511  -1.724  0.00  0.00     0.207
BRANCH  29  30
ATOM     30  O           0      -2.951  -0.963  -1.655  0.00  0.00    -0.344
BRANCH  30  31
ATOM     31  C           0      -2.908  -2.391  -1.612  0.00  0.00     0.255
ATOM     32  O           0      -2.061  -2.807  -0.542  0.00  0.00    -0.336
ATOM     33  C           0      -1.900  -4.221  -0.645  0.00  0.00     0.182
ATOM     34  C           0      -3.230  -4.916  -0.349  0.00  0.00     0.145
ATOM     35  C           0      -4.269  -4.468  -1.383  0.00  0.00     0.149
ATOM     36  C           0      -4.321  -2.936  -1.394  0.00  0.00     0.114
BRANCH  33  37
ATOM     37  C           0      -0.847  -4.686   0.363  0.00  0.00     0.179
BRANCH  37  38
ATOM     38  O           0      -0.679  -6.101   0.258  0.00  0.00    -0.390
ATOM     39  H           0      -0.391  -6.282  -0.647  0.00  0.00     0.210
ENDBRANCH  37  38
BRANCH  37  40
ATOM     40  C           0       0.484  -3.992   0.068  0.00  0.00     0.167
BRANCH  40  41
ATOM     41  O           0       0.854  -4.229  -1.292  0.00  0.00    -0.391
ATOM     42  H           0       0.936  -5.186  -1.397  0.00  0.00     0.210
ENDBRANCH  40  41
BRANCH  40  43
ATOM     43  C           0       1.566  -4.548   0.995  0.00  0.00     0.159
BRANCH  43  44
ATOM     44  N           0       2.811  -3.802   0.795  0.00  0.00    -0.334
ATOM     45  C           0       3.909  -4.119   1.510  0.00  0.00     0.360
ATOM     46  O           0       3.866  -5.024   2.320  0.00  0.00    -0.239
ATOM     47  H           0       2.845  -3.079   0.149  0.00  0.00     0.164
BRANCH  45  48
ATOM     48  O           0       5.053  -3.433   1.327  0.00  0.00    -0.298
BRANCH  48  49
ATOM     49  C           0       6.236  -3.775   2.097  0.00  0.00     0.243
BRANCH  49  50
ATOM     50  A           0       7.371  -2.864   1.705  0.00  0.00     0.099
ATOM     51  N           0       8.612  -2.873   2.203  0.00  0.00    -0.133
ATOM     52  N           0       9.300  -1.954   1.622  0.00  0.00    -0.066
ATOM     53  N           0       8.571  -1.327   0.767  0.00  0.00    -0.252
ATOM     54  A           0       7.332  -1.872   0.785  0.00  0.00     0.145
BRANCH  53  55
ATOM     55  C           0       9.006  -0.214  -0.080  0.00  0.00     0.254
BRANCH  55  56
ATOM     56  C           0       9.581   0.879   0.784  0.00  0.00     0.237
ATOM     57  O           0       9.622   0.742   1.988  0.00  0.00    -0.272
ATOM     58  N           0      10.048   2.010   0.218  0.00  0.00    -0.355
ATOM     59  H           0      10.015   2.120  -0.745  0.00  0.00     0.162
BRANCH  58  60
ATOM     60  C           0      10.607   3.072   1.058  0.00  0.00     0.168
BRANCH  60  61
ATOM     61  A           0      11.055   4.218   0.187  0.00  0.00     0.000
ATOM     62  S           0      12.649   4.501  -0.566  0.00  0.00    -0.105
ATOM     63  A           0      12.270   6.042  -1.384  0.00  0.00     0.050
ATOM     64  A           0      10.977   6.238  -1.029  0.00  0.00     0.008
ATOM     65  A           0      10.354   5.303  -0.224  0.00  0.00     0.017
ENDBRANCH  60  61
ENDBRANCH  58  60
ENDBRANCH  55  56
ENDBRANCH  53  55
ENDBRANCH  49  50
ENDBRANCH  48  49
ENDBRANCH  45  48
ENDBRANCH  43  44
ENDBRANCH  40  43
ENDBRANCH  37  40
ENDBRANCH  33  37
BRANCH  34  66
ATOM     66  N           0      -3.055  -6.368  -0.427  0.00  0.00    -0.352
ATOM     67  C           0      -3.888  -7.185   0.248  0.00  0.00     0.214
ATOM     68  C           0      -3.707  -8.679   0.167  0.00  0.00     0.117
ATOM     69  O           0      -4.782  -6.718   0.920  0.00  0.00    -0.274
ATOM     70  H           0      -2.339  -6.742  -0.965  0.00  0.00     0.163
ENDBRANCH  34  66
BRANCH  35  71
ATOM     71  O           0      -5.553  -4.989  -1.034  0.00  0.00    -0.393
ATOM     72  H           0      -6.175  -4.673  -1.704  0.00  0.00     0.210
ENDBRANCH  35  71
BRANCH  31  73
ATOM     73  C           0      -2.364  -2.915  -2.915  0.00  0.00     0.205
ATOM     74  O           0      -3.121  -3.238  -3.800  0.00  0.00    -0.646
BRANCH  73  75
ATOM     75  O           0      -1.038  -3.025  -3.094  0.00  0.00    -0.772
ATOM     76  H           0      -0.688  -3.361  -3.930  0.00  0.00     0.167
ENDBRANCH  73  75
ENDBRANCH  31  73
ENDBRANCH  30  31
ENDBRANCH  29  30
ENDBRANCH  21  29
ENDBRANCH  16  17
ENDBRANCH  10  16
BRANCH  11  77
ATOM     77  O           0      -3.927   1.452   2.188  0.00  0.00    -0.390
ATOM     78  H           0      -4.249   1.209   3.067  0.00  0.00     0.210
ENDBRANCH  11  77
BRANCH  12  79
ATOM     79  O           0      -6.645   1.969   3.045  0.00  0.00    -0.388
ATOM     80  H           0      -7.584   1.755   2.967  0.00  0.00     0.210
ENDBRANCH  12  79
ENDBRANCH   6   7
ENDBRANCH   5   6
ENDBRANCH   4   5
ENDBRANCH   1   4
TORSDOF 26
