REMARK WARNING: 32 MAX_TORS EXCEEDED!!!
REMARK  41 active torsions:
REMARK  status: ('A' for Active; 'I' for Inactive)
REMARK    1  A    between atoms: O_1  and  C_2 
REMARK    2  A    between atoms: C_2  and  C_3 
REMARK    3  A    between atoms: C_5  and  O_6 
REMARK    4  A    between atoms: O_6  and  C_7 
REMARK    5  A    between atoms: C_7  and  C_8 
REMARK    6  A    between atoms: C_8  and  N_9 
REMARK    7  A    between atoms: C_12  and  O_13 
REMARK    8  A    between atoms: C_14  and  O_15 
REMARK    9  A    between atoms: C_16  and  O_17 
REMARK   10  A    between atoms: O_17  and  C_18 
REMARK   11  A    between atoms: C_20  and  C_21 
REMARK   12  A    between atoms: C_21  and  O_22 
REMARK   13  A    between atoms: O_22  and  C_23 
REMARK   14  A    between atoms: C_23  and  C_24 
REMARK   15  A    between atoms: C_24  and  O_25 
REMARK   16  A    between atoms: C_28  and  O_29 
REMARK   17  A    between atoms: C_30  and  N_31 
REMARK       I    between atoms: N_31  and  C_32 
REMARK   18  A    between atoms: C_35  and  C_36 
REMARK   19  A    between atoms: C_36  and  O_37 
REMARK   20  A    between atoms: C_36  and  C_38 
REMARK   21  A    between atoms: C_38  and  O_39 
REMARK   22  A    between atoms: C_38  and  C_40 
REMARK   23  A    between atoms: C_40  and  N_41 
REMARK       I    between atoms: N_41  and  C_42 
REMARK   24  A    between atoms: C_42  and  O_43 
REMARK   25  A    between atoms: O_43  and  C_44 
REMARK   26  A    between atoms: C_44  and  A_45 
REMARK   27  A    between atoms: N_47  and  C_48 
REMARK   28  A    between atoms: C_48  and  C_49 
REMARK   29  A    between atoms: C_49  and  C_50 
REMARK   30  A    between atoms: C_50  and  C_51 
REMARK   31  A    between atoms: C_51  and  C_52 
REMARK   32  A    between atoms: C_52  and  C_53 
REMARK   33  A    between atoms: C_53  and  C_54 
REMARK   34  A    between atoms: C_54  and  C_55 
REMARK   35  A    between atoms: C_55  and  C_56 
REMARK   36  A    between atoms: C_56  and  C_57 
REMARK   37  A    between atoms: C_57  and  C_58 
REMARK   38  A    between atoms: C_58  and  O_60 
REMARK   39  A    between atoms: C_65  and  O_66 
REMARK   40  A    between atoms: C_67  and  O_68 
REMARK   41  A    between atoms: C_69  and  O_70 
ROOT
ATOM      1  N           0     -10.106   6.440   1.973  0.00  0.00    -0.113
ATOM      2  N           0     -10.654   7.320   2.408  0.00  0.00    -0.168
ATOM      3  N           0     -11.203   8.200   2.842  0.00  0.00     0.068
ENDROOT
BRANCH   1   4
ATOM      4  C           0      -9.575   6.508   0.610  0.00  0.00     0.215
BRANCH   4   5
ATOM      5  C           0      -8.058   6.314   0.643  0.00  0.00     0.195
BRANCH   5   6
ATOM      6  O           0      -7.757   4.994   1.101  0.00  0.00    -0.357
BRANCH   6   7
ATOM      7  C           0      -6.333   4.874   1.110  0.00  0.00     0.291
ATOM      8  O           0      -5.841   4.964  -0.226  0.00  0.00    -0.348
ATOM      9  C           0      -4.417   5.021  -0.159  0.00  0.00     0.180
ATOM     10  C           0      -3.870   3.684   0.344  0.00  0.00     0.187
ATOM     11  C           0      -4.412   3.420   1.753  0.00  0.00     0.183
ATOM     12  C           0      -5.940   3.525   1.717  0.00  0.00     0.204
BRANCH   9  13
ATOM     13  C           0      -3.854   5.311  -1.552  0.00  0.00     0.198
BRANCH  13  14
ATOM     14  O           0      -4.266   6.613  -1.971  0.00  0.00    -0.398
ATOM     15  H           0      -3.890   6.756  -2.850  0.00  0.00     0.209
ENDBRANCH  13  14
ENDBRANCH   9  13
BRANCH  10  16
ATOM     16  O           0      -2.442   3.736   0.382  0.00  0.00    -0.348
BRANCH  16  17
ATOM     17  C           0      -1.971   3.002  -0.749  0.00  0.00     0.292
ATOM     18  C           0      -0.458   3.188  -0.883  0.00  0.00     0.204
ATOM     19  C           0       0.032   2.426  -2.119  0.00  0.00     0.183
ATOM     20  C           0      -0.439   0.971  -2.016  0.00  0.00     0.180
ATOM     21  C           0      -1.953   0.951  -1.796  0.00  0.00     0.180
ATOM     22  O           0      -2.273   1.618  -0.576  0.00  0.00    -0.348
BRANCH  18  23
ATOM     23  O           0      -0.158   4.577  -1.027  0.00  0.00    -0.388
ATOM     24  H           0      -0.482   5.018  -0.230  0.00  0.00     0.210
ENDBRANCH  18  23
BRANCH  19  25
ATOM     25  O           0       1.459   2.465  -2.176  0.00  0.00    -0.390
ATOM     26  H           0       1.711   3.396  -2.241  0.00  0.00     0.210
ENDBRANCH  19  25
BRANCH  20  27
ATOM     27  O           0       0.212   0.333  -0.915  0.00  0.00    -0.390
ATOM     28  H           0       1.162   0.367  -1.094  0.00  0.00     0.210
ENDBRANCH  20  27
BRANCH  21  29
ATOM     29  C           0      -2.437  -0.499  -1.724  0.00  0.00     0.207
BRANCH  29  30
ATOM     30  O           0      -3.863  -0.522  -1.643  0.00  0.00    -0.344
BRANCH  30  31
ATOM     31  C           0      -4.251  -1.896  -1.583  0.00  0.00     0.255
ATOM     32  O           0      -3.559  -2.538  -0.514  0.00  0.00    -0.336
ATOM     33  C           0      -3.832  -3.936  -0.602  0.00  0.00     0.182
ATOM     34  C           0      -5.308  -4.195  -0.290  0.00  0.00     0.145
ATOM     35  C           0      -6.173  -3.465  -1.323  0.00  0.00     0.149
ATOM     36  C           0      -5.761  -1.988  -1.351  0.00  0.00     0.114
BRANCH  33  37
ATOM     37  C           0      -2.959  -4.687   0.406  0.00  0.00     0.179
BRANCH  37  38
ATOM     38  O           0      -3.227  -6.088   0.316  0.00  0.00    -0.390
ATOM     39  H           0      -3.015  -6.355  -0.589  0.00  0.00     0.210
ENDBRANCH  37  38
BRANCH  37  40
ATOM     40  C           0      -1.484  -4.428   0.095  0.00  0.00     0.167
BRANCH  40  41
ATOM     41  O           0      -1.215  -4.778  -1.265  0.00  0.00    -0.391
ATOM     42  H           0      -1.426  -5.717  -1.358  0.00  0.00     0.210
ENDBRANCH  40  41
BRANCH  40  43
ATOM     43  C           0      -0.611  -5.277   1.022  0.00  0.00     0.159
BRANCH  43  44
ATOM     44  N           0       0.799  -4.942   0.807  0.00  0.00    -0.334
ATOM     45  C           0       1.756  -5.569   1.519  0.00  0.00     0.360
ATOM     46  O           0       1.450  -6.411   2.339  0.00  0.00    -0.239
ATOM     47  H           0       1.043  -4.269   0.152  0.00  0.00     0.164
BRANCH  45  48
ATOM     48  O           0       3.052  -5.261   1.321  0.00  0.00    -0.298
BRANCH  48  49
ATOM     49  C           0       4.084  -5.936   2.088  0.00  0.00     0.243
BRANCH  49  50
ATOM     50  A           0       5.437  -5.413   1.680  0.00  0.00     0.099
ATOM     51  N           0       6.623  -5.791   2.170  0.00  0.00    -0.133
ATOM     52  N           0       7.550  -5.127   1.575  0.00  0.00    -0.066
ATOM     53  N           0       7.036  -4.317   0.717  0.00  0.00    -0.261
ATOM     54  A           0       5.691  -4.464   0.749  0.00  0.00     0.145
BRANCH  53  55
ATOM     55  C           0       7.779  -3.394  -0.145  0.00  0.00     0.152
BRANCH  55  56
ATOM     56  C           0       8.677  -2.504   0.716  0.00  0.00     0.022
BRANCH  56  57
ATOM     57  C           0       9.453  -1.540  -0.184  0.00  0.00     0.002
BRANCH  57  58
ATOM     58  C           0      10.351  -0.650   0.677  0.00  0.00     0.000
BRANCH  58  59
ATOM     59  C           0      11.127   0.314  -0.224  0.00  0.00     0.000
BRANCH  59  60
ATOM     60  C           0      12.025   1.205   0.637  0.00  0.00     0.000
BRANCH  60  61
ATOM     61  C           0      12.801   2.168  -0.263  0.00  0.00     0.000
BRANCH  61  62
ATOM     62  C           0      13.699   3.059   0.598  0.00  0.00     0.001
BRANCH  62  63
ATOM     63  C           0      14.475   4.022  -0.302  0.00  0.00     0.010
BRANCH  63  64
ATOM     64  C           0      15.373   4.913   0.558  0.00  0.00     0.110
BRANCH  64  65
ATOM     65  C           0      16.138   5.862  -0.328  0.00  0.00     0.139
ATOM     66  O           0      15.980   5.830  -1.526  0.00  0.00    -0.650
BRANCH  65  67
ATOM     67  O           0      16.993   6.744   0.212  0.00  0.00    -0.776
ATOM     68  H           0      17.484   7.353  -0.357  0.00  0.00     0.167
ENDBRANCH  65  67
ENDBRANCH  64  65
ENDBRANCH  63  64
ENDBRANCH  62  63
ENDBRANCH  61  62
ENDBRANCH  60  61
ENDBRANCH  59  60
ENDBRANCH  58  59
ENDBRANCH  57  58
ENDBRANCH  56  57
ENDBRANCH  55  56
ENDBRANCH  53  55
ENDBRANCH  49  50
ENDBRANCH  48  49
ENDBRANCH  45  48
ENDBRANCH  43  44
ENDBRANCH  40  43
ENDBRANCH  37  40
ENDBRANCH  33  37
BRANCH  34  69
ATOM     69  N           0      -5.578  -5.633  -0.353  0.00  0.00    -0.352
ATOM     70  C           0      -6.613  -6.155   0.336  0.00  0.00     0.214
ATOM     71  C           0      -6.891  -7.635   0.272  0.00  0.00     0.117
ATOM     72  O           0      -7.319  -5.434   1.008  0.00  0.00    -0.274
ATOM     73  H           0      -5.013  -6.210  -0.890  0.00  0.00     0.163
ENDBRANCH  34  69
BRANCH  35  74
ATOM     74  O           0      -7.551  -3.571  -0.961  0.00  0.00    -0.393
ATOM     75  H           0      -8.054  -3.089  -1.631  0.00  0.00     0.210
ENDBRANCH  35  74
BRANCH  31  76
ATOM     76  C           0      -3.902  -2.572  -2.884  0.00  0.00     0.205
ATOM     77  O           0      -4.729  -2.659  -3.761  0.00  0.00    -0.646
BRANCH  76  78
ATOM     78  O           0      -2.672  -3.077  -3.068  0.00  0.00    -0.772
ATOM     79  H           0      -2.448  -3.511  -3.903  0.00  0.00     0.167
ENDBRANCH  76  78
ENDBRANCH  31  76
ENDBRANCH  30  31
ENDBRANCH  29  30
ENDBRANCH  21  29
ENDBRANCH  16  17
ENDBRANCH  10  16
BRANCH  11  80
ATOM     80  O           0      -4.032   2.110   2.179  0.00  0.00    -0.390
ATOM     81  H           0      -4.404   1.984   3.062  0.00  0.00     0.210
ENDBRANCH  11  80
BRANCH  12  82
ATOM     82  O           0      -6.460   3.430   3.045  0.00  0.00    -0.388
ATOM     83  H           0      -7.421   3.507   2.975  0.00  0.00     0.210
ENDBRANCH  12  82
ENDBRANCH   6   7
ENDBRANCH   5   6
ENDBRANCH   4   5
ENDBRANCH   1   4
TORSDOF 32
