REMARK WARNING: 32 MAX_TORS EXCEEDED!!!
REMARK  36 active torsions:
REMARK  status: ('A' for Active; 'I' for Inactive)
REMARK    1  A    between atoms: O_1  and  C_2 
REMARK    2  A    between atoms: C_2  and  C_3 
REMARK    3  A    between atoms: C_5  and  O_6 
REMARK    4  A    between atoms: O_6  and  C_7 
REMARK    5  A    between atoms: C_7  and  C_8 
REMARK    6  A    between atoms: C_8  and  N_9 
REMARK    7  A    between atoms: C_12  and  O_13 
REMARK    8  A    between atoms: C_14  and  O_15 
REMARK    9  A    between atoms: C_16  and  O_17 
REMARK   10  A    between atoms: O_17  and  C_18 
REMARK   11  A    between atoms: C_20  and  C_21 
REMARK   12  A    between atoms: C_21  and  O_22 
REMARK   13  A    between atoms: O_22  and  C_23 
REMARK   14  A    between atoms: C_23  and  C_24 
REMARK   15  A    between atoms: C_24  and  O_25 
REMARK   16  A    between atoms: C_28  and  O_29 
REMARK   17  A    between atoms: C_30  and  N_31 
REMARK       I    between atoms: N_31  and  C_32 
REMARK   18  A    between atoms: C_35  and  C_36 
REMARK   19  A    between atoms: C_36  and  O_37 
REMARK   20  A    between atoms: C_36  and  C_38 
REMARK   21  A    between atoms: C_38  and  O_39 
REMARK   22  A    between atoms: C_38  and  C_40 
REMARK   23  A    between atoms: C_40  and  N_41 
REMARK       I    between atoms: N_41  and  C_42 
REMARK   24  A    between atoms: C_42  and  O_43 
REMARK   25  A    between atoms: O_43  and  C_44 
REMARK   26  A    between atoms: C_44  and  A_45 
REMARK   27  A    between atoms: N_47  and  C_48 
REMARK   28  A    between atoms: C_48  and  C_49 
REMARK   29  A    between atoms: C_49  and  C_50 
REMARK   30  A    between atoms: C_49  and  C_53 
REMARK   31  A    between atoms: C_50  and  O_52 
REMARK   32  A    between atoms: C_53  and  A_54 
REMARK   33  A    between atoms: C_53  and  A_60 
REMARK   34  A    between atoms: C_70  and  O_71 
REMARK   35  A    between atoms: C_72  and  O_73 
REMARK   36  A    between atoms: C_74  and  O_75 
ROOT
ATOM      1  N           0     -11.479   3.863   2.186  0.00  0.00    -0.113
ATOM      2  N           0     -12.230   4.556   2.654  0.00  0.00    -0.168
ATOM      3  N           0     -12.980   5.250   3.122  0.00  0.00     0.068
ENDROOT
BRANCH   1   4
ATOM      4  C           0     -11.032   4.089   0.809  0.00  0.00     0.215
BRANCH   4   5
ATOM      5  C           0      -9.518   4.310   0.795  0.00  0.00     0.195
BRANCH   5   6
ATOM      6  O           0      -8.858   3.115   1.216  0.00  0.00    -0.357
BRANCH   6   7
ATOM      7  C           0      -7.455   3.385   1.181  0.00  0.00     0.291
ATOM      8  O           0      -7.050   3.621  -0.166  0.00  0.00    -0.348
ATOM      9  C           0      -5.693   4.059  -0.138  0.00  0.00     0.180
ATOM     10  C           0      -4.789   2.913   0.320  0.00  0.00     0.187
ATOM     11  C           0      -5.192   2.495   1.738  0.00  0.00     0.183
ATOM     12  C           0      -6.694   2.184   1.748  0.00  0.00     0.204
BRANCH   9  13
ATOM     13  C           0      -5.275   4.507  -1.540  0.00  0.00     0.198
BRANCH  13  14
ATOM     14  O           0      -6.024   5.666  -1.913  0.00  0.00    -0.398
ATOM     15  H           0      -5.730   5.915  -2.800  0.00  0.00     0.209
ENDBRANCH  13  14
ENDBRANCH   9  13
BRANCH  10  16
ATOM     16  O           0      -3.428   3.348   0.319  0.00  0.00    -0.348
BRANCH  16  17
ATOM     17  C           0      -2.814   2.781  -0.841  0.00  0.00     0.292
ATOM     18  C           0      -1.431   3.405  -1.040  0.00  0.00     0.204
ATOM     19  C           0      -0.796   2.817  -2.305  0.00  0.00     0.183
ATOM     20  C           0      -0.811   1.288  -2.196  0.00  0.00     0.180
ATOM     21  C           0      -2.241   0.823  -1.908  0.00  0.00     0.180
ATOM     22  O           0      -2.686   1.371  -0.668  0.00  0.00    -0.348
BRANCH  18  23
ATOM     23  O           0      -1.561   4.821  -1.184  0.00  0.00    -0.388
ATOM     24  H           0      -1.963   5.149  -0.368  0.00  0.00     0.210
ENDBRANCH  18  23
BRANCH  19  25
ATOM     25  O           0       0.553   3.275  -2.426  0.00  0.00    -0.390
ATOM     26  H           0       0.515   4.239  -2.493  0.00  0.00     0.210
ENDBRANCH  19  25
BRANCH  20  27
ATOM     27  O           0       0.049   0.875  -1.132  0.00  0.00    -0.390
ATOM     28  H           0       0.937   1.187  -1.354  0.00  0.00     0.210
ENDBRANCH  20  27
BRANCH  21  29
ATOM     29  C           0      -2.271  -0.704  -1.829  0.00  0.00     0.207
BRANCH  29  30
ATOM     30  O           0      -3.622  -1.147  -1.684  0.00  0.00    -0.344
BRANCH  30  31
ATOM     31  C           0      -3.579  -2.569  -1.555  0.00  0.00     0.255
ATOM     32  O           0      -2.711  -2.922  -0.480  0.00  0.00    -0.336
ATOM     33  C           0      -2.553  -4.340  -0.500  0.00  0.00     0.182
ATOM     34  C           0      -3.878  -5.013  -0.136  0.00  0.00     0.145
ATOM     35  C           0      -4.937  -4.626  -1.174  0.00  0.00     0.149
ATOM     36  C           0      -4.988  -3.098  -1.277  0.00  0.00     0.114
BRANCH  33  37
ATOM     37  C           0      -1.481  -4.745   0.513  0.00  0.00     0.179
BRANCH  37  38
ATOM     38  O           0      -1.317  -6.165   0.490  0.00  0.00    -0.390
ATOM     39  H           0      -1.047  -6.401  -0.408  0.00  0.00     0.210
ENDBRANCH  37  38
BRANCH  37  40
ATOM     40  C           0      -0.156  -4.073   0.150  0.00  0.00     0.167
BRANCH  40  41
ATOM     41  O           0       0.186  -4.392  -1.200  0.00  0.00    -0.391
ATOM     42  H           0       0.265  -5.355  -1.248  0.00  0.00     0.210
ENDBRANCH  40  41
BRANCH  40  43
ATOM     43  C           0       0.945  -4.575   1.087  0.00  0.00     0.159
BRANCH  43  44
ATOM     44  N           0       2.186  -3.844   0.818  0.00  0.00    -0.334
ATOM     45  C           0       3.298  -4.120   1.529  0.00  0.00     0.360
ATOM     46  O           0       3.270  -4.975   2.392  0.00  0.00    -0.239
ATOM     47  H           0       2.208  -3.162   0.129  0.00  0.00     0.164
BRANCH  45  48
ATOM     48  O           0       4.438  -3.449   1.282  0.00  0.00    -0.298
BRANCH  48  49
ATOM     49  C           0       5.636  -3.746   2.047  0.00  0.00     0.243
BRANCH  49  50
ATOM     50  A           0       6.763  -2.863   1.578  0.00  0.00     0.099
ATOM     51  N           0       8.015  -2.845   2.050  0.00  0.00    -0.133
ATOM     52  N           0       8.692  -1.964   1.402  0.00  0.00    -0.066
ATOM     53  N           0       7.946  -1.388   0.525  0.00  0.00    -0.260
ATOM     54  A           0       6.708  -1.928   0.601  0.00  0.00     0.145
BRANCH  53  55
ATOM     55  C           0       8.365  -0.329  -0.396  0.00  0.00     0.168
BRANCH  55  56
ATOM     56  C           0       8.967   0.831   0.401  0.00  0.00     0.116
BRANCH  56  57
ATOM     57  C           0      10.231   0.371   1.081  0.00  0.00     0.146
ATOM     58  O           0      10.611  -0.768   0.943  0.00  0.00    -0.650
BRANCH  57  59
ATOM     59  O           0      10.934   1.226   1.840  0.00  0.00    -0.776
ATOM     60  H           0      11.745   0.930   2.276  0.00  0.00     0.167
ENDBRANCH  57  59
ENDBRANCH  56  57
BRANCH  56  61
ATOM     61  C           0       9.290   1.987  -0.548  0.00  0.00     0.067
BRANCH  61  62
ATOM     62  A           0       8.027   2.447  -1.228  0.00  0.00    -0.049
ATOM     63  A           0       7.986   2.563  -2.605  0.00  0.00     0.008
ATOM     64  A           0       6.825   2.981  -3.229  0.00  0.00     0.001
ATOM     65  A           0       5.709   3.292  -2.476  0.00  0.00     0.000
ATOM     66  A           0       5.751   3.181  -1.098  0.00  0.00     0.001
ATOM     67  A           0       6.910   2.759  -0.474  0.00  0.00     0.008
ENDBRANCH  61  62
BRANCH  61  68
ATOM     68  A           0       9.883   3.129   0.237  0.00  0.00    -0.049
ATOM     69  A           0       9.203   3.649   1.322  0.00  0.00     0.008
ATOM     70  A           0       9.748   4.694   2.044  0.00  0.00     0.001
ATOM     71  A           0      10.970   5.225   1.675  0.00  0.00     0.000
ATOM     72  A           0      11.648   4.708   0.587  0.00  0.00     0.001
ATOM     73  A           0      11.105   3.661  -0.132  0.00  0.00     0.008
ENDBRANCH  61  68
ENDBRANCH  56  61
ENDBRANCH  55  56
ENDBRANCH  53  55
ENDBRANCH  49  50
ENDBRANCH  48  49
ENDBRANCH  45  48
ENDBRANCH  43  44
ENDBRANCH  40  43
ENDBRANCH  37  40
ENDBRANCH  33  37
BRANCH  34  74
ATOM     74  N           0      -3.706  -6.468  -0.130  0.00  0.00    -0.352
ATOM     75  C           0      -4.526  -7.241   0.610  0.00  0.00     0.214
ATOM     76  C           0      -4.348  -8.737   0.616  0.00  0.00     0.117
ATOM     77  O           0      -5.406  -6.732   1.270  0.00  0.00    -0.274
ATOM     78  H           0      -3.001  -6.875  -0.658  0.00  0.00     0.163
ENDBRANCH  34  74
BRANCH  35  79
ATOM     79  O           0      -6.215  -5.122  -0.769  0.00  0.00    -0.393
ATOM     80  H           0      -6.849  -4.846  -1.444  0.00  0.00     0.210
ENDBRANCH  35  79
BRANCH  31  81
ATOM     81  C           0      -3.062  -3.173  -2.835  0.00  0.00     0.205
ATOM     82  O           0      -3.837  -3.549  -3.682  0.00  0.00    -0.646
BRANCH  81  83
ATOM     83  O           0      -1.740  -3.293  -3.034  0.00  0.00    -0.772
ATOM     84  H           0      -1.407  -3.680  -3.856  0.00  0.00     0.167
ENDBRANCH  81  83
ENDBRANCH  31  81
ENDBRANCH  30  31
ENDBRANCH  29  30
ENDBRANCH  21  29
ENDBRANCH  16  17
ENDBRANCH  10  16
BRANCH  11  85
ATOM     85  O           0      -4.459   1.331   2.126  0.00  0.00    -0.390
ATOM     86  H           0      -4.755   1.098   3.016  0.00  0.00     0.210
ENDBRANCH  11  85
BRANCH  12  87
ATOM     87  O           0      -7.123   1.935   3.088  0.00  0.00    -0.388
ATOM     88  H           0      -8.072   1.751   3.048  0.00  0.00     0.210
ENDBRANCH  12  87
ENDBRANCH   6   7
ENDBRANCH   5   6
ENDBRANCH   4   5
ENDBRANCH   1   4
TORSDOF 27
