REMARK  30 active torsions:
REMARK  status: ('A' for Active; 'I' for Inactive)
REMARK    1  A    between atoms: O_1  and  C_2 
REMARK    2  A    between atoms: C_2  and  C_3 
REMARK    3  A    between atoms: C_5  and  O_6 
REMARK    4  A    between atoms: O_6  and  C_7 
REMARK    5  A    between atoms: C_7  and  C_8 
REMARK    6  A    between atoms: C_8  and  N_9 
REMARK    7  A    between atoms: C_12  and  O_13 
REMARK    8  A    between atoms: C_14  and  O_15 
REMARK    9  A    between atoms: C_16  and  O_17 
REMARK   10  A    between atoms: O_17  and  C_18 
REMARK   11  A    between atoms: C_20  and  C_21 
REMARK   12  A    between atoms: C_21  and  O_22 
REMARK   13  A    between atoms: O_22  and  C_23 
REMARK   14  A    between atoms: C_23  and  C_24 
REMARK   15  A    between atoms: C_24  and  O_25 
REMARK   16  A    between atoms: C_28  and  O_29 
REMARK   17  A    between atoms: C_30  and  N_31 
REMARK       I    between atoms: N_31  and  C_32 
REMARK   18  A    between atoms: C_35  and  C_36 
REMARK   19  A    between atoms: C_36  and  O_37 
REMARK   20  A    between atoms: C_36  and  C_38 
REMARK   21  A    between atoms: C_38  and  O_39 
REMARK   22  A    between atoms: C_38  and  C_40 
REMARK   23  A    between atoms: C_40  and  N_41 
REMARK       I    between atoms: N_41  and  C_42 
REMARK   24  A    between atoms: C_42  and  O_43 
REMARK   25  A    between atoms: O_43  and  C_44 
REMARK   26  A    between atoms: C_44  and  A_45 
REMARK   27  A    between atoms: N_47  and  C_48 
REMARK   28  A    between atoms: C_62  and  O_63 
REMARK   29  A    between atoms: C_64  and  O_65 
REMARK   30  A    between atoms: C_66  and  O_67 
ROOT
ATOM      1  N           0      11.307   1.883  -1.750  0.00  0.00    -0.113
ATOM      2  N           0      12.232   2.368  -2.166  0.00  0.00    -0.168
ATOM      3  N           0      13.157   2.854  -2.582  0.00  0.00     0.068
ENDROOT
BRANCH   1   4
ATOM      4  C           0      10.823   2.250  -0.417  0.00  0.00     0.215
BRANCH   4   5
ATOM      5  C           0       9.407   2.818  -0.527  0.00  0.00     0.195
BRANCH   5   6
ATOM      6  O           0       8.518   1.796  -0.983  0.00  0.00    -0.357
BRANCH   6   7
ATOM      7  C           0       7.219   2.384  -1.065  0.00  0.00     0.291
ATOM      8  O           0       6.781   2.751   0.242  0.00  0.00    -0.348
ATOM      9  C           0       5.570   3.491   0.100  0.00  0.00     0.180
ATOM     10  C           0       4.460   2.571  -0.414  0.00  0.00     0.187
ATOM     11  C           0       4.859   2.026  -1.789  0.00  0.00     0.183
ATOM     12  C           0       6.243   1.375  -1.675  0.00  0.00     0.204
BRANCH   9  13
ATOM     13  C           0       5.165   4.068   1.458  0.00  0.00     0.198
BRANCH  13  14
ATOM     14  O           0       6.143   5.020   1.881  0.00  0.00    -0.398
ATOM     15  H           0       5.850   5.359   2.738  0.00  0.00     0.209
ENDBRANCH  13  14
ENDBRANCH   9  13
BRANCH  10  16
ATOM     16  O           0       3.242   3.310  -0.528  0.00  0.00    -0.348
BRANCH  16  17
ATOM     17  C           0       2.428   2.940   0.587  0.00  0.00     0.292
ATOM     18  C           0       1.194   3.843   0.639  0.00  0.00     0.204
ATOM     19  C           0       0.346   3.462   1.857  0.00  0.00     0.183
ATOM     20  C           0       0.051   1.959   1.796  0.00  0.00     0.180
ATOM     21  C           0       1.371   1.197   1.656  0.00  0.00     0.180
ATOM     22  O           0       2.024   1.579   0.447  0.00  0.00    -0.348
BRANCH  18  23
ATOM     23  O           0       1.605   5.207   0.750  0.00  0.00    -0.388
ATOM     24  H           0       2.134   5.405  -0.035  0.00  0.00     0.210
ENDBRANCH  18  23
BRANCH  19  25
ATOM     25  O           0      -0.882   4.192   1.839  0.00  0.00    -0.390
ATOM     26  H           0      -0.649   5.130   1.879  0.00  0.00     0.210
ENDBRANCH  19  25
BRANCH  20  27
ATOM     27  O           0      -0.784   1.679   0.671  0.00  0.00    -0.390
ATOM     28  H           0      -1.603   2.178   0.800  0.00  0.00     0.210
ENDBRANCH  20  27
BRANCH  21  29
ATOM     29  C           0       1.088  -0.307   1.628  0.00  0.00     0.207
BRANCH  29  30
ATOM     30  O           0       2.324  -1.024   1.622  0.00  0.00    -0.344
BRANCH  30  31
ATOM     31  C           0       1.994  -2.414   1.600  0.00  0.00     0.255
ATOM     32  O           0       1.120  -2.677   0.504  0.00  0.00    -0.336
ATOM     33  C           0       0.673  -4.026   0.623  0.00  0.00     0.182
ATOM     34  C           0       1.845  -4.982   0.392  0.00  0.00     0.145
ATOM     35  C           0       2.915  -4.728   1.460  0.00  0.00     0.149
ATOM     36  C           0       3.275  -3.238   1.448  0.00  0.00     0.114
BRANCH  33  37
ATOM     37  C           0      -0.415  -4.294  -0.419  0.00  0.00     0.179
BRANCH  37  38
ATOM     38  O           0      -0.869  -5.644  -0.298  0.00  0.00    -0.390
ATOM     39  H           0      -1.220  -5.741   0.598  0.00  0.00     0.210
ENDBRANCH  37  38
BRANCH  37  40
ATOM     40  C           0      -1.588  -3.339  -0.189  0.00  0.00     0.167
BRANCH  40  41
ATOM     41  O           0      -2.047  -3.464   1.159  0.00  0.00    -0.391
ATOM     42  H           0      -2.325  -4.383   1.275  0.00  0.00     0.210
ENDBRANCH  40  41
BRANCH  40  43
ATOM     43  C           0      -2.726  -3.689  -1.150  0.00  0.00     0.159
BRANCH  43  44
ATOM     44  N           0      -3.801  -2.702  -1.013  0.00  0.00    -0.334
ATOM     45  C           0      -4.914  -2.809  -1.766  0.00  0.00     0.360
ATOM     46  O           0      -5.025  -3.724  -2.558  0.00  0.00    -0.239
ATOM     47  H           0      -3.712  -1.972  -0.380  0.00  0.00     0.164
BRANCH  45  48
ATOM     48  O           0      -5.901  -1.903  -1.640  0.00  0.00    -0.298
BRANCH  48  49
ATOM     49  C           0      -7.100  -2.018  -2.452  0.00  0.00     0.243
BRANCH  49  50
ATOM     50  A           0      -8.041  -0.888  -2.121  0.00  0.00     0.100
ATOM     51  N           0      -9.240  -0.659  -2.668  0.00  0.00    -0.133
ATOM     52  N           0      -9.748   0.393  -2.130  0.00  0.00    -0.065
ATOM     53  N           0      -8.939   0.881  -1.257  0.00  0.00    -0.251
ATOM     54  A           0      -7.836   0.098  -1.216  0.00  0.00     0.146
BRANCH  53  55
ATOM     55  C           0      -9.170   2.080  -0.447  0.00  0.00     0.058
ATOM     56  C           0      -9.511   1.668   0.987  0.00  0.00     0.038
ATOM     57  C           0      -9.753   2.919   1.833  0.00  0.00    -0.011
ATOM     58  C           0      -8.491   3.784   1.838  0.00  0.00     0.009
ATOM     59  C           0     -10.917   3.718   1.242  0.00  0.00     0.009
ATOM     60  C           0      -8.150   4.196   0.404  0.00  0.00    -0.011
ATOM     61  C           0      -9.313   4.994  -0.187  0.00  0.00     0.009
ATOM     62  C           0      -7.908   2.944  -0.442  0.00  0.00     0.038
ATOM     63  C           0     -10.575   4.130  -0.192  0.00  0.00    -0.011
ATOM     64  C           0     -10.333   2.878  -1.038  0.00  0.00     0.038
ENDBRANCH  53  55
ENDBRANCH  49  50
ENDBRANCH  48  49
ENDBRANCH  45  48
ENDBRANCH  43  44
ENDBRANCH  40  43
ENDBRANCH  37  40
ENDBRANCH  33  37
BRANCH  34  65
ATOM     65  N           0       1.377  -6.367   0.487  0.00  0.00    -0.352
ATOM     66  C           0       2.051  -7.351  -0.141  0.00  0.00     0.214
ATOM     67  C           0       1.570  -8.776  -0.043  0.00  0.00     0.117
ATOM     68  O           0       3.046  -7.090  -0.784  0.00  0.00    -0.274
ATOM     69  H           0       0.582  -6.576   1.001  0.00  0.00     0.163
ENDBRANCH  34  65
BRANCH  35  70
ATOM     70  O           0       4.079  -5.505   1.172  0.00  0.00    -0.393
ATOM     71  H           0       4.727  -5.304   1.861  0.00  0.00     0.210
ENDBRANCH  35  70
BRANCH  31  72
ATOM     72  C           0       1.308  -2.787   2.889  0.00  0.00     0.205
ATOM     73  O           0       1.952  -3.234   3.808  0.00  0.00    -0.646
BRANCH  72  74
ATOM     74  O           0      -0.018  -2.623   3.015  0.00  0.00    -0.772
ATOM     75  H           0      -0.458  -2.862   3.842  0.00  0.00     0.167
ENDBRANCH  72  74
ENDBRANCH  31  72
ENDBRANCH  30  31
ENDBRANCH  29  30
ENDBRANCH  21  29
ENDBRANCH  16  17
ENDBRANCH  10  16
BRANCH  11  76
ATOM     76  O           0       3.906   1.052  -2.218  0.00  0.00    -0.390
ATOM     77  H           0       4.204   0.728  -3.079  0.00  0.00     0.210
ENDBRANCH  11  76
BRANCH  12  78
ATOM     78  O           0       6.701   0.991  -2.972  0.00  0.00    -0.388
ATOM     79  H           0       7.575   0.593  -2.854  0.00  0.00     0.210
ENDBRANCH  12  78
ENDBRANCH   6   7
ENDBRANCH   5   6
ENDBRANCH   4   5
ENDBRANCH   1   4
TORSDOF 22
