REMARK VINA RESULT:    -5.309      3.531      9.457
REMARK INTER + INTRA:         -23.229
REMARK INTER:                 -12.349
REMARK INTRA:                 -10.880
REMARK UNBOUND:                -9.852
REMARK SMILES CC(=O)N[C@@H]1[C@@H](O)C[C@](OC[C@H]2O[C@@H](O[C@H]3[C@H](O)[C@@H](O)[C@H](OCCN=[N+]=[N-])O[C@@H]3CO)[C@H](O)[C@@H](O)[C@H]2O)(C(=O)O)O[C@H]1C(O)[C@H](O)CNC(=O)OCc1cn(Cc2ccc3c(c2)OCO3)nn1
REMARK SMILES IDX 9 1 8 2 6 3 5 4 42 5 41 6 10 7 11 8 12 9 14 10 13 11 32 12
REMARK SMILES IDX 34 13 36 14 15 15 16 16 29 17 28 18 21 19 17 20 19 21 30 22
REMARK SMILES IDX 31 23 22 25 23 26 24 27 25 28 26 29 27 30 18 31 20 33 33 35
REMARK SMILES IDX 35 37 37 39 38 41 39 42 40 43 7 45 43 47 44 48 45 50 46 51
REMARK SMILES IDX 47 53 48 54 49 55 50 57 51 58 52 59 53 60 54 61 67 62 55 63
REMARK SMILES IDX 66 64 56 65 57 66 58 67 62 68 59 69 61 70 60 71 63 72 65 73
REMARK SMILES IDX 64 74 4 75 2 76 1 78 3 79
REMARK H PARENT 31 24 18 32 20 34 33 36 35 38 37 40 40 44 7 46 44 49 46 52
REMARK H PARENT 48 56 4 77
REMARK Flexibility Score: inf
ROOT
ATOM      1  C   UNL     1      24.989  37.846   9.886  1.00  0.00     0.272 C 
ATOM      2  C   UNL     1      24.860  38.564  11.214  1.00  0.00     0.113 C 
ATOM      3  C   UNL     1      23.462  38.403  11.734  1.00  0.00     0.145 C 
ATOM      4  C   UNL     1      22.536  39.097  10.701  1.00  0.00     0.142 C 
ATOM      5  C   UNL     1      22.827  38.495   9.373  1.00  0.00     0.178 C 
ATOM      6  O   UNL     1      23.762  37.463   9.401  1.00  0.00    -0.332 OA
ENDROOT
BRANCH   1   7
ATOM      7  O   UNL     1      25.862  36.752  10.001  1.00  0.00    -0.338 OA
BRANCH   7   8
ATOM      8  C   UNL     1      25.520  35.623   9.337  1.00  0.00     0.199 C 
BRANCH   8   9
ATOM      9  C   UNL     1      26.800  34.972   8.789  1.00  0.00     0.179 C 
ATOM     10  C   UNL     1      28.875  35.459   7.925  1.00  0.00     0.282 C 
ATOM     11  O   UNL     1      27.603  35.935   8.240  1.00  0.00    -0.341 OA
ATOM     12  C   UNL     1      29.592  35.108   9.232  1.00  0.00     0.202 C 
ATOM     13  C   UNL     1      28.680  34.675  10.322  1.00  0.00     0.179 C 
ATOM     14  C   UNL     1      27.435  34.062   9.778  1.00  0.00     0.177 C 
BRANCH  10  15
ATOM     15  O   UNL     1      29.581  36.434   7.340  1.00  0.00    -0.341 OA
BRANCH  15  16
ATOM     16  C   UNL     1      28.985  37.576   6.898  1.00  0.00     0.184 C 
ATOM     17  C   UNL     1      29.237  37.886   5.449  1.00  0.00     0.178 C 
ATOM     18  O   UNL     1      29.964  39.015   5.262  1.00  0.00    -0.341 OA
ATOM     19  C   UNL     1      29.389  40.207   5.748  1.00  0.00     0.281 C 
ATOM     20  C   UNL     1      29.421  38.727   7.765  1.00  0.00     0.180 C 
ATOM     21  C   UNL     1      28.878  40.004   7.156  1.00  0.00     0.202 C 
BRANCH  17  22
ATOM     22  C   UNL     1      27.914  37.996   4.732  1.00  0.00     0.191 C 
BRANCH  22  23
ATOM     23  O   UNL     1      26.947  37.163   5.352  1.00  0.00    -0.394 OA
ATOM     24  H   UNL     1      26.142  37.662   5.622  1.00  0.00     0.210 HD
ENDBRANCH  22  23
ENDBRANCH  17  22
BRANCH  19  25
ATOM     25  O   UNL     1      28.479  40.716   4.877  1.00  0.00    -0.350 OA
BRANCH  25  26
ATOM     26  C   UNL     1      27.468  41.502   5.239  1.00  0.00     0.169 C 
BRANCH  26  27
ATOM     27  C   UNL     1      26.087  41.003   4.950  1.00  0.00     0.119 C 
BRANCH  27  28
ATOM     28  N   UNL     1      25.016  41.839   5.359  1.00  0.00    -0.092 NA
ATOM     29  N   UNL     1      24.654  41.985   6.523  1.00  0.00     0.001 N 
ATOM     30  N   UNL     1      24.180  41.703   7.637  1.00  0.00    -0.003 NA
ENDBRANCH  27  28
ENDBRANCH  26  27
ENDBRANCH  25  26
ENDBRANCH  19  25
BRANCH  20  31
ATOM     31  O   UNL     1      28.853  38.556   9.025  1.00  0.00    -0.387 OA
ATOM     32  H   UNL     1      28.110  37.898   9.004  1.00  0.00     0.211 HD
ENDBRANCH  20  31
BRANCH  21  33
ATOM     33  O   UNL     1      29.305  41.039   7.984  1.00  0.00    -0.385 OA
ATOM     34  H   UNL     1      30.282  40.961   8.152  1.00  0.00     0.211 HD
ENDBRANCH  21  33
ENDBRANCH  15  16
ENDBRANCH  10  15
BRANCH  12  35
ATOM     35  O   UNL     1      30.578  34.151   8.997  1.00  0.00    -0.385 OA
ATOM     36  H   UNL     1      30.193  33.345   8.617  1.00  0.00     0.211 HD
ENDBRANCH  12  35
BRANCH  13  37
ATOM     37  O   UNL     1      28.410  35.669  11.249  1.00  0.00    -0.387 OA
ATOM     38  H   UNL     1      27.711  35.342  11.871  1.00  0.00     0.211 HD
ENDBRANCH  13  37
BRANCH  14  39
ATOM     39  O   UNL     1      26.580  33.801  10.859  1.00  0.00    -0.387 OA
ATOM     40  H   UNL     1      26.972  33.084  11.393  1.00  0.00     0.211 HD
ENDBRANCH  14  39
ENDBRANCH   8   9
ENDBRANCH   7   8
ENDBRANCH   1   7
BRANCH   1  41
ATOM     41  C   UNL     1      25.646  38.741   8.916  1.00  0.00     0.364 C 
ATOM     42  O   UNL     1      25.796  38.456   7.722  1.00  0.00    -0.246 OA
BRANCH  41  43
ATOM     43  O   UNL     1      26.143  39.988   9.307  1.00  0.00    -0.477 OA
ATOM     44  H   UNL     1      25.582  40.601   9.923  1.00  0.00     0.296 HD
ENDBRANCH  41  43
ENDBRANCH   1  41
BRANCH   3  45
ATOM     45  O   UNL     1      22.995  37.127  11.850  1.00  0.00    -0.391 OA
ATOM     46  H   UNL     1      22.081  37.061  12.225  1.00  0.00     0.211 HD
ENDBRANCH   3  45
BRANCH   5  47
ATOM     47  C   UNL     1      21.562  37.802   8.812  1.00  0.00     0.176 C 
BRANCH  47  48
ATOM     48  O   UNL     1      20.744  38.659   8.140  1.00  0.00    -0.388 OA
ATOM     49  H   UNL     1      20.711  39.529   8.604  1.00  0.00     0.211 HD
ENDBRANCH  47  48
BRANCH  47  50
ATOM     50  C   UNL     1      21.786  36.520   8.139  1.00  0.00     0.165 C 
BRANCH  50  51
ATOM     51  O   UNL     1      21.599  36.529   6.750  1.00  0.00    -0.388 OA
ATOM     52  H   UNL     1      21.048  37.308   6.477  1.00  0.00     0.211 HD
ENDBRANCH  50  51
BRANCH  50  53
ATOM     53  C   UNL     1      21.043  35.329   8.681  1.00  0.00     0.154 C 
BRANCH  53  54
ATOM     54  N   UNL     1      21.507  35.117  10.064  1.00  0.00    -0.319 N 
ATOM     55  C   UNL     1      20.662  34.548  11.059  1.00  0.00     0.407 C 
ATOM     56  H   UNL     1      22.467  35.393  10.295  1.00  0.00     0.167 HD
ATOM     57  O   UNL     1      19.494  34.231  10.708  1.00  0.00    -0.225 OA
BRANCH  55  58
ATOM     58  O   UNL     1      21.065  34.339  12.356  1.00  0.00    -0.443 OA
BRANCH  58  59
ATOM     59  C   UNL     1      22.032  33.363  12.667  1.00  0.00     0.294 C 
BRANCH  59  60
ATOM     60  C   UNL     1      23.293  34.049  13.033  1.00  0.00     0.120 A 
ATOM     61  C   UNL     1      23.813  34.272  14.303  1.00  0.00     0.138 A 
ATOM     62  N   UNL     1      24.191  34.608  12.197  1.00  0.00    -0.132 NA
ATOM     63  N   UNL     1      24.977  34.939  14.189  1.00  0.00    -0.248 N 
ATOM     64  N   UNL     1      25.180  35.129  12.911  1.00  0.00    -0.067 NA
BRANCH  63  65
ATOM     65  C   UNL     1      25.816  35.346  15.277  1.00  0.00     0.181 C 
BRANCH  65  66
ATOM     66  C   UNL     1      27.250  35.019  15.096  1.00  0.00    -0.023 A 
ATOM     67  C   UNL     1      28.143  36.001  14.800  1.00  0.00     0.010 A 
ATOM     68  C   UNL     1      27.690  33.696  15.226  1.00  0.00     0.056 A 
ATOM     69  C   UNL     1      29.465  35.675  14.634  1.00  0.00     0.051 A 
ATOM     70  C   UNL     1      29.005  33.358  15.063  1.00  0.00     0.166 A 
ATOM     71  C   UNL     1      29.888  34.379  14.762  1.00  0.00     0.165 A 
ATOM     72  O   UNL     1      29.753  32.197  15.118  1.00  0.00    -0.454 OA
ATOM     73  O   UNL     1      31.176  33.843  14.633  1.00  0.00    -0.454 OA
ATOM     74  C   UNL     1      31.128  32.559  15.219  1.00  0.00     0.468 C 
ENDBRANCH  65  66
ENDBRANCH  63  65
ENDBRANCH  59  60
ENDBRANCH  58  59
ENDBRANCH  55  58
ENDBRANCH  53  54
ENDBRANCH  50  53
ENDBRANCH  47  50
ENDBRANCH   5  47
BRANCH   4  75
ATOM     75  N   UNL     1      22.836  40.494  10.836  1.00  0.00    -0.348 N 
ATOM     76  C   UNL     1      21.828  41.444  10.459  1.00  0.00     0.217 C 
ATOM     77  H   UNL     1      23.715  40.916  11.184  1.00  0.00     0.163 HD
ATOM     78  C   UNL     1      22.117  42.913  10.586  1.00  0.00     0.114 C 
ATOM     79  O   UNL     1      20.718  41.052  10.028  1.00  0.00    -0.275 OA
ENDBRANCH   4  75
TORSDOF 31
BEGIN_RES LYS A 131
REMARK  4 active torsions:
REMARK  status: ('A' for Active; 'I' for Inactive)
REMARK    1  A    between atoms: CA   and  CB  
REMARK    2  A    between atoms: CB   and  CG  
REMARK    3  A    between atoms: CG   and  CD  
REMARK    4  A    between atoms: CD   and  CE  
ROOT
ATOM      1  CA  LYS A 131      29.867  25.555  16.977  1.00 20.52     0.186 C 
ENDROOT
BRANCH   1   2
ATOM      2  CB  LYS A 131      28.345  25.722  17.026  1.00 20.94     0.034 C 
BRANCH   2   3
ATOM      3  CG  LYS A 131      27.602  24.399  16.919  1.00 22.96     0.005 C 
BRANCH   3   4
ATOM      4  CD  LYS A 131      26.335  24.394  17.729  1.00 24.33     0.041 C 
BRANCH   4   5
ATOM      5  CE  LYS A 131      25.985  25.822  18.136  1.00 26.91     0.338 C 
ATOM      6  NZ  LYS A 131      24.570  26.121  17.813  1.00 27.40     0.618 N 
ENDBRANCH   4   5
ENDBRANCH   3   4
ENDBRANCH   2   3
ENDBRANCH   1   2
END_RES LYS A 131
BEGIN_RES LYS A 135
REMARK  4 active torsions:
REMARK  status: ('A' for Active; 'I' for Inactive)
REMARK    5  A    between atoms: CA   and  CB  
REMARK    6  A    between atoms: CB   and  CG  
REMARK    7  A    between atoms: CG   and  CD  
REMARK    8  A    between atoms: CD   and  CE  
ROOT
ATOM      7  CA  LYS A 135      33.193  34.663   9.290  1.00 25.02     0.186 C 
ENDROOT
BRANCH   7   8
ATOM      8  CB  LYS A 135      32.060  35.360  10.034  1.00 26.63     0.034 C 
BRANCH   8   9
ATOM      9  CG  LYS A 135      32.369  35.631  11.484  1.00 29.45     0.005 C 
BRANCH   9  10
ATOM     10  CD  LYS A 135      31.891  37.019  11.884  1.00 32.00     0.041 C 
BRANCH  10  11
ATOM     11  CE  LYS A 135      31.823  37.929  10.672  1.00 34.25     0.338 C 
ATOM     12  NZ  LYS A 135      31.548  39.336  11.073  1.00 35.99     0.618 N 
ENDBRANCH  10  11
ENDBRANCH   9  10
ENDBRANCH   8   9
ENDBRANCH   7   8
END_RES LYS A 135
