REMARK VINA RESULT:    -4.292      2.590      3.990
REMARK INTER + INTRA:         -21.508
REMARK INTER:                 -13.126
REMARK INTRA:                  -8.382
REMARK UNBOUND:               -10.944
REMARK SMILES CC(=O)N[C@@H]1[C@@H](O)C[C@](OC[C@H]2O[C@@H](O[C@H]3[C@H](O)[C@@H](O)[C@H](OCCN=[N+]=[N-])O[C@@H]3CO)[C@H](O)[C@@H](O)[C@H]2O)(C(=O)O)O[C@H]1C(O)[C@H](O)CNC(=O)OCc1cn(-c2cccnc2)nn1
REMARK SMILES IDX 9 1 8 2 6 3 5 4 42 5 41 6 10 7 11 8 12 9 14 10 13 11 32 12
REMARK SMILES IDX 34 13 36 14 15 15 16 16 29 17 28 18 21 19 17 20 19 21 30 22
REMARK SMILES IDX 31 23 22 25 23 26 24 27 25 28 26 29 27 30 18 31 20 33 33 35
REMARK SMILES IDX 35 37 37 39 38 41 39 42 40 43 7 45 43 47 44 48 45 50 46 51
REMARK SMILES IDX 47 53 48 54 49 55 50 57 51 58 52 59 53 60 54 61 63 62 55 63
REMARK SMILES IDX 62 64 56 65 57 66 61 67 58 68 60 69 59 70 4 71 2 72 1 74
REMARK SMILES IDX 3 75
REMARK H PARENT 31 24 18 32 20 34 33 36 35 38 37 40 40 44 7 46 44 49 46 52
REMARK H PARENT 48 56 4 73
REMARK Flexibility Score: inf
ROOT
ATOM      1  C   UNL     1      30.529  31.026  21.158  1.00  0.00     0.272 C 
ATOM      2  C   UNL     1      31.445  30.166  20.385  1.00  0.00     0.113 C 
ATOM      3  C   UNL     1      31.721  28.875  21.073  1.00  0.00     0.145 C 
ATOM      4  C   UNL     1      30.518  28.263  21.745  1.00  0.00     0.142 C 
ATOM      5  C   UNL     1      29.278  29.067  21.586  1.00  0.00     0.178 C 
ATOM      6  O   UNL     1      29.474  30.421  21.817  1.00  0.00    -0.332 OA
ENDROOT
BRANCH   1   7
ATOM      7  O   UNL     1      29.929  32.005  20.369  1.00  0.00    -0.338 OA
BRANCH   7   8
ATOM      8  C   UNL     1      30.505  32.268  19.168  1.00  0.00     0.199 C 
BRANCH   8   9
ATOM      9  C   UNL     1      29.367  32.617  18.190  1.00  0.00     0.179 C 
ATOM     10  C   UNL     1      30.735  33.555  16.536  1.00  0.00     0.282 C 
ATOM     11  O   UNL     1      29.703  33.678  17.441  1.00  0.00    -0.341 OA
ATOM     12  C   UNL     1      30.645  32.252  15.818  1.00  0.00     0.202 C 
ATOM     13  C   UNL     1      29.196  31.758  15.937  1.00  0.00     0.179 C 
ATOM     14  C   UNL     1      28.935  31.399  17.392  1.00  0.00     0.177 C 
BRANCH  10  15
ATOM     15  O   UNL     1      31.913  33.736  17.257  1.00  0.00    -0.341 OA
BRANCH  15  16
ATOM     16  C   UNL     1      32.551  34.907  17.014  1.00  0.00     0.184 C 
ATOM     17  C   UNL     1      32.240  36.033  17.952  1.00  0.00     0.178 C 
ATOM     18  O   UNL     1      33.331  36.902  17.935  1.00  0.00    -0.341 OA
ATOM     19  C   UNL     1      33.815  37.164  16.658  1.00  0.00     0.281 C 
ATOM     20  C   UNL     1      32.263  35.478  15.629  1.00  0.00     0.180 C 
ATOM     21  C   UNL     1      32.792  36.918  15.573  1.00  0.00     0.202 C 
BRANCH  17  22
ATOM     22  C   UNL     1      31.926  35.661  19.354  1.00  0.00     0.191 C 
BRANCH  22  23
ATOM     23  O   UNL     1      32.781  34.717  19.858  1.00  0.00    -0.394 OA
ATOM     24  H   UNL     1      33.698  34.954  19.566  1.00  0.00     0.210 HD
ENDBRANCH  22  23
ENDBRANCH  17  22
BRANCH  19  25
ATOM     25  O   UNL     1      34.958  36.482  16.356  1.00  0.00    -0.350 OA
BRANCH  25  26
ATOM     26  C   UNL     1      36.095  36.735  17.036  1.00  0.00     0.169 C 
BRANCH  26  27
ATOM     27  C   UNL     1      37.061  35.623  17.246  1.00  0.00     0.119 C 
BRANCH  27  28
ATOM     28  N   UNL     1      38.073  35.452  16.261  1.00  0.00    -0.092 NA
ATOM     29  N   UNL     1      37.834  35.007  15.119  1.00  0.00     0.001 N 
ATOM     30  N   UNL     1      37.618  34.109  14.287  1.00  0.00    -0.003 NA
ENDBRANCH  27  28
ENDBRANCH  26  27
ENDBRANCH  25  26
ENDBRANCH  19  25
BRANCH  20  31
ATOM     31  O   UNL     1      32.964  34.751  14.678  1.00  0.00    -0.387 OA
ATOM     32  H   UNL     1      32.498  34.711  13.802  1.00  0.00     0.211 HD
ENDBRANCH  20  31
BRANCH  21  33
ATOM     33  O   UNL     1      31.759  37.849  15.653  1.00  0.00    -0.385 OA
ATOM     34  H   UNL     1      31.842  38.468  14.887  1.00  0.00     0.211 HD
ENDBRANCH  21  33
ENDBRANCH  15  16
ENDBRANCH  10  15
BRANCH  12  35
ATOM     35  O   UNL     1      30.812  32.464  14.436  1.00  0.00    -0.385 OA
ATOM     36  H   UNL     1      30.097  33.102  14.131  1.00  0.00     0.211 HD
ENDBRANCH  12  35
BRANCH  13  37
ATOM     37  O   UNL     1      28.911  30.728  15.078  1.00  0.00    -0.387 OA
ATOM     38  H   UNL     1      29.531  29.974  15.239  1.00  0.00     0.211 HD
ENDBRANCH  13  37
BRANCH  14  39
ATOM     39  O   UNL     1      29.604  30.248  17.755  1.00  0.00    -0.387 OA
ATOM     40  H   UNL     1      30.576  30.458  17.772  1.00  0.00     0.211 HD
ENDBRANCH  14  39
ENDBRANCH   8   9
ENDBRANCH   7   8
ENDBRANCH   1   7
BRANCH   1  41
ATOM     41  C   UNL     1      31.373  31.756  22.184  1.00  0.00     0.364 C 
ATOM     42  O   UNL     1      32.390  32.355  21.796  1.00  0.00    -0.246 OA
BRANCH  41  43
ATOM     43  O   UNL     1      31.064  31.782  23.521  1.00  0.00    -0.477 OA
ATOM     44  H   UNL     1      31.692  31.519  24.271  1.00  0.00     0.296 HD
ENDBRANCH  41  43
ENDBRANCH   1  41
BRANCH   3  45
ATOM     45  O   UNL     1      32.223  27.998  20.083  1.00  0.00    -0.391 OA
ATOM     46  H   UNL     1      32.690  28.474  19.370  1.00  0.00     0.211 HD
ENDBRANCH   3  45
BRANCH   5  47
ATOM     47  C   UNL     1      28.497  28.816  20.340  1.00  0.00     0.176 C 
BRANCH  47  48
ATOM     48  O   UNL     1      27.618  29.915  20.156  1.00  0.00    -0.388 OA
ATOM     49  H   UNL     1      26.987  29.946  20.926  1.00  0.00     0.211 HD
ENDBRANCH  47  48
BRANCH  47  50
ATOM     50  C   UNL     1      27.634  27.594  20.318  1.00  0.00     0.165 C 
BRANCH  50  51
ATOM     51  O   UNL     1      28.490  26.638  19.622  1.00  0.00    -0.388 OA
ATOM     52  H   UNL     1      28.600  25.894  20.262  1.00  0.00     0.211 HD
ENDBRANCH  50  51
BRANCH  50  53
ATOM     53  C   UNL     1      26.440  27.658  19.421  1.00  0.00     0.154 C 
BRANCH  53  54
ATOM     54  N   UNL     1      26.678  27.948  18.044  1.00  0.00    -0.319 N 
ATOM     55  C   UNL     1      26.043  29.117  17.483  1.00  0.00     0.407 C 
ATOM     56  H   UNL     1      27.269  27.425  17.405  1.00  0.00     0.167 HD
ATOM     57  O   UNL     1      25.324  29.810  18.232  1.00  0.00    -0.225 OA
BRANCH  55  58
ATOM     58  O   UNL     1      26.212  29.469  16.167  1.00  0.00    -0.443 OA
BRANCH  58  59
ATOM     59  C   UNL     1      25.591  30.625  15.662  1.00  0.00     0.294 C 
BRANCH  59  60
ATOM     60  C   UNL     1      24.568  30.225  14.674  1.00  0.00     0.121 A 
ATOM     61  C   UNL     1      23.381  29.556  14.869  1.00  0.00     0.144 A 
ATOM     62  N   UNL     1      24.623  30.460  13.328  1.00  0.00    -0.131 NA
ATOM     63  N   UNL     1      22.760  29.404  13.688  1.00  0.00    -0.219 N 
ATOM     64  N   UNL     1      23.537  29.961  12.777  1.00  0.00    -0.062 NA
BRANCH  63  65
ATOM     65  C   UNL     1      21.517  28.790  13.361  1.00  0.00     0.085 A 
ATOM     66  C   UNL     1      20.800  28.035  14.264  1.00  0.00     0.031 A 
ATOM     67  C   UNL     1      20.971  28.921  12.098  1.00  0.00     0.139 A 
ATOM     68  C   UNL     1      19.604  27.445  13.922  1.00  0.00     0.022 A 
ATOM     69  N   UNL     1      19.792  28.335  11.773  1.00  0.00    -0.262 NA
ATOM     70  C   UNL     1      19.092  27.598  12.653  1.00  0.00     0.111 A 
ENDBRANCH  63  65
ENDBRANCH  59  60
ENDBRANCH  58  59
ENDBRANCH  55  58
ENDBRANCH  53  54
ENDBRANCH  50  53
ENDBRANCH  47  50
ENDBRANCH   5  47
BRANCH   4  71
ATOM     71  N   UNL     1      30.782  28.035  23.163  1.00  0.00    -0.348 N 
ATOM     72  C   UNL     1      30.452  26.840  23.847  1.00  0.00     0.217 C 
ATOM     73  H   UNL     1      31.245  28.786  23.746  1.00  0.00     0.163 HD
ATOM     74  C   UNL     1      30.737  26.656  25.305  1.00  0.00     0.114 C 
ATOM     75  O   UNL     1      29.902  25.888  23.230  1.00  0.00    -0.275 OA
ENDBRANCH   4  71
TORSDOF 30
BEGIN_RES LYS A 131
REMARK  4 active torsions:
REMARK  status: ('A' for Active; 'I' for Inactive)
REMARK    1  A    between atoms: CA   and  CB  
REMARK    2  A    between atoms: CB   and  CG  
REMARK    3  A    between atoms: CG   and  CD  
REMARK    4  A    between atoms: CD   and  CE  
ROOT
ATOM      1  CA  LYS A 131      29.867  25.555  16.977  1.00 20.52     0.186 C 
ENDROOT
BRANCH   1   2
ATOM      2  CB  LYS A 131      28.345  25.722  17.026  1.00 20.94     0.034 C 
BRANCH   2   3
ATOM      3  CG  LYS A 131      27.599  24.458  16.627  1.00 22.96     0.005 C 
BRANCH   3   4
ATOM      4  CD  LYS A 131      27.025  23.740  17.817  1.00 24.33     0.041 C 
BRANCH   4   5
ATOM      5  CE  LYS A 131      25.657  24.324  18.154  1.00 26.91     0.338 C 
ATOM      6  NZ  LYS A 131      24.691  24.044  17.065  1.00 27.40     0.618 N 
ENDBRANCH   4   5
ENDBRANCH   3   4
ENDBRANCH   2   3
ENDBRANCH   1   2
END_RES LYS A 131
BEGIN_RES LYS A 135
REMARK  4 active torsions:
REMARK  status: ('A' for Active; 'I' for Inactive)
REMARK    5  A    between atoms: CA   and  CB  
REMARK    6  A    between atoms: CB   and  CG  
REMARK    7  A    between atoms: CG   and  CD  
REMARK    8  A    between atoms: CD   and  CE  
ROOT
ATOM      7  CA  LYS A 135      33.193  34.663   9.290  1.00 25.02     0.186 C 
ENDROOT
BRANCH   7   8
ATOM      8  CB  LYS A 135      32.060  35.360  10.034  1.00 26.63     0.034 C 
BRANCH   8   9
ATOM      9  CG  LYS A 135      30.786  35.458   9.236  1.00 29.45     0.005 C 
BRANCH   9  10
ATOM     10  CD  LYS A 135      30.224  34.074   8.949  1.00 32.00     0.041 C 
BRANCH  10  11
ATOM     11  CE  LYS A 135      28.744  34.022   9.274  1.00 34.25     0.338 C 
ATOM     12  NZ  LYS A 135      28.470  34.595  10.621  1.00 35.99     0.618 N 
ENDBRANCH  10  11
ENDBRANCH   9  10
ENDBRANCH   8   9
ENDBRANCH   7   8
END_RES LYS A 135
