REMARK VINA RESULT:    -4.098      2.369      7.498
REMARK INTER + INTRA:         -22.717
REMARK INTER:                 -12.815
REMARK INTRA:                  -9.902
REMARK UNBOUND:               -12.270
REMARK SMILES CC(=O)N[C@@H]1[C@@H](O)C[C@](OC[C@H]2O[C@@H](O[C@H]3[C@H](O)[C@@H](O)[C@H](OCCN=[N+]=[N-])O[C@@H]3CO)[C@H](O)[C@@H](O)[C@H]2O)(C(=O)O)O[C@H]1C(O)[C@H](O)CNC(=O)OCc1cn(-c2ccc(S(N)(=O)=O)cc2)nn1
REMARK SMILES IDX 9 1 8 2 6 3 5 4 42 5 41 6 10 7 11 8 12 9 14 10 13 11 32 12
REMARK SMILES IDX 34 13 36 14 15 15 16 16 29 17 28 18 21 19 17 20 19 21 30 22
REMARK SMILES IDX 31 23 22 25 23 26 24 27 25 28 26 29 27 30 18 31 20 33 33 35
REMARK SMILES IDX 35 37 37 39 38 41 39 42 40 43 7 45 43 47 44 48 45 50 46 51
REMARK SMILES IDX 47 53 48 54 49 55 50 57 51 58 52 59 53 60 54 61 67 62 55 63
REMARK SMILES IDX 66 64 56 65 57 66 65 67 58 68 64 69 59 70 60 71 62 72 63 73
REMARK SMILES IDX 61 74 4 77 2 78 1 80 3 81
REMARK H PARENT 31 24 18 32 20 34 33 36 35 38 37 40 40 44 7 46 44 49 46 52
REMARK H PARENT 48 56 61 75 61 76 4 79
REMARK Flexibility Score: inf
ROOT
ATOM      1  C   UNL     1      24.814  36.903  10.342  1.00  0.00     0.272 C 
ATOM      2  C   UNL     1      24.796  38.345  10.875  1.00  0.00     0.113 C 
ATOM      3  C   UNL     1      24.302  39.313   9.858  1.00  0.00     0.145 C 
ATOM      4  C   UNL     1      24.851  38.933   8.507  1.00  0.00     0.142 C 
ATOM      5  C   UNL     1      26.089  38.077   8.802  1.00  0.00     0.178 C 
ATOM      6  O   UNL     1      25.596  36.841   9.213  1.00  0.00    -0.332 OA
ENDROOT
BRANCH   1   7
ATOM      7  O   UNL     1      23.482  36.566  10.140  1.00  0.00    -0.338 OA
BRANCH   7   8
ATOM      8  C   UNL     1      23.263  35.720   9.090  1.00  0.00     0.199 C 
BRANCH   8   9
ATOM      9  C   UNL     1      21.740  35.597   8.906  1.00  0.00     0.179 C 
ATOM     10  C   UNL     1      19.839  36.024  10.200  1.00  0.00     0.282 C 
ATOM     11  O   UNL     1      21.197  35.581  10.151  1.00  0.00    -0.341 OA
ATOM     12  C   UNL     1      19.935  37.478   9.838  1.00  0.00     0.202 C 
ATOM     13  C   UNL     1      20.305  37.618   8.367  1.00  0.00     0.179 C 
ATOM     14  C   UNL     1      21.198  36.529   7.900  1.00  0.00     0.177 C 
BRANCH  10  15
ATOM     15  O   UNL     1      19.410  35.848  11.469  1.00  0.00    -0.341 OA
BRANCH  15  16
ATOM     16  C   UNL     1      20.391  35.365  12.374  1.00  0.00     0.184 C 
ATOM     17  C   UNL     1      19.831  34.219  13.084  1.00  0.00     0.178 C 
ATOM     18  O   UNL     1      20.110  34.116  14.431  1.00  0.00    -0.341 OA
ATOM     19  C   UNL     1      21.244  34.735  14.875  1.00  0.00     0.281 C 
ATOM     20  C   UNL     1      20.873  36.507  13.238  1.00  0.00     0.180 C 
ATOM     21  C   UNL     1      21.061  36.216  14.676  1.00  0.00     0.202 C 
BRANCH  17  22
ATOM     22  C   UNL     1      20.183  32.877  12.474  1.00  0.00     0.191 C 
BRANCH  22  23
ATOM     23  O   UNL     1      21.372  32.960  11.764  1.00  0.00    -0.394 OA
ATOM     24  H   UNL     1      21.716  33.887  11.721  1.00  0.00     0.210 HD
ENDBRANCH  22  23
ENDBRANCH  17  22
BRANCH  19  25
ATOM     25  O   UNL     1      22.430  34.270  14.358  1.00  0.00    -0.350 OA
BRANCH  25  26
ATOM     26  C   UNL     1      22.856  33.152  15.064  1.00  0.00     0.169 C 
BRANCH  26  27
ATOM     27  C   UNL     1      24.207  32.727  14.495  1.00  0.00     0.119 C 
BRANCH  27  28
ATOM     28  N   UNL     1      23.984  32.134  13.206  1.00  0.00    -0.092 NA
ATOM     29  N   UNL     1      23.695  30.924  13.073  1.00  0.00     0.001 N 
ATOM     30  N   UNL     1      23.985  29.741  12.827  1.00  0.00    -0.003 NA
ENDBRANCH  27  28
ENDBRANCH  26  27
ENDBRANCH  25  26
ENDBRANCH  19  25
BRANCH  20  31
ATOM     31  O   UNL     1      22.071  37.036  12.750  1.00  0.00    -0.387 OA
ATOM     32  H   UNL     1      22.786  36.876  13.408  1.00  0.00     0.211 HD
ENDBRANCH  20  31
BRANCH  21  33
ATOM     33  O   UNL     1      20.033  36.675  15.492  1.00  0.00    -0.385 OA
ATOM     34  H   UNL     1      20.454  36.752  16.408  1.00  0.00     0.211 HD
ENDBRANCH  21  33
ENDBRANCH  15  16
ENDBRANCH  10  15
BRANCH  12  35
ATOM     35  O   UNL     1      18.867  38.246  10.199  1.00  0.00    -0.385 OA
ATOM     36  H   UNL     1      18.876  39.165   9.867  1.00  0.00     0.211 HD
ENDBRANCH  12  35
BRANCH  13  37
ATOM     37  O   UNL     1      20.734  38.902   8.072  1.00  0.00    -0.387 OA
ATOM     38  H   UNL     1      20.902  39.081   7.125  1.00  0.00     0.211 HD
ENDBRANCH  13  37
BRANCH  14  39
ATOM     39  O   UNL     1      22.301  37.143   7.256  1.00  0.00    -0.387 OA
ATOM     40  H   UNL     1      22.630  37.828   7.908  1.00  0.00     0.211 HD
ENDBRANCH  14  39
ENDBRANCH   8   9
ENDBRANCH   7   8
ENDBRANCH   1   7
BRANCH   1  41
ATOM     41  C   UNL     1      25.393  36.105  11.486  1.00  0.00     0.364 C 
ATOM     42  O   UNL     1      24.649  35.509  12.301  1.00  0.00    -0.246 OA
BRANCH  41  43
ATOM     43  O   UNL     1      26.758  36.002  11.670  1.00  0.00    -0.477 OA
ATOM     44  H   UNL     1      27.098  35.343  12.354  1.00  0.00     0.296 HD
ENDBRANCH  41  43
ENDBRANCH   1  41
BRANCH   3  45
ATOM     45  O   UNL     1      22.910  39.335   9.903  1.00  0.00    -0.391 OA
ATOM     46  H   UNL     1      22.612  39.124  10.818  1.00  0.00     0.211 HD
ENDBRANCH   3  45
BRANCH   5  47
ATOM     47  C   UNL     1      26.919  37.887   7.561  1.00  0.00     0.176 C 
BRANCH  47  48
ATOM     48  O   UNL     1      26.187  37.851   6.392  1.00  0.00    -0.388 OA
ATOM     49  H   UNL     1      25.596  37.059   6.329  1.00  0.00     0.211 HD
ENDBRANCH  47  48
BRANCH  47  50
ATOM     50  C   UNL     1      27.978  38.962   7.468  1.00  0.00     0.165 C 
BRANCH  50  51
ATOM     51  O   UNL     1      27.993  39.521   6.172  1.00  0.00    -0.388 OA
ATOM     52  H   UNL     1      28.931  39.564   5.829  1.00  0.00     0.211 HD
ENDBRANCH  50  51
BRANCH  50  53
ATOM     53  C   UNL     1      29.348  38.435   7.812  1.00  0.00     0.154 C 
BRANCH  53  54
ATOM     54  N   UNL     1      29.914  39.109   8.956  1.00  0.00    -0.319 N 
ATOM     55  C   UNL     1      29.542  38.707  10.265  1.00  0.00     0.407 C 
ATOM     56  H   UNL     1      30.592  39.890   8.863  1.00  0.00     0.167 HD
ATOM     57  O   UNL     1      28.713  37.759  10.396  1.00  0.00    -0.225 OA
BRANCH  55  58
ATOM     58  O   UNL     1      30.029  39.285  11.425  1.00  0.00    -0.443 OA
BRANCH  58  59
ATOM     59  C   UNL     1      31.365  39.139  11.841  1.00  0.00     0.294 C 
BRANCH  59  60
ATOM     60  C   UNL     1      31.600  37.723  12.229  1.00  0.00     0.121 A 
ATOM     61  C   UNL     1      30.812  36.971  13.109  1.00  0.00     0.144 A 
ATOM     62  N   UNL     1      32.571  36.875  11.851  1.00  0.00    -0.131 NA
ATOM     63  N   UNL     1      31.335  35.726  13.221  1.00  0.00    -0.220 N 
ATOM     64  N   UNL     1      32.387  35.693  12.458  1.00  0.00    -0.062 NA
BRANCH  63  65
ATOM     65  C   UNL     1      30.829  34.654  14.025  1.00  0.00     0.066 A 
ATOM     66  C   UNL     1      31.673  33.862  14.769  1.00  0.00     0.030 A 
ATOM     67  C   UNL     1      29.480  34.386  14.082  1.00  0.00     0.030 A 
ATOM     68  C   UNL     1      31.177  32.822  15.553  1.00  0.00     0.024 A 
ATOM     69  C   UNL     1      28.973  33.349  14.863  1.00  0.00     0.024 A 
ATOM     70  C   UNL     1      29.823  32.556  15.607  1.00  0.00     0.082 A 
BRANCH  70  71
ATOM     71  S   UNL     1      29.227  31.233  16.610  1.00  0.00     0.238 S 
ATOM     72  O   UNL     1      30.199  30.917  17.721  1.00  0.00    -0.207 OA
ATOM     73  O   UNL     1      27.927  31.609  17.252  1.00  0.00    -0.207 OA
BRANCH  71  74
ATOM     74  N   UNL     1      28.974  29.802  15.660  1.00  0.00    -0.225 NA
ATOM     75  H   UNL     1      27.932  29.720  15.487  1.00  0.00     0.137 HD
ATOM     76  H   UNL     1      29.333  28.942  16.137  1.00  0.00     0.137 HD
ENDBRANCH  71  74
ENDBRANCH  70  71
ENDBRANCH  63  65
ENDBRANCH  59  60
ENDBRANCH  58  59
ENDBRANCH  55  58
ENDBRANCH  53  54
ENDBRANCH  50  53
ENDBRANCH  47  50
ENDBRANCH   5  47
BRANCH   4  77
ATOM     77  N   UNL     1      25.188  40.051   7.666  1.00  0.00    -0.348 N 
ATOM     78  C   UNL     1      24.192  40.691   6.901  1.00  0.00     0.217 C 
ATOM     79  H   UNL     1      26.162  40.402   7.612  1.00  0.00     0.163 HD
ATOM     80  C   UNL     1      24.580  41.840   6.045  1.00  0.00     0.114 C 
ATOM     81  O   UNL     1      22.992  40.333   6.910  1.00  0.00    -0.275 OA
ENDBRANCH   4  77
TORSDOF 32
BEGIN_RES LYS A 131
REMARK  4 active torsions:
REMARK  status: ('A' for Active; 'I' for Inactive)
REMARK    1  A    between atoms: CA   and  CB  
REMARK    2  A    between atoms: CB   and  CG  
REMARK    3  A    between atoms: CG   and  CD  
REMARK    4  A    between atoms: CD   and  CE  
ROOT
ATOM      1  CA  LYS A 131      29.867  25.555  16.977  1.00 20.52     0.186 C 
ENDROOT
BRANCH   1   2
ATOM      2  CB  LYS A 131      28.345  25.722  17.026  1.00 20.94     0.034 C 
BRANCH   2   3
ATOM      3  CG  LYS A 131      27.599  24.447  16.664  1.00 22.96     0.005 C 
BRANCH   3   4
ATOM      4  CD  LYS A 131      26.279  24.342  17.376  1.00 24.33     0.041 C 
BRANCH   4   5
ATOM      5  CE  LYS A 131      26.277  25.272  18.585  1.00 26.91     0.338 C 
ATOM      6  NZ  LYS A 131      25.530  24.660  19.710  1.00 27.40     0.618 N 
ENDBRANCH   4   5
ENDBRANCH   3   4
ENDBRANCH   2   3
ENDBRANCH   1   2
END_RES LYS A 131
BEGIN_RES LYS A 135
REMARK  4 active torsions:
REMARK  status: ('A' for Active; 'I' for Inactive)
REMARK    5  A    between atoms: CA   and  CB  
REMARK    6  A    between atoms: CB   and  CG  
REMARK    7  A    between atoms: CG   and  CD  
REMARK    8  A    between atoms: CD   and  CE  
ROOT
ATOM      7  CA  LYS A 135      33.193  34.663   9.290  1.00 25.02     0.186 C 
ENDROOT
BRANCH   7   8
ATOM      8  CB  LYS A 135      32.060  35.360  10.034  1.00 26.63     0.034 C 
BRANCH   8   9
ATOM      9  CG  LYS A 135      30.728  35.255   9.338  1.00 29.45     0.005 C 
BRANCH   9  10
ATOM     10  CD  LYS A 135      29.743  34.460  10.181  1.00 32.00     0.041 C 
BRANCH  10  11
ATOM     11  CE  LYS A 135      28.536  34.059   9.354  1.00 34.25     0.338 C 
ATOM     12  NZ  LYS A 135      28.565  34.707   8.014  1.00 35.99     0.618 N 
ENDBRANCH  10  11
ENDBRANCH   9  10
ENDBRANCH   8   9
ENDBRANCH   7   8
END_RES LYS A 135
