REMARK VINA RESULT:    -5.295      3.094     10.529
REMARK INTER + INTRA:         -23.195
REMARK INTER:                 -11.867
REMARK INTRA:                 -11.328
REMARK UNBOUND:                -9.852
REMARK SMILES CC(=O)N[C@@H]1[C@@H](O)C[C@](OC[C@H]2O[C@@H](O[C@H]3[C@H](O)[C@@H](O)[C@H](OCCN=[N+]=[N-])O[C@@H]3CO)[C@H](O)[C@@H](O)[C@H]2O)(C(=O)O)O[C@H]1C(O)[C@H](O)CNC(=O)OCc1cn(Cc2ccc3c(c2)OCO3)nn1
REMARK SMILES IDX 9 1 8 2 6 3 5 4 42 5 41 6 10 7 11 8 12 9 14 10 13 11 32 12
REMARK SMILES IDX 34 13 36 14 15 15 16 16 29 17 28 18 21 19 17 20 19 21 30 22
REMARK SMILES IDX 31 23 22 25 23 26 24 27 25 28 26 29 27 30 18 31 20 33 33 35
REMARK SMILES IDX 35 37 37 39 38 41 39 42 40 43 7 45 43 47 44 48 45 50 46 51
REMARK SMILES IDX 47 53 48 54 49 55 50 57 51 58 52 59 53 60 54 61 67 62 55 63
REMARK SMILES IDX 66 64 56 65 57 66 58 67 62 68 59 69 61 70 60 71 63 72 65 73
REMARK SMILES IDX 64 74 4 75 2 76 1 78 3 79
REMARK H PARENT 31 24 18 32 20 34 33 36 35 38 37 40 40 44 7 46 44 49 46 52
REMARK H PARENT 48 56 4 77
REMARK Flexibility Score: inf
ROOT
ATOM      1  C   UNL     1      28.663  39.111   7.967  1.00  0.00     0.272 C 
ATOM      2  C   UNL     1      29.629  37.951   7.822  1.00  0.00     0.113 C 
ATOM      3  C   UNL     1      30.714  38.076   8.849  1.00  0.00     0.145 C 
ATOM      4  C   UNL     1      31.466  39.394   8.524  1.00  0.00     0.142 C 
ATOM      5  C   UNL     1      30.454  40.482   8.488  1.00  0.00     0.178 C 
ATOM      6  O   UNL     1      29.161  40.076   8.808  1.00  0.00    -0.332 OA
ENDROOT
BRANCH   1   7
ATOM      7  O   UNL     1      27.406  38.653   8.393  1.00  0.00    -0.338 OA
BRANCH   7   8
ATOM      8  C   UNL     1      27.002  37.449   7.925  1.00  0.00     0.199 C 
BRANCH   8   9
ATOM      9  C   UNL     1      25.818  36.966   8.777  1.00  0.00     0.179 C 
ATOM     10  C   UNL     1      25.060  36.826  10.945  1.00  0.00     0.282 C 
ATOM     11  O   UNL     1      26.153  37.033  10.103  1.00  0.00    -0.341 OA
ATOM     12  C   UNL     1      24.092  37.999  10.768  1.00  0.00     0.202 C 
ATOM     13  C   UNL     1      24.120  38.605   9.413  1.00  0.00     0.179 C 
ATOM     14  C   UNL     1      24.540  37.613   8.382  1.00  0.00     0.177 C 
BRANCH  10  15
ATOM     15  O   UNL     1      25.471  36.845  12.218  1.00  0.00    -0.341 OA
BRANCH  15  16
ATOM     16  C   UNL     1      25.808  35.699  12.873  1.00  0.00     0.184 C 
ATOM     17  C   UNL     1      24.875  35.325  13.990  1.00  0.00     0.178 C 
ATOM     18  O   UNL     1      25.456  35.376  15.214  1.00  0.00    -0.341 OA
ATOM     19  C   UNL     1      26.553  34.514  15.413  1.00  0.00     0.281 C 
ATOM     20  C   UNL     1      27.219  35.822  13.386  1.00  0.00     0.180 C 
ATOM     21  C   UNL     1      27.512  34.610  14.247  1.00  0.00     0.202 C 
BRANCH  17  22
ATOM     22  C   UNL     1      24.330  33.942  13.732  1.00  0.00     0.191 C 
BRANCH  22  23
ATOM     23  O   UNL     1      24.743  33.479  12.456  1.00  0.00    -0.394 OA
ATOM     24  H   UNL     1      25.608  33.861  12.182  1.00  0.00     0.210 HD
ENDBRANCH  22  23
ENDBRANCH  17  22
BRANCH  19  25
ATOM     25  O   UNL     1      26.151  33.253  15.719  1.00  0.00    -0.350 OA
BRANCH  25  26
ATOM     26  C   UNL     1      26.966  32.202  15.744  1.00  0.00     0.169 C 
BRANCH  26  27
ATOM     27  C   UNL     1      26.358  30.868  15.443  1.00  0.00     0.119 C 
BRANCH  27  28
ATOM     28  N   UNL     1      26.526  29.862  16.430  1.00  0.00    -0.092 NA
ATOM     29  N   UNL     1      26.211  29.987  17.610  1.00  0.00     0.001 N 
ATOM     30  N   UNL     1      26.225  30.412  18.779  1.00  0.00    -0.003 NA
ENDBRANCH  27  28
ENDBRANCH  26  27
ENDBRANCH  25  26
ENDBRANCH  19  25
BRANCH  20  31
ATOM     31  O   UNL     1      28.078  35.811  12.291  1.00  0.00    -0.387 OA
ATOM     32  H   UNL     1      27.859  35.075  11.662  1.00  0.00     0.211 HD
ENDBRANCH  20  31
BRANCH  21  33
ATOM     33  O   UNL     1      28.818  34.766  14.702  1.00  0.00    -0.385 OA
ATOM     34  H   UNL     1      29.428  34.156  14.206  1.00  0.00     0.211 HD
ENDBRANCH  21  33
ENDBRANCH  15  16
ENDBRANCH  10  15
BRANCH  12  35
ATOM     35  O   UNL     1      22.799  37.610  11.114  1.00  0.00    -0.385 OA
ATOM     36  H   UNL     1      22.602  37.846  12.035  1.00  0.00     0.211 HD
ENDBRANCH  12  35
BRANCH  13  37
ATOM     37  O   UNL     1      24.860  39.775   9.342  1.00  0.00    -0.387 OA
ATOM     38  H   UNL     1      24.348  40.443   8.817  1.00  0.00     0.211 HD
ENDBRANCH  13  37
BRANCH  14  39
ATOM     39  O   UNL     1      24.665  38.293   7.161  1.00  0.00    -0.387 OA
ATOM     40  H   UNL     1      25.208  37.746   6.561  1.00  0.00     0.211 HD
ENDBRANCH  14  39
ENDBRANCH   8   9
ENDBRANCH   7   8
ENDBRANCH   1   7
BRANCH   1  41
ATOM     41  C   UNL     1      28.412  39.696   6.637  1.00  0.00     0.364 C 
ATOM     42  O   UNL     1      27.599  40.609   6.439  1.00  0.00    -0.246 OA
BRANCH  41  43
ATOM     43  O   UNL     1      29.094  39.239   5.506  1.00  0.00    -0.477 OA
ATOM     44  H   UNL     1      28.619  39.215   4.588  1.00  0.00     0.296 HD
ENDBRANCH  41  43
ENDBRANCH   1  41
BRANCH   3  45
ATOM     45  O   UNL     1      30.318  38.189  10.149  1.00  0.00    -0.391 OA
ATOM     46  H   UNL     1      31.003  37.913  10.809  1.00  0.00     0.211 HD
ENDBRANCH   3  45
BRANCH   5  47
ATOM     47  C   UNL     1      30.766  41.537   9.577  1.00  0.00     0.176 C 
BRANCH  47  48
ATOM     48  O   UNL     1      31.967  42.151   9.389  1.00  0.00    -0.388 OA
ATOM     49  H   UNL     1      32.067  42.419   8.445  1.00  0.00     0.211 HD
ENDBRANCH  47  48
BRANCH  47  50
ATOM     50  C   UNL     1      29.665  42.442   9.917  1.00  0.00     0.165 C 
BRANCH  50  51
ATOM     51  O   UNL     1      29.953  43.809   9.799  1.00  0.00    -0.388 OA
ATOM     52  H   UNL     1      30.257  44.178  10.669  1.00  0.00     0.211 HD
ENDBRANCH  50  51
BRANCH  50  53
ATOM     53  C   UNL     1      29.007  42.238  11.255  1.00  0.00     0.154 C 
BRANCH  53  54
ATOM     54  N   UNL     1      29.550  40.993  11.823  1.00  0.00    -0.319 N 
ATOM     55  C   UNL     1      28.701  39.965  12.326  1.00  0.00     0.407 C 
ATOM     56  H   UNL     1      30.569  40.881  11.848  1.00  0.00     0.167 HD
ATOM     57  O   UNL     1      27.459  40.165  12.264  1.00  0.00    -0.225 OA
BRANCH  55  58
ATOM     58  O   UNL     1      29.178  38.793  12.861  1.00  0.00    -0.443 OA
BRANCH  58  59
ATOM     59  C   UNL     1      30.168  38.801  13.862  1.00  0.00     0.294 C 
BRANCH  59  60
ATOM     60  C   UNL     1      30.807  37.465  13.904  1.00  0.00     0.120 A 
ATOM     61  C   UNL     1      31.502  36.877  14.955  1.00  0.00     0.138 A 
ATOM     62  N   UNL     1      30.849  36.548  12.916  1.00  0.00    -0.132 NA
ATOM     63  N   UNL     1      31.926  35.658  14.573  1.00  0.00    -0.248 N 
ATOM     64  N   UNL     1      31.520  35.486  13.341  1.00  0.00    -0.067 NA
BRANCH  63  65
ATOM     65  C   UNL     1      32.673  34.742  15.382  1.00  0.00     0.181 C 
BRANCH  65  66
ATOM     66  C   UNL     1      31.850  33.702  16.043  1.00  0.00    -0.023 A 
ATOM     67  C   UNL     1      31.480  32.586  15.359  1.00  0.00     0.010 A 
ATOM     68  C   UNL     1      31.448  33.865  17.374  1.00  0.00     0.056 A 
ATOM     69  C   UNL     1      30.716  31.637  15.990  1.00  0.00     0.051 A 
ATOM     70  C   UNL     1      30.685  32.928  18.014  1.00  0.00     0.166 A 
ATOM     71  C   UNL     1      30.326  31.804  17.291  1.00  0.00     0.165 A 
ATOM     72  O   UNL     1      30.134  32.777  19.272  1.00  0.00    -0.454 OA
ATOM     73  O   UNL     1      29.554  30.967  18.107  1.00  0.00    -0.454 OA
ATOM     74  C   UNL     1      29.759  31.411  19.432  1.00  0.00     0.468 C 
ENDBRANCH  65  66
ENDBRANCH  63  65
ENDBRANCH  59  60
ENDBRANCH  58  59
ENDBRANCH  55  58
ENDBRANCH  53  54
ENDBRANCH  50  53
ENDBRANCH  47  50
ENDBRANCH   5  47
BRANCH   4  75
ATOM     75  N   UNL     1      32.140  39.122   7.286  1.00  0.00    -0.348 N 
ATOM     76  C   UNL     1      33.431  39.712   7.073  1.00  0.00     0.217 C 
ATOM     77  H   UNL     1      31.802  38.534   6.504  1.00  0.00     0.163 HD
ATOM     78  C   UNL     1      34.157  39.447   5.784  1.00  0.00     0.114 C 
ATOM     79  O   UNL     1      33.948  40.439   7.954  1.00  0.00    -0.275 OA
ENDBRANCH   4  75
TORSDOF 31
BEGIN_RES LYS A 131
REMARK  4 active torsions:
REMARK  status: ('A' for Active; 'I' for Inactive)
REMARK    1  A    between atoms: CA   and  CB  
REMARK    2  A    between atoms: CB   and  CG  
REMARK    3  A    between atoms: CG   and  CD  
REMARK    4  A    between atoms: CD   and  CE  
ROOT
ATOM      1  CA  LYS A 131      29.867  25.555  16.977  1.00 20.52     0.186 C 
ENDROOT
BRANCH   1   2
ATOM      2  CB  LYS A 131      28.345  25.722  17.026  1.00 20.94     0.034 C 
BRANCH   2   3
ATOM      3  CG  LYS A 131      27.601  24.403  16.887  1.00 22.96     0.005 C 
BRANCH   3   4
ATOM      4  CD  LYS A 131      26.603  24.196  17.993  1.00 24.33     0.041 C 
BRANCH   4   5
ATOM      5  CE  LYS A 131      25.609  23.114  17.585  1.00 26.91     0.338 C 
ATOM      6  NZ  LYS A 131      24.418  23.718  16.941  1.00 27.40     0.618 N 
ENDBRANCH   4   5
ENDBRANCH   3   4
ENDBRANCH   2   3
ENDBRANCH   1   2
END_RES LYS A 131
BEGIN_RES LYS A 135
REMARK  4 active torsions:
REMARK  status: ('A' for Active; 'I' for Inactive)
REMARK    5  A    between atoms: CA   and  CB  
REMARK    6  A    between atoms: CB   and  CG  
REMARK    7  A    between atoms: CG   and  CD  
REMARK    8  A    between atoms: CD   and  CE  
ROOT
ATOM      7  CA  LYS A 135      33.193  34.663   9.290  1.00 25.02     0.186 C 
ENDROOT
BRANCH   7   8
ATOM      8  CB  LYS A 135      32.060  35.360  10.034  1.00 26.63     0.034 C 
BRANCH   8   9
ATOM      9  CG  LYS A 135      30.749  34.620   9.965  1.00 29.45     0.005 C 
BRANCH   9  10
ATOM     10  CD  LYS A 135      30.345  34.379   8.519  1.00 32.00     0.041 C 
BRANCH  10  11
ATOM     11  CE  LYS A 135      28.835  34.415   8.375  1.00 34.25     0.338 C 
ATOM     12  NZ  LYS A 135      28.169  33.776   9.543  1.00 35.99     0.618 N 
ENDBRANCH  10  11
ENDBRANCH   9  10
ENDBRANCH   8   9
ENDBRANCH   7   8
END_RES LYS A 135
