REMARK VINA RESULT:    -3.714      4.413      9.118
REMARK INTER + INTRA:         -21.685
REMARK INTER:                 -12.626
REMARK INTRA:                  -9.059
REMARK UNBOUND:               -12.543
REMARK SMILES CC(=O)N[C@@H]1[C@@H](O)C[C@](OC[C@H]2O[C@@H](O[C@H]3[C@H](O)[C@@H](O)[C@H](OCCN=[N+]=[N-])O[C@@H]3CO)[C@H](O)[C@@H](O)[C@H]2O)(C(=O)O)O[C@H]1C(O)[C@H](O)CNC(=O)OCc1cn(-c2ccncc2)nn1
REMARK SMILES IDX 9 1 8 2 6 3 5 4 42 5 41 6 10 7 11 8 12 9 14 10 13 11 32 12
REMARK SMILES IDX 34 13 36 14 15 15 16 16 29 17 28 18 21 19 17 20 19 21 30 22
REMARK SMILES IDX 31 23 22 25 23 26 24 27 25 28 26 29 27 30 18 31 20 33 33 35
REMARK SMILES IDX 35 37 37 39 38 41 39 42 40 43 7 45 43 47 44 48 45 50 46 51
REMARK SMILES IDX 47 53 48 54 49 55 50 57 51 58 52 59 53 60 54 61 63 62 55 63
REMARK SMILES IDX 62 64 56 65 57 66 61 67 58 68 60 69 59 70 4 71 2 72 1 74
REMARK SMILES IDX 3 75
REMARK H PARENT 31 24 18 32 20 34 33 36 35 38 37 40 40 44 7 46 44 49 46 52
REMARK H PARENT 48 56 4 73
REMARK Flexibility Score: inf
ROOT
ATOM      1  C   UNL     1      28.665  33.440  16.043  1.00  0.00     0.272 C 
ATOM      2  C   UNL     1      29.361  33.173  14.692  1.00  0.00     0.113 C 
ATOM      3  C   UNL     1      30.779  32.641  14.926  1.00  0.00     0.145 C 
ATOM      4  C   UNL     1      31.588  33.841  15.526  1.00  0.00     0.142 C 
ATOM      5  C   UNL     1      30.778  34.333  16.690  1.00  0.00     0.178 C 
ATOM      6  O   UNL     1      29.753  33.429  16.937  1.00  0.00    -0.332 OA
ENDROOT
BRANCH   1   7
ATOM      7  O   UNL     1      27.918  32.411  16.393  1.00  0.00    -0.338 OA
BRANCH   7   8
ATOM      8  C   UNL     1      27.500  31.750  17.380  1.00  0.00     0.199 C 
BRANCH   8   9
ATOM      9  C   UNL     1      27.856  30.306  17.567  1.00  0.00     0.179 C 
ATOM     10  C   UNL     1      28.824  29.006  19.269  1.00  0.00     0.282 C 
ATOM     11  O   UNL     1      28.416  30.262  18.883  1.00  0.00    -0.341 OA
ATOM     12  C   UNL     1      27.663  28.065  19.350  1.00  0.00     0.202 C 
ATOM     13  C   UNL     1      26.908  28.068  18.019  1.00  0.00     0.179 C 
ATOM     14  C   UNL     1      26.565  29.489  17.684  1.00  0.00     0.177 C 
BRANCH  10  15
ATOM     15  O   UNL     1      29.362  29.214  20.565  1.00  0.00    -0.341 OA
BRANCH  15  16
ATOM     16  C   UNL     1      30.637  29.670  20.552  1.00  0.00     0.184 C 
ATOM     17  C   UNL     1      31.617  28.768  21.186  1.00  0.00     0.178 C 
ATOM     18  O   UNL     1      32.925  29.272  21.023  1.00  0.00    -0.341 OA
ATOM     19  C   UNL     1      32.974  30.298  22.041  1.00  0.00     0.281 C 
ATOM     20  C   UNL     1      30.660  31.025  21.325  1.00  0.00     0.180 C 
ATOM     21  C   UNL     1      32.111  31.404  21.562  1.00  0.00     0.202 C 
BRANCH  17  22
ATOM     22  C   UNL     1      31.559  27.375  20.683  1.00  0.00     0.191 C 
BRANCH  22  23
ATOM     23  O   UNL     1      30.469  26.661  21.204  1.00  0.00    -0.394 OA
ATOM     24  H   UNL     1      30.551  25.725  20.853  1.00  0.00     0.210 HD
ENDBRANCH  22  23
ENDBRANCH  17  22
BRANCH  19  25
ATOM     25  O   UNL     1      34.290  30.666  22.096  1.00  0.00    -0.350 OA
BRANCH  25  26
ATOM     26  C   UNL     1      35.041  29.855  22.890  1.00  0.00     0.169 C 
BRANCH  26  27
ATOM     27  C   UNL     1      36.175  30.497  23.622  1.00  0.00     0.119 C 
BRANCH  27  28
ATOM     28  N   UNL     1      36.508  31.810  23.106  1.00  0.00    -0.092 NA
ATOM     29  N   UNL     1      37.405  32.027  22.304  1.00  0.00     0.001 N 
ATOM     30  N   UNL     1      38.481  32.178  21.716  1.00  0.00    -0.003 NA
ENDBRANCH  27  28
ENDBRANCH  26  27
ENDBRANCH  25  26
ENDBRANCH  19  25
BRANCH  20  31
ATOM     31  O   UNL     1      30.097  31.956  20.486  1.00  0.00    -0.387 OA
ATOM     32  H   UNL     1      29.235  31.616  20.085  1.00  0.00     0.211 HD
ENDBRANCH  20  31
BRANCH  21  33
ATOM     33  O   UNL     1      32.188  32.482  22.431  1.00  0.00    -0.385 OA
ATOM     34  H   UNL     1      32.410  33.298  21.911  1.00  0.00     0.211 HD
ENDBRANCH  21  33
ENDBRANCH  15  16
ENDBRANCH  10  15
BRANCH  12  35
ATOM     35  O   UNL     1      28.104  26.736  19.557  1.00  0.00    -0.385 OA
ATOM     36  H   UNL     1      28.647  26.514  18.763  1.00  0.00     0.211 HD
ENDBRANCH  12  35
BRANCH  13  37
ATOM     37  O   UNL     1      25.766  27.304  18.052  1.00  0.00    -0.387 OA
ATOM     38  H   UNL     1      25.300  27.321  17.158  1.00  0.00     0.211 HD
ENDBRANCH  13  37
BRANCH  14  39
ATOM     39  O   UNL     1      25.832  30.090  18.720  1.00  0.00    -0.387 OA
ATOM     40  H   UNL     1      25.429  29.372  19.298  1.00  0.00     0.211 HD
ENDBRANCH  14  39
ENDBRANCH   8   9
ENDBRANCH   7   8
ENDBRANCH   1   7
BRANCH   1  41
ATOM     41  C   UNL     1      27.973  34.732  16.029  1.00  0.00     0.364 C 
ATOM     42  O   UNL     1      27.806  35.395  14.953  1.00  0.00    -0.246 OA
BRANCH  41  43
ATOM     43  O   UNL     1      27.458  35.324  17.157  1.00  0.00    -0.477 OA
ATOM     44  H   UNL     1      27.341  34.902  18.053  1.00  0.00     0.296 HD
ENDBRANCH  41  43
ENDBRANCH   1  41
BRANCH   3  45
ATOM     45  O   UNL     1      30.752  31.656  15.875  1.00  0.00    -0.391 OA
ATOM     46  H   UNL     1      29.849  31.475  16.200  1.00  0.00     0.211 HD
ENDBRANCH   3  45
BRANCH   5  47
ATOM     47  C   UNL     1      31.548  34.316  18.018  1.00  0.00     0.176 C 
BRANCH  47  48
ATOM     48  O   UNL     1      31.468  32.893  18.349  1.00  0.00    -0.388 OA
ATOM     49  H   UNL     1      31.232  32.420  17.496  1.00  0.00     0.211 HD
ENDBRANCH  47  48
BRANCH  47  50
ATOM     50  C   UNL     1      30.963  35.049  19.145  1.00  0.00     0.165 C 
BRANCH  50  51
ATOM     51  O   UNL     1      29.901  35.886  18.899  1.00  0.00    -0.388 OA
ATOM     52  H   UNL     1      30.183  36.839  18.892  1.00  0.00     0.211 HD
ENDBRANCH  50  51
BRANCH  50  53
ATOM     53  C   UNL     1      31.897  35.445  20.221  1.00  0.00     0.154 C 
BRANCH  53  54
ATOM     54  N   UNL     1      33.152  34.741  20.260  1.00  0.00    -0.319 N 
ATOM     55  C   UNL     1      34.375  35.415  20.026  1.00  0.00     0.407 C 
ATOM     56  H   UNL     1      33.123  33.724  20.448  1.00  0.00     0.167 HD
ATOM     57  O   UNL     1      34.314  36.643  19.791  1.00  0.00    -0.225 OA
BRANCH  55  58
ATOM     58  O   UNL     1      35.600  34.812  20.043  1.00  0.00    -0.443 OA
BRANCH  58  59
ATOM     59  C   UNL     1      36.836  35.426  19.745  1.00  0.00     0.294 C 
BRANCH  59  60
ATOM     60  C   UNL     1      37.500  34.792  18.558  1.00  0.00     0.121 A 
ATOM     61  C   UNL     1      37.510  35.193  17.241  1.00  0.00     0.144 A 
ATOM     62  N   UNL     1      38.236  33.656  18.590  1.00  0.00    -0.131 NA
ATOM     63  N   UNL     1      38.233  34.315  16.524  1.00  0.00    -0.220 N 
ATOM     64  N   UNL     1      38.668  33.382  17.373  1.00  0.00    -0.062 NA
BRANCH  63  65
ATOM     65  C   UNL     1      38.470  34.391  15.125  1.00  0.00     0.069 A 
ATOM     66  C   UNL     1      37.725  33.727  14.175  1.00  0.00     0.048 A 
ATOM     67  C   UNL     1      39.508  35.185  14.689  1.00  0.00     0.048 A 
ATOM     68  C   UNL     1      37.989  33.835  12.820  1.00  0.00     0.113 A 
ATOM     69  C   UNL     1      39.765  35.287  13.332  1.00  0.00     0.113 A 
ATOM     70  N   UNL     1      39.019  34.627  12.438  1.00  0.00    -0.265 NA
ENDBRANCH  63  65
ENDBRANCH  59  60
ENDBRANCH  58  59
ENDBRANCH  55  58
ENDBRANCH  53  54
ENDBRANCH  50  53
ENDBRANCH  47  50
ENDBRANCH   5  47
BRANCH   4  71
ATOM     71  N   UNL     1      31.647  34.766  14.420  1.00  0.00    -0.348 N 
ATOM     72  C   UNL     1      32.816  35.083  13.696  1.00  0.00     0.217 C 
ATOM     73  H   UNL     1      30.776  35.243  14.124  1.00  0.00     0.163 HD
ATOM     74  C   UNL     1      32.754  36.044  12.585  1.00  0.00     0.114 C 
ATOM     75  O   UNL     1      33.902  34.548  13.995  1.00  0.00    -0.275 OA
ENDBRANCH   4  71
TORSDOF 30
BEGIN_RES LYS A 131
REMARK  4 active torsions:
REMARK  status: ('A' for Active; 'I' for Inactive)
REMARK    1  A    between atoms: CA   and  CB  
REMARK    2  A    between atoms: CB   and  CG  
REMARK    3  A    between atoms: CG   and  CD  
REMARK    4  A    between atoms: CD   and  CE  
ROOT
ATOM      1  CA  LYS A 131      29.867  25.555  16.977  1.00 20.52     0.186 C 
ENDROOT
BRANCH   1   2
ATOM      2  CB  LYS A 131      28.345  25.722  17.026  1.00 20.94     0.034 C 
BRANCH   2   3
ATOM      3  CG  LYS A 131      27.599  24.433  16.717  1.00 22.96     0.005 C 
BRANCH   3   4
ATOM      4  CD  LYS A 131      26.998  23.817  17.949  1.00 24.33     0.041 C 
BRANCH   4   5
ATOM      5  CE  LYS A 131      25.643  23.206  17.605  1.00 26.91     0.338 C 
ATOM      6  NZ  LYS A 131      24.796  24.192  16.893  1.00 27.40     0.618 N 
ENDBRANCH   4   5
ENDBRANCH   3   4
ENDBRANCH   2   3
ENDBRANCH   1   2
END_RES LYS A 131
BEGIN_RES LYS A 135
REMARK  4 active torsions:
REMARK  status: ('A' for Active; 'I' for Inactive)
REMARK    5  A    between atoms: CA   and  CB  
REMARK    6  A    between atoms: CB   and  CG  
REMARK    7  A    between atoms: CG   and  CD  
REMARK    8  A    between atoms: CD   and  CE  
ROOT
ATOM      7  CA  LYS A 135      33.193  34.663   9.290  1.00 25.02     0.186 C 
ENDROOT
BRANCH   7   8
ATOM      8  CB  LYS A 135      32.060  35.360  10.034  1.00 26.63     0.034 C 
BRANCH   8   9
ATOM      9  CG  LYS A 135      30.701  34.775   9.747  1.00 29.45     0.005 C 
BRANCH   9  10
ATOM     10  CD  LYS A 135      30.015  35.536   8.624  1.00 32.00     0.041 C 
BRANCH  10  11
ATOM     11  CE  LYS A 135      30.258  37.027   8.765  1.00 34.25     0.338 C 
ATOM     12  NZ  LYS A 135      29.179  37.672   9.564  1.00 35.99     0.618 N 
ENDBRANCH  10  11
ENDBRANCH   9  10
ENDBRANCH   8   9
ENDBRANCH   7   8
END_RES LYS A 135
