REMARK VINA RESULT:    -5.758      0.000      0.000
REMARK INTER + INTRA:         -25.362
REMARK INTER:                 -14.417
REMARK INTRA:                 -10.945
REMARK UNBOUND:               -10.853
REMARK SMILES CC(=O)N[C@@H]1[C@@H](O)C[C@](OC[C@H]2O[C@@H](O[C@H]3[C@H](O)[C@@H](O)[C@H](OCCN=[N+]=[N-])O[C@@H]3CO)[C@H](O)[C@@H](O)[C@H]2O)(C(=O)O)O[C@H]1C(O)[C@H](O)CNC(=O)OCc1cn(-c2ncn3c2c(=O)n(C(C)C)c2ccccc23)nn1
REMARK SMILES IDX 9 1 8 2 6 3 5 4 42 5 41 6 10 7 11 8 12 9 14 10 13 11 32 12
REMARK SMILES IDX 34 13 36 14 15 15 16 16 29 17 28 18 21 19 17 20 19 21 30 22
REMARK SMILES IDX 31 23 22 25 23 26 24 27 25 28 26 29 27 30 18 31 20 33 33 35
REMARK SMILES IDX 35 37 37 39 38 41 39 42 40 43 7 45 43 47 44 48 45 50 46 51
REMARK SMILES IDX 47 53 48 54 49 55 50 57 51 58 52 59 53 60 54 61 74 62 55 63
REMARK SMILES IDX 73 64 56 65 57 66 60 67 58 68 59 69 61 70 72 71 63 72 62 73
REMARK SMILES IDX 71 74 67 75 70 76 68 77 69 78 64 79 65 80 66 81 4 82 2 83
REMARK SMILES IDX 1 85 3 86
REMARK H PARENT 31 24 18 32 20 34 33 36 35 38 37 40 40 44 7 46 44 49 46 52
REMARK H PARENT 48 56 4 84
REMARK Flexibility Score: inf
ROOT
ATOM      1  C   UNL     1      24.378  36.199   9.768  1.00  0.00     0.272 C 
ATOM      2  C   UNL     1      23.446  35.273   9.035  1.00  0.00     0.113 C 
ATOM      3  C   UNL     1      22.056  35.753   9.016  1.00  0.00     0.145 C 
ATOM      4  C   UNL     1      21.897  37.214   8.706  1.00  0.00     0.142 C 
ATOM      5  C   UNL     1      23.062  38.043   9.112  1.00  0.00     0.178 C 
ATOM      6  O   UNL     1      24.267  37.478   9.134  1.00  0.00    -0.332 OA
ENDROOT
BRANCH   1   7
ATOM      7  O   UNL     1      25.644  35.829   9.406  1.00  0.00    -0.338 OA
BRANCH   7   8
ATOM      8  C   UNL     1      26.104  34.620   9.258  1.00  0.00     0.199 C 
BRANCH   8   9
ATOM      9  C   UNL     1      27.412  34.237   8.655  1.00  0.00     0.179 C 
ATOM     10  C   UNL     1      29.009  35.242   7.290  1.00  0.00     0.282 C 
ATOM     11  O   UNL     1      27.804  35.405   7.922  1.00  0.00    -0.341 OA
ATOM     12  C   UNL     1      30.152  35.043   8.269  1.00  0.00     0.202 C 
ATOM     13  C   UNL     1      29.833  33.926   9.247  1.00  0.00     0.179 C 
ATOM     14  C   UNL     1      28.444  34.145   9.780  1.00  0.00     0.177 C 
BRANCH  10  15
ATOM     15  O   UNL     1      29.258  36.411   6.580  1.00  0.00    -0.341 OA
BRANCH  15  16
ATOM     16  C   UNL     1      28.511  37.453   7.064  1.00  0.00     0.184 C 
ATOM     17  C   UNL     1      28.027  38.310   5.951  1.00  0.00     0.178 C 
ATOM     18  O   UNL     1      28.753  39.447   5.701  1.00  0.00    -0.341 OA
ATOM     19  C   UNL     1      30.072  39.416   6.070  1.00  0.00     0.281 C 
ATOM     20  C   UNL     1      29.229  38.243   8.138  1.00  0.00     0.180 C 
ATOM     21  C   UNL     1      30.273  39.107   7.533  1.00  0.00     0.202 C 
BRANCH  17  22
ATOM     22  C   UNL     1      26.571  38.672   6.152  1.00  0.00     0.191 C 
BRANCH  22  23
ATOM     23  O   UNL     1      26.056  37.683   7.024  1.00  0.00    -0.394 OA
ATOM     24  H   UNL     1      26.346  37.940   7.929  1.00  0.00     0.210 HD
ENDBRANCH  22  23
ENDBRANCH  17  22
BRANCH  19  25
ATOM     25  O   UNL     1      30.586  40.712   5.882  1.00  0.00    -0.350 OA
BRANCH  25  26
ATOM     26  C   UNL     1      29.825  41.502   5.064  1.00  0.00     0.169 C 
BRANCH  26  27
ATOM     27  C   UNL     1      29.539  42.881   5.568  1.00  0.00     0.119 C 
BRANCH  27  28
ATOM     28  N   UNL     1      28.183  42.829   6.139  1.00  0.00    -0.092 NA
ATOM     29  N   UNL     1      27.922  42.323   7.208  1.00  0.00     0.001 N 
ATOM     30  N   UNL     1      27.511  41.602   8.123  1.00  0.00    -0.003 NA
ENDBRANCH  27  28
ENDBRANCH  26  27
ENDBRANCH  25  26
ENDBRANCH  19  25
BRANCH  20  31
ATOM     31  O   UNL     1      28.280  38.949   8.887  1.00  0.00    -0.387 OA
ATOM     32  H   UNL     1      27.689  39.385   8.205  1.00  0.00     0.211 HD
ENDBRANCH  20  31
BRANCH  21  33
ATOM     33  O   UNL     1      31.502  38.436   7.666  1.00  0.00    -0.385 OA
ATOM     34  H   UNL     1      31.806  38.413   8.610  1.00  0.00     0.211 HD
ENDBRANCH  21  33
ENDBRANCH  15  16
ENDBRANCH  10  15
BRANCH  12  35
ATOM     35  O   UNL     1      31.256  34.612   7.536  1.00  0.00    -0.385 OA
ATOM     36  H   UNL     1      32.044  35.189   7.672  1.00  0.00     0.211 HD
ENDBRANCH  12  35
BRANCH  13  37
ATOM     37  O   UNL     1      30.708  34.093  10.337  1.00  0.00    -0.387 OA
ATOM     38  H   UNL     1      31.654  34.027  10.029  1.00  0.00     0.211 HD
ENDBRANCH  13  37
BRANCH  14  39
ATOM     39  O   UNL     1      28.474  35.405  10.433  1.00  0.00    -0.387 OA
ATOM     40  H   UNL     1      28.184  36.116   9.812  1.00  0.00     0.211 HD
ENDBRANCH  14  39
ENDBRANCH   8   9
ENDBRANCH   7   8
ENDBRANCH   1   7
BRANCH   1  41
ATOM     41  C   UNL     1      24.071  36.389  11.179  1.00  0.00     0.364 C 
ATOM     42  O   UNL     1      23.598  35.524  11.916  1.00  0.00    -0.246 OA
BRANCH  41  43
ATOM     43  O   UNL     1      24.312  37.630  11.797  1.00  0.00    -0.477 OA
ATOM     44  H   UNL     1      23.791  38.445  11.497  1.00  0.00     0.296 HD
ENDBRANCH  41  43
ENDBRANCH   1  41
BRANCH   3  45
ATOM     45  O   UNL     1      21.376  34.994   8.027  1.00  0.00    -0.391 OA
ATOM     46  H   UNL     1      21.909  34.941   7.201  1.00  0.00     0.211 HD
ENDBRANCH   3  45
BRANCH   5  47
ATOM     47  C   UNL     1      23.141  39.343   8.332  1.00  0.00     0.176 C 
BRANCH  47  48
ATOM     48  O   UNL     1      23.391  39.077   7.004  1.00  0.00    -0.388 OA
ATOM     49  H   UNL     1      24.004  39.727   6.577  1.00  0.00     0.211 HD
ENDBRANCH  47  48
BRANCH  47  50
ATOM     50  C   UNL     1      24.119  40.329   8.868  1.00  0.00     0.165 C 
BRANCH  50  51
ATOM     51  O   UNL     1      25.384  39.866   9.113  1.00  0.00    -0.388 OA
ATOM     52  H   UNL     1      26.064  40.180   8.474  1.00  0.00     0.211 HD
ENDBRANCH  50  51
BRANCH  50  53
ATOM     53  C   UNL     1      23.612  41.106  10.045  1.00  0.00     0.154 C 
BRANCH  53  54
ATOM     54  N   UNL     1      24.369  40.764  11.254  1.00  0.00    -0.319 N 
ATOM     55  C   UNL     1      24.896  41.737  12.119  1.00  0.00     0.407 C 
ATOM     56  H   UNL     1      24.531  39.741  11.496  1.00  0.00     0.167 HD
ATOM     57  O   UNL     1      24.751  42.964  11.884  1.00  0.00    -0.225 OA
BRANCH  55  58
ATOM     58  O   UNL     1      25.591  41.304  13.258  1.00  0.00    -0.443 OA
BRANCH  58  59
ATOM     59  C   UNL     1      26.938  40.931  13.171  1.00  0.00     0.294 C 
BRANCH  59  60
ATOM     60  C   UNL     1      27.110  39.469  12.827  1.00  0.00     0.121 A 
ATOM     61  C   UNL     1      27.141  38.421  13.718  1.00  0.00     0.146 A 
ATOM     62  N   UNL     1      27.257  38.915  11.613  1.00  0.00    -0.131 NA
ATOM     63  N   UNL     1      27.305  37.251  13.034  1.00  0.00    -0.200 N 
ATOM     64  N   UNL     1      27.371  37.598  11.763  1.00  0.00    -0.060 NA
BRANCH  63  65
ATOM     65  C   UNL     1      27.379  35.950  13.615  1.00  0.00     0.186 A 
ATOM     66  N   UNL     1      26.336  35.117  13.769  1.00  0.00    -0.216 NA
ATOM     67  C   UNL     1      28.450  35.273  14.142  1.00  0.00     0.158 A 
ATOM     68  C   UNL     1      26.744  33.978  14.362  1.00  0.00     0.207 A 
ATOM     69  N   UNL     1      28.070  34.056  14.606  1.00  0.00    -0.291 N 
ATOM     70  C   UNL     1      29.763  35.656  14.247  1.00  0.00     0.279 A 
ATOM     71  C   UNL     1      28.951  33.211  15.169  1.00  0.00     0.071 A 
ATOM     72  N   UNL     1      30.676  34.824  14.811  1.00  0.00    -0.302 N 
ATOM     73  O   UNL     1      30.148  36.789  13.820  1.00  0.00    -0.267 OA
ATOM     74  C   UNL     1      28.568  31.986  15.643  1.00  0.00     0.029 A 
ATOM     75  C   UNL     1      30.263  33.620  15.264  1.00  0.00     0.068 A 
ATOM     76  C   UNL     1      29.487  31.107  16.237  1.00  0.00     0.002 A 
ATOM     77  C   UNL     1      31.165  32.751  15.849  1.00  0.00     0.028 A 
ATOM     78  C   UNL     1      30.800  31.502  16.338  1.00  0.00     0.002 A 
BRANCH  72  79
ATOM     79  C   UNL     1      32.078  35.229  14.916  1.00  0.00     0.085 C 
ATOM     80  C   UNL     1      32.786  35.278  13.601  1.00  0.00     0.031 C 
ATOM     81  C   UNL     1      32.256  36.460  15.768  1.00  0.00     0.031 C 
ENDBRANCH  72  79
ENDBRANCH  63  65
ENDBRANCH  59  60
ENDBRANCH  58  59
ENDBRANCH  55  58
ENDBRANCH  53  54
ENDBRANCH  50  53
ENDBRANCH  47  50
ENDBRANCH   5  47
BRANCH   4  82
ATOM     82  N   UNL     1      20.652  37.671   9.287  1.00  0.00    -0.348 N 
ATOM     83  C   UNL     1      19.411  37.612   8.614  1.00  0.00     0.217 C 
ATOM     84  H   UNL     1      20.648  38.070  10.257  1.00  0.00     0.163 HD
ATOM     85  C   UNL     1      18.135  38.088   9.224  1.00  0.00     0.114 C 
ATOM     86  O   UNL     1      19.400  37.134   7.441  1.00  0.00    -0.275 OA
ENDBRANCH   4  82
TORSDOF 31
BEGIN_RES LYS A 131
REMARK  4 active torsions:
REMARK  status: ('A' for Active; 'I' for Inactive)
REMARK    1  A    between atoms: CA   and  CB  
REMARK    2  A    between atoms: CB   and  CG  
REMARK    3  A    between atoms: CG   and  CD  
REMARK    4  A    between atoms: CD   and  CE  
ROOT
ATOM      1  CA  LYS A 131      29.867  25.555  16.977  1.00 20.52     0.186 C 
ENDROOT
BRANCH   1   2
ATOM      2  CB  LYS A 131      28.345  25.722  17.026  1.00 20.94     0.034 C 
BRANCH   2   3
ATOM      3  CG  LYS A 131      27.602  24.400  16.909  1.00 22.96     0.005 C 
BRANCH   3   4
ATOM      4  CD  LYS A 131      26.149  24.533  17.275  1.00 24.33     0.041 C 
BRANCH   4   5
ATOM      5  CE  LYS A 131      26.004  24.526  18.793  1.00 26.91     0.338 C 
ATOM      6  NZ  LYS A 131      25.526  23.204  19.263  1.00 27.40     0.618 N 
ENDBRANCH   4   5
ENDBRANCH   3   4
ENDBRANCH   2   3
ENDBRANCH   1   2
END_RES LYS A 131
BEGIN_RES LYS A 135
REMARK  4 active torsions:
REMARK  status: ('A' for Active; 'I' for Inactive)
REMARK    5  A    between atoms: CA   and  CB  
REMARK    6  A    between atoms: CB   and  CG  
REMARK    7  A    between atoms: CG   and  CD  
REMARK    8  A    between atoms: CD   and  CE  
ROOT
ATOM      7  CA  LYS A 135      33.193  34.663   9.290  1.00 25.02     0.186 C 
ENDROOT
BRANCH   7   8
ATOM      8  CB  LYS A 135      32.060  35.360  10.034  1.00 26.63     0.034 C 
BRANCH   8   9
ATOM      9  CG  LYS A 135      32.454  36.691  10.621  1.00 29.45     0.005 C 
BRANCH   9  10
ATOM     10  CD  LYS A 135      31.221  37.526  10.931  1.00 32.00     0.041 C 
BRANCH  10  11
ATOM     11  CE  LYS A 135      31.622  38.906  11.418  1.00 34.25     0.338 C 
ATOM     12  NZ  LYS A 135      30.514  39.884  11.230  1.00 35.99     0.618 N 
ENDBRANCH  10  11
ENDBRANCH   9  10
ENDBRANCH   8   9
ENDBRANCH   7   8
END_RES LYS A 135
