REMARK VINA RESULT:    -4.542      3.445      8.420
REMARK INTER + INTRA:         -21.504
REMARK INTER:                 -11.731
REMARK INTRA:                  -9.773
REMARK UNBOUND:                -9.660
REMARK SMILES CC(=O)N[C@@H]1[C@@H](O)C[C@](OC[C@H]2O[C@@H](O[C@H]3[C@H](O)[C@@H](O)[C@H](OCCN=[N+]=[N-])O[C@@H]3CO)[C@H](O)[C@@H](O)[C@H]2O)(C(=O)O)O[C@H]1C(O)[C@H](O)CNC(=O)OCc1cn(CCC(=O)O)nn1
REMARK SMILES IDX 43 1 42 2 9 3 8 4 41 5 6 6 5 7 10 8 11 9 12 10 14 11 13 12
REMARK SMILES IDX 32 13 34 14 36 15 15 16 16 17 29 18 28 19 21 20 17 21 19 22
REMARK SMILES IDX 30 23 31 24 22 26 23 27 24 28 25 29 26 30 27 31 18 32 20 34
REMARK SMILES IDX 33 36 35 38 37 40 38 42 39 43 40 44 7 46 4 48 2 49 1 51 3 52
REMARK SMILES IDX 44 53 45 55 46 56 47 58 48 59 49 60 50 62 51 63 52 64 53 65
REMARK SMILES IDX 54 66 62 67 55 68 61 69 56 70 57 71 58 72 59 73 60 74
REMARK H PARENT 31 25 18 33 20 35 33 37 35 39 37 41 40 45 7 47 4 50 44 54
REMARK H PARENT 46 57 48 61 60 75
REMARK Flexibility Score: inf
ROOT
ATOM      1  C   UNL     1      29.895  33.627  13.935  1.00  0.00     0.176 C 
ENDROOT
BRANCH   1   2
ATOM      2  C   UNL     1      28.902  34.761  13.848  1.00  0.00     0.178 C 
ATOM      3  C   UNL     1      26.725  35.237  13.113  1.00  0.00     0.272 C 
ATOM      4  C   UNL     1      27.157  36.493  13.847  1.00  0.00     0.113 C 
ATOM      5  O   UNL     1      27.995  34.604  12.832  1.00  0.00    -0.332 OA
ATOM      6  C   UNL     1      28.464  37.061  13.259  1.00  0.00     0.145 C 
ATOM      7  C   UNL     1      29.592  36.096  13.600  1.00  0.00     0.142 C 
BRANCH   3   8
ATOM      8  O   UNL     1      26.127  35.545  11.947  1.00  0.00    -0.338 OA
BRANCH   8   9
ATOM      9  C   UNL     1      25.089  36.303  11.724  1.00  0.00     0.199 C 
BRANCH   9  10
ATOM     10  C   UNL     1      24.973  37.392  10.746  1.00  0.00     0.179 C 
ATOM     11  C   UNL     1      25.910  39.139   9.587  1.00  0.00     0.282 C 
ATOM     12  O   UNL     1      26.041  38.234  10.600  1.00  0.00    -0.341 OA
ATOM     13  C   UNL     1      24.615  39.092   8.825  1.00  0.00     0.202 C 
ATOM     14  C   UNL     1      24.230  37.674   8.447  1.00  0.00     0.179 C 
ATOM     15  C   UNL     1      24.898  36.665   9.353  1.00  0.00     0.177 C 
BRANCH  11  16
ATOM     16  O   UNL     1      26.928  39.066   8.637  1.00  0.00    -0.341 OA
BRANCH  16  17
ATOM     17  C   UNL     1      28.189  39.360   9.152  1.00  0.00     0.184 C 
ATOM     18  C   UNL     1      28.587  40.718   8.691  1.00  0.00     0.178 C 
ATOM     19  O   UNL     1      29.682  40.721   7.810  1.00  0.00    -0.341 OA
ATOM     20  C   UNL     1      29.330  39.806   6.797  1.00  0.00     0.281 C 
ATOM     21  C   UNL     1      29.116  38.261   8.724  1.00  0.00     0.180 C 
ATOM     22  C   UNL     1      29.674  38.441   7.347  1.00  0.00     0.202 C 
BRANCH  18  23
ATOM     23  C   UNL     1      28.931  41.624   9.864  1.00  0.00     0.191 C 
BRANCH  23  24
ATOM     24  O   UNL     1      30.078  41.166  10.507  1.00  0.00    -0.394 OA
ATOM     25  H   UNL     1      30.724  40.876   9.821  1.00  0.00     0.210 HD
ENDBRANCH  23  24
ENDBRANCH  18  23
BRANCH  20  26
ATOM     26  O   UNL     1      29.980  40.073   5.615  1.00  0.00    -0.350 OA
BRANCH  26  27
ATOM     27  C   UNL     1      31.142  40.792   5.882  1.00  0.00     0.169 C 
BRANCH  27  28
ATOM     28  C   UNL     1      32.313  40.138   5.160  1.00  0.00     0.119 C 
BRANCH  28  29
ATOM     29  N   UNL     1      33.136  39.528   6.183  1.00  0.00    -0.092 NA
ATOM     30  N   UNL     1      32.904  39.798   7.360  1.00  0.00     0.001 N 
ATOM     31  N   UNL     1      32.828  39.818   8.608  1.00  0.00    -0.003 NA
ENDBRANCH  28  29
ENDBRANCH  27  28
ENDBRANCH  26  27
ENDBRANCH  20  26
BRANCH  21  32
ATOM     32  O   UNL     1      30.171  38.232   9.630  1.00  0.00    -0.387 OA
ATOM     33  H   UNL     1      30.755  38.994   9.447  1.00  0.00     0.211 HD
ENDBRANCH  21  32
BRANCH  22  34
ATOM     34  O   UNL     1      29.233  37.429   6.492  1.00  0.00    -0.385 OA
ATOM     35  H   UNL     1      28.310  37.625   6.174  1.00  0.00     0.211 HD
ENDBRANCH  22  34
ENDBRANCH  16  17
ENDBRANCH  11  16
BRANCH  13  36
ATOM     36  O   UNL     1      23.567  39.762   9.472  1.00  0.00    -0.385 OA
ATOM     37  H   UNL     1      23.919  40.285  10.210  1.00  0.00     0.211 HD
ENDBRANCH  13  36
BRANCH  14  38
ATOM     38  O   UNL     1      24.474  37.447   7.111  1.00  0.00    -0.387 OA
ATOM     39  H   UNL     1      23.639  37.327   6.615  1.00  0.00     0.211 HD
ENDBRANCH  14  38
BRANCH  15  40
ATOM     40  O   UNL     1      26.203  36.417   9.002  1.00  0.00    -0.387 OA
ATOM     41  H   UNL     1      26.879  36.879   9.550  1.00  0.00     0.211 HD
ENDBRANCH  15  40
ENDBRANCH   9  10
ENDBRANCH   8   9
ENDBRANCH   3   8
BRANCH   3  42
ATOM     42  C   UNL     1      25.985  34.284  13.944  1.00  0.00     0.364 C 
ATOM     43  O   UNL     1      25.880  34.475  15.180  1.00  0.00    -0.246 OA
BRANCH  42  44
ATOM     44  O   UNL     1      25.392  33.171  13.404  1.00  0.00    -0.477 OA
ATOM     45  H   UNL     1      25.366  32.261  13.819  1.00  0.00     0.296 HD
ENDBRANCH  42  44
ENDBRANCH   3  42
BRANCH   6  46
ATOM     46  O   UNL     1      28.313  37.087  11.889  1.00  0.00    -0.391 OA
ATOM     47  H   UNL     1      27.333  37.043  11.686  1.00  0.00     0.211 HD
ENDBRANCH   6  46
BRANCH   7  48
ATOM     48  N   UNL     1      30.319  36.551  14.740  1.00  0.00    -0.348 N 
ATOM     49  C   UNL     1      31.695  36.875  14.609  1.00  0.00     0.217 C 
ATOM     50  H   UNL     1      29.884  36.659  15.682  1.00  0.00     0.163 HD
ATOM     51  C   UNL     1      32.525  37.352  15.741  1.00  0.00     0.114 C 
ATOM     52  O   UNL     1      32.283  36.766  13.493  1.00  0.00    -0.275 OA
ENDBRANCH   7  48
ENDBRANCH   1   2
BRANCH   1  53
ATOM     53  O   UNL     1      31.057  34.017  13.267  1.00  0.00    -0.388 OA
ATOM     54  H   UNL     1      31.471  33.264  12.799  1.00  0.00     0.211 HD
ENDBRANCH   1  53
BRANCH   1  55
ATOM     55  C   UNL     1      30.259  33.220  15.328  1.00  0.00     0.165 C 
BRANCH  55  56
ATOM     56  O   UNL     1      30.673  31.884  15.309  1.00  0.00    -0.388 OA
ATOM     57  H   UNL     1      31.269  31.730  16.080  1.00  0.00     0.211 HD
ENDBRANCH  55  56
BRANCH  55  58
ATOM     58  C   UNL     1      28.969  33.281  16.154  1.00  0.00     0.154 C 
BRANCH  58  59
ATOM     59  N   UNL     1      28.357  31.984  16.244  1.00  0.00    -0.319 N 
ATOM     60  C   UNL     1      27.774  31.447  17.424  1.00  0.00     0.407 C 
ATOM     61  H   UNL     1      28.312  31.350  15.390  1.00  0.00     0.167 HD
ATOM     62  O   UNL     1      27.797  32.158  18.461  1.00  0.00    -0.225 OA
BRANCH  60  63
ATOM     63  O   UNL     1      27.195  30.191  17.462  1.00  0.00    -0.443 OA
BRANCH  63  64
ATOM     64  C   UNL     1      25.795  30.081  17.523  1.00  0.00     0.294 C 
BRANCH  64  65
ATOM     65  C   UNL     1      25.212  30.027  16.169  1.00  0.00     0.120 A 
ATOM     66  C   UNL     1      24.090  29.271  15.858  1.00  0.00     0.138 A 
ATOM     67  N   UNL     1      25.615  30.670  15.046  1.00  0.00    -0.132 NA
ATOM     68  N   UNL     1      23.855  29.491  14.542  1.00  0.00    -0.252 N 
ATOM     69  N   UNL     1      24.779  30.326  14.089  1.00  0.00    -0.067 NA
BRANCH  68  70
ATOM     70  C   UNL     1      22.779  28.924  13.758  1.00  0.00     0.158 C 
BRANCH  70  71
ATOM     71  C   UNL     1      22.547  29.649  12.451  1.00  0.00     0.146 C 
BRANCH  71  72
ATOM     72  C   UNL     1      21.919  30.943  12.750  1.00  0.00     0.305 C 
ATOM     73  O   UNL     1      20.697  30.993  13.010  1.00  0.00    -0.252 OA
BRANCH  72  74
ATOM     74  O   UNL     1      22.647  32.132  12.750  1.00  0.00    -0.481 OA
ATOM     75  H   UNL     1      23.214  32.439  13.534  1.00  0.00     0.296 HD
ENDBRANCH  72  74
ENDBRANCH  71  72
ENDBRANCH  70  71
ENDBRANCH  68  70
ENDBRANCH  64  65
ENDBRANCH  63  64
ENDBRANCH  60  63
ENDBRANCH  58  59
ENDBRANCH  55  58
ENDBRANCH   1  55
TORSDOF 33
BEGIN_RES LYS A 131
REMARK  4 active torsions:
REMARK  status: ('A' for Active; 'I' for Inactive)
REMARK    1  A    between atoms: CA   and  CB  
REMARK    2  A    between atoms: CB   and  CG  
REMARK    3  A    between atoms: CG   and  CD  
REMARK    4  A    between atoms: CD   and  CE  
ROOT
ATOM      1  CA  LYS A 131      29.867  25.555  16.977  1.00 20.52     0.186 C 
ENDROOT
BRANCH   1   2
ATOM      2  CB  LYS A 131      28.345  25.722  17.026  1.00 20.94     0.034 C 
BRANCH   2   3
ATOM      3  CG  LYS A 131      27.602  24.399  16.920  1.00 22.96     0.005 C 
BRANCH   3   4
ATOM      4  CD  LYS A 131      26.529  24.267  17.965  1.00 24.33     0.041 C 
BRANCH   4   5
ATOM      5  CE  LYS A 131      25.159  24.363  17.303  1.00 26.91     0.338 C 
ATOM      6  NZ  LYS A 131      24.499  23.036  17.279  1.00 27.40     0.618 N 
ENDBRANCH   4   5
ENDBRANCH   3   4
ENDBRANCH   2   3
ENDBRANCH   1   2
END_RES LYS A 131
BEGIN_RES LYS A 135
REMARK  4 active torsions:
REMARK  status: ('A' for Active; 'I' for Inactive)
REMARK    5  A    between atoms: CA   and  CB  
REMARK    6  A    between atoms: CB   and  CG  
REMARK    7  A    between atoms: CG   and  CD  
REMARK    8  A    between atoms: CD   and  CE  
ROOT
ATOM      7  CA  LYS A 135      33.193  34.663   9.290  1.00 25.02     0.186 C 
ENDROOT
BRANCH   7   8
ATOM      8  CB  LYS A 135      32.060  35.360  10.034  1.00 26.63     0.034 C 
BRANCH   8   9
ATOM      9  CG  LYS A 135      30.739  34.641   9.930  1.00 29.45     0.005 C 
BRANCH   9  10
ATOM     10  CD  LYS A 135      30.332  34.474   8.475  1.00 32.00     0.041 C 
BRANCH  10  11
ATOM     11  CE  LYS A 135      28.822  34.439   8.345  1.00 34.25     0.338 C 
ATOM     12  NZ  LYS A 135      28.200  33.735   9.500  1.00 35.99     0.618 N 
ENDBRANCH  10  11
ENDBRANCH   9  10
ENDBRANCH   8   9
ENDBRANCH   7   8
END_RES LYS A 135
