REMARK VINA RESULT:    -5.162      4.382     11.997
REMARK INTER + INTRA:         -22.860
REMARK INTER:                 -13.225
REMARK INTRA:                  -9.635
REMARK UNBOUND:                -9.852
REMARK SMILES CC(=O)N[C@@H]1[C@@H](O)C[C@](OC[C@H]2O[C@@H](O[C@H]3[C@H](O)[C@@H](O)[C@H](OCCN=[N+]=[N-])O[C@@H]3CO)[C@H](O)[C@@H](O)[C@H]2O)(C(=O)O)O[C@H]1C(O)[C@H](O)CNC(=O)OCc1cn(Cc2ccc3c(c2)OCO3)nn1
REMARK SMILES IDX 9 1 8 2 6 3 5 4 42 5 41 6 10 7 11 8 12 9 14 10 13 11 32 12
REMARK SMILES IDX 34 13 36 14 15 15 16 16 29 17 28 18 21 19 17 20 19 21 30 22
REMARK SMILES IDX 31 23 22 25 23 26 24 27 25 28 26 29 27 30 18 31 20 33 33 35
REMARK SMILES IDX 35 37 37 39 38 41 39 42 40 43 7 45 43 47 44 48 45 50 46 51
REMARK SMILES IDX 47 53 48 54 49 55 50 57 51 58 52 59 53 60 54 61 67 62 55 63
REMARK SMILES IDX 66 64 56 65 57 66 58 67 62 68 59 69 61 70 60 71 63 72 65 73
REMARK SMILES IDX 64 74 4 75 2 76 1 78 3 79
REMARK H PARENT 31 24 18 32 20 34 33 36 35 38 37 40 40 44 7 46 44 49 46 52
REMARK H PARENT 48 56 4 77
REMARK Flexibility Score: inf
ROOT
ATOM      1  C   UNL     1      26.526  40.260   6.600  1.00  0.00     0.272 C 
ATOM      2  C   UNL     1      26.447  40.557   5.116  1.00  0.00     0.113 C 
ATOM      3  C   UNL     1      27.449  39.715   4.385  1.00  0.00     0.145 C 
ATOM      4  C   UNL     1      28.843  40.155   4.906  1.00  0.00     0.142 C 
ATOM      5  C   UNL     1      28.820  40.029   6.387  1.00  0.00     0.178 C 
ATOM      6  O   UNL     1      27.635  39.508   6.902  1.00  0.00    -0.332 OA
ENDROOT
BRANCH   1   7
ATOM      7  O   UNL     1      25.347  39.640   7.042  1.00  0.00    -0.338 OA
BRANCH   7   8
ATOM      8  C   UNL     1      25.469  38.405   7.582  1.00  0.00     0.199 C 
BRANCH   8   9
ATOM      9  C   UNL     1      24.565  38.321   8.822  1.00  0.00     0.179 C 
ATOM     10  C   UNL     1      23.133  36.919   9.951  1.00  0.00     0.282 C 
ATOM     11  O   UNL     1      23.811  37.180   8.760  1.00  0.00    -0.341 OA
ATOM     12  C   UNL     1      24.169  36.597  11.031  1.00  0.00     0.202 C 
ATOM     13  C   UNL     1      25.476  37.275  10.834  1.00  0.00     0.179 C 
ATOM     14  C   UNL     1      25.318  38.553  10.082  1.00  0.00     0.177 C 
BRANCH  10  15
ATOM     15  O   UNL     1      22.373  35.829   9.799  1.00  0.00    -0.341 OA
BRANCH  15  16
ATOM     16  C   UNL     1      21.046  35.922   9.505  1.00  0.00     0.184 C 
ATOM     17  C   UNL     1      20.134  35.368  10.564  1.00  0.00     0.178 C 
ATOM     18  O   UNL     1      19.440  34.278  10.156  1.00  0.00    -0.341 OA
ATOM     19  C   UNL     1      18.575  34.471   9.060  1.00  0.00     0.281 C 
ATOM     20  C   UNL     1      20.786  35.249   8.183  1.00  0.00     0.180 C 
ATOM     21  C   UNL     1      19.287  35.223   7.958  1.00  0.00     0.202 C 
BRANCH  17  22
ATOM     22  C   UNL     1      19.184  36.451  11.010  1.00  0.00     0.191 C 
BRANCH  22  23
ATOM     23  O   UNL     1      19.576  37.705  10.471  1.00  0.00    -0.394 OA
ATOM     24  H   UNL     1      19.000  38.441  10.782  1.00  0.00     0.210 HD
ENDBRANCH  22  23
ENDBRANCH  17  22
BRANCH  19  25
ATOM     25  O   UNL     1      17.390  35.012   9.446  1.00  0.00    -0.350 OA
BRANCH  25  26
ATOM     26  C   UNL     1      16.568  35.657   8.622  1.00  0.00     0.169 C 
BRANCH  26  27
ATOM     27  C   UNL     1      15.317  34.941   8.220  1.00  0.00     0.119 C 
BRANCH  27  28
ATOM     28  N   UNL     1      15.340  34.297   6.955  1.00  0.00    -0.092 NA
ATOM     29  N   UNL     1      15.928  33.245   6.722  1.00  0.00     0.001 N 
ATOM     30  N   UNL     1      16.871  32.450   6.568  1.00  0.00    -0.003 NA
ENDBRANCH  27  28
ENDBRANCH  26  27
ENDBRANCH  25  26
ENDBRANCH  19  25
BRANCH  20  31
ATOM     31  O   UNL     1      21.374  36.020   7.184  1.00  0.00    -0.387 OA
ATOM     32  H   UNL     1      20.856  36.848   7.008  1.00  0.00     0.211 HD
ENDBRANCH  20  31
BRANCH  21  33
ATOM     33  O   UNL     1      19.093  34.591   6.732  1.00  0.00    -0.385 OA
ATOM     34  H   UNL     1      19.516  33.692   6.739  1.00  0.00     0.211 HD
ENDBRANCH  21  33
ENDBRANCH  15  16
ENDBRANCH  10  15
BRANCH  12  35
ATOM     35  O   UNL     1      23.649  36.874  12.294  1.00  0.00    -0.385 OA
ATOM     36  H   UNL     1      22.759  36.498  12.391  1.00  0.00     0.211 HD
ENDBRANCH  12  35
BRANCH  13  37
ATOM     37  O   UNL     1      26.448  36.459  10.277  1.00  0.00    -0.387 OA
ATOM     38  H   UNL     1      26.865  35.923  10.999  1.00  0.00     0.211 HD
ENDBRANCH  13  37
BRANCH  14  39
ATOM     39  O   UNL     1      26.601  39.060   9.828  1.00  0.00    -0.387 OA
ATOM     40  H   UNL     1      26.666  39.945  10.237  1.00  0.00     0.211 HD
ENDBRANCH  14  39
ENDBRANCH   8   9
ENDBRANCH   7   8
ENDBRANCH   1   7
BRANCH   1  41
ATOM     41  C   UNL     1      26.575  41.533   7.344  1.00  0.00     0.364 C 
ATOM     42  O   UNL     1      26.358  42.633   6.821  1.00  0.00    -0.246 OA
BRANCH  41  43
ATOM     43  O   UNL     1      26.875  41.560   8.709  1.00  0.00    -0.477 OA
ATOM     44  H   UNL     1      26.703  40.725   9.294  1.00  0.00     0.296 HD
ENDBRANCH  41  43
ENDBRANCH   1  41
BRANCH   3  45
ATOM     45  O   UNL     1      27.386  38.369   4.592  1.00  0.00    -0.391 OA
ATOM     46  H   UNL     1      28.238  37.963   4.894  1.00  0.00     0.211 HD
ENDBRANCH   3  45
BRANCH   5  47
ATOM     47  C   UNL     1      29.881  39.003   6.853  1.00  0.00     0.176 C 
BRANCH  47  48
ATOM     48  O   UNL     1      31.101  39.209   6.282  1.00  0.00    -0.388 OA
ATOM     49  H   UNL     1      31.271  38.526   5.591  1.00  0.00     0.211 HD
ENDBRANCH  47  48
BRANCH  47  50
ATOM     50  C   UNL     1      29.919  38.737   8.293  1.00  0.00     0.165 C 
BRANCH  50  51
ATOM     51  O   UNL     1      28.857  37.970   8.790  1.00  0.00    -0.388 OA
ATOM     52  H   UNL     1      28.973  37.799   9.760  1.00  0.00     0.211 HD
ENDBRANCH  50  51
BRANCH  50  53
ATOM     53  C   UNL     1      30.071  39.929   9.199  1.00  0.00     0.154 C 
BRANCH  53  54
ATOM     54  N   UNL     1      29.440  39.583  10.485  1.00  0.00    -0.319 N 
ATOM     55  C   UNL     1      30.210  39.356  11.661  1.00  0.00     0.407 C 
ATOM     56  H   UNL     1      28.418  39.508  10.512  1.00  0.00     0.167 HD
ATOM     57  O   UNL     1      31.461  39.465  11.558  1.00  0.00    -0.225 OA
BRANCH  55  58
ATOM     58  O   UNL     1      29.651  39.032  12.874  1.00  0.00    -0.443 OA
BRANCH  58  59
ATOM     59  C   UNL     1      28.503  38.219  12.951  1.00  0.00     0.294 C 
BRANCH  59  60
ATOM     60  C   UNL     1      28.933  36.805  13.057  1.00  0.00     0.120 A 
ATOM     61  C   UNL     1      30.124  36.306  13.572  1.00  0.00     0.138 A 
ATOM     62  N   UNL     1      28.250  35.712  12.661  1.00  0.00    -0.132 NA
ATOM     63  N   UNL     1      30.115  34.963  13.471  1.00  0.00    -0.248 N 
ATOM     64  N   UNL     1      28.976  34.633  12.919  1.00  0.00    -0.067 NA
BRANCH  63  65
ATOM     65  C   UNL     1      31.164  34.086  13.900  1.00  0.00     0.181 C 
BRANCH  65  66
ATOM     66  C   UNL     1      30.859  33.331  15.138  1.00  0.00    -0.023 A 
ATOM     67  C   UNL     1      31.435  33.690  16.317  1.00  0.00     0.010 A 
ATOM     68  C   UNL     1      29.979  32.243  15.098  1.00  0.00     0.056 A 
ATOM     69  C   UNL     1      31.140  32.975  17.450  1.00  0.00     0.051 A 
ATOM     70  C   UNL     1      29.678  31.522  16.220  1.00  0.00     0.166 A 
ATOM     71  C   UNL     1      30.279  31.912  17.403  1.00  0.00     0.165 A 
ATOM     72  O   UNL     1      28.882  30.434  16.525  1.00  0.00    -0.454 OA
ATOM     73  O   UNL     1      29.852  31.062  18.431  1.00  0.00    -0.454 OA
ATOM     74  C   UNL     1      28.711  30.392  17.939  1.00  0.00     0.468 C 
ENDBRANCH  65  66
ENDBRANCH  63  65
ENDBRANCH  59  60
ENDBRANCH  58  59
ENDBRANCH  55  58
ENDBRANCH  53  54
ENDBRANCH  50  53
ENDBRANCH  47  50
ENDBRANCH   5  47
BRANCH   4  75
ATOM     75  N   UNL     1      29.011  41.484   4.392  1.00  0.00    -0.348 N 
ATOM     76  C   UNL     1      30.339  41.922   4.065  1.00  0.00     0.217 C 
ATOM     77  H   UNL     1      28.272  42.189   4.220  1.00  0.00     0.163 HD
ATOM     78  C   UNL     1      30.544  43.310   3.528  1.00  0.00     0.114 C 
ATOM     79  O   UNL     1      31.316  41.153   4.224  1.00  0.00    -0.275 OA
ENDBRANCH   4  75
TORSDOF 31
BEGIN_RES LYS A 131
REMARK  4 active torsions:
REMARK  status: ('A' for Active; 'I' for Inactive)
REMARK    1  A    between atoms: CA   and  CB  
REMARK    2  A    between atoms: CB   and  CG  
REMARK    3  A    between atoms: CG   and  CD  
REMARK    4  A    between atoms: CD   and  CE  
ROOT
ATOM      1  CA  LYS A 131      29.867  25.555  16.977  1.00 20.52     0.186 C 
ENDROOT
BRANCH   1   2
ATOM      2  CB  LYS A 131      28.345  25.722  17.026  1.00 20.94     0.034 C 
BRANCH   2   3
ATOM      3  CG  LYS A 131      27.601  24.403  16.887  1.00 22.96     0.005 C 
BRANCH   3   4
ATOM      4  CD  LYS A 131      26.342  24.373  17.708  1.00 24.33     0.041 C 
BRANCH   4   5
ATOM      5  CE  LYS A 131      26.376  25.502  18.733  1.00 26.91     0.338 C 
ATOM      6  NZ  LYS A 131      25.006  25.994  19.009  1.00 27.40     0.618 N 
ENDBRANCH   4   5
ENDBRANCH   3   4
ENDBRANCH   2   3
ENDBRANCH   1   2
END_RES LYS A 131
BEGIN_RES LYS A 135
REMARK  4 active torsions:
REMARK  status: ('A' for Active; 'I' for Inactive)
REMARK    5  A    between atoms: CA   and  CB  
REMARK    6  A    between atoms: CB   and  CG  
REMARK    7  A    between atoms: CG   and  CD  
REMARK    8  A    between atoms: CD   and  CE  
ROOT
ATOM      7  CA  LYS A 135      33.193  34.663   9.290  1.00 25.02     0.186 C 
ENDROOT
BRANCH   7   8
ATOM      8  CB  LYS A 135      32.060  35.360  10.034  1.00 26.63     0.034 C 
BRANCH   8   9
ATOM      9  CG  LYS A 135      30.731  34.664   9.896  1.00 29.45     0.005 C 
BRANCH   9  10
ATOM     10  CD  LYS A 135      30.325  34.568   8.433  1.00 32.00     0.041 C 
BRANCH  10  11
ATOM     11  CE  LYS A 135      28.815  34.492   8.303  1.00 34.25     0.338 C 
ATOM     12  NZ  LYS A 135      28.216  33.746   9.444  1.00 35.99     0.618 N 
ENDBRANCH  10  11
ENDBRANCH   9  10
ENDBRANCH   8   9
ENDBRANCH   7   8
END_RES LYS A 135
