REMARK VINA RESULT:    -5.129      3.168      7.625
REMARK INTER + INTRA:         -22.654
REMARK INTER:                 -10.405
REMARK INTRA:                 -12.249
REMARK UNBOUND:                -9.729
REMARK SMILES CC(=O)N[C@@H]1[C@@H](O)C[C@](OC[C@H]2O[C@@H](O[C@H]3[C@H](O)[C@@H](O)[C@H](OCCN=[N+]=[N-])O[C@@H]3CO)[C@H](O)[C@@H](O)[C@H]2O)(C(=O)O)O[C@H]1C(O)[C@H](O)CNC(=O)OCc1cn(-c2ncccc2C#N)nn1
REMARK SMILES IDX 9 1 8 2 6 3 5 4 42 5 41 6 10 7 11 8 12 9 14 10 13 11 32 12
REMARK SMILES IDX 34 13 36 14 15 15 16 16 29 17 28 18 21 19 17 20 19 21 30 22
REMARK SMILES IDX 31 23 22 25 23 26 24 27 25 28 26 29 27 30 18 31 20 33 33 35
REMARK SMILES IDX 35 37 37 39 38 41 39 42 40 43 7 45 43 47 44 48 45 50 46 51
REMARK SMILES IDX 47 53 48 54 49 55 50 57 51 58 52 59 53 60 54 61 65 62 55 63
REMARK SMILES IDX 64 64 56 65 57 66 61 67 58 68 60 69 59 70 62 71 63 72 4 73
REMARK SMILES IDX 2 74 1 76 3 77
REMARK H PARENT 31 24 18 32 20 34 33 36 35 38 37 40 40 44 7 46 44 49 46 52
REMARK H PARENT 48 56 4 75
REMARK Flexibility Score: inf
ROOT
ATOM      1  C   UNL     1      29.521  31.473  16.954  1.00  0.00     0.272 C 
ATOM      2  C   UNL     1      30.707  31.593  16.095  1.00  0.00     0.113 C 
ATOM      3  C   UNL     1      30.607  32.673  15.091  1.00  0.00     0.145 C 
ATOM      4  C   UNL     1      29.762  33.849  15.454  1.00  0.00     0.142 C 
ATOM      5  C   UNL     1      29.176  33.847  16.838  1.00  0.00     0.178 C 
ATOM      6  O   UNL     1      28.959  32.662  17.360  1.00  0.00    -0.332 OA
ENDROOT
BRANCH   1   7
ATOM      7  O   UNL     1      29.541  30.729  18.064  1.00  0.00    -0.338 OA
BRANCH   7   8
ATOM      8  C   UNL     1      30.191  30.754  19.186  1.00  0.00     0.199 C 
BRANCH   8   9
ATOM      9  C   UNL     1      29.231  30.271  20.278  1.00  0.00     0.179 C 
ATOM     10  C   UNL     1      27.462  28.924  20.719  1.00  0.00     0.282 C 
ATOM     11  O   UNL     1      28.094  29.752  19.721  1.00  0.00    -0.341 OA
ATOM     12  C   UNL     1      28.245  27.674  20.895  1.00  0.00     0.202 C 
ATOM     13  C   UNL     1      29.720  27.985  21.167  1.00  0.00     0.179 C 
ATOM     14  C   UNL     1      29.862  29.450  21.340  1.00  0.00     0.177 C 
BRANCH  10  15
ATOM     15  O   UNL     1      26.172  28.689  20.391  1.00  0.00    -0.341 OA
BRANCH  15  16
ATOM     16  C   UNL     1      25.778  29.146  19.166  1.00  0.00     0.184 C 
ATOM     17  C   UNL     1      24.648  30.204  19.338  1.00  0.00     0.178 C 
ATOM     18  O   UNL     1      23.462  29.646  18.865  1.00  0.00    -0.341 OA
ATOM     19  C   UNL     1      23.205  28.420  19.497  1.00  0.00     0.281 C 
ATOM     20  C   UNL     1      25.271  28.082  18.227  1.00  0.00     0.180 C 
ATOM     21  C   UNL     1      24.073  27.368  18.864  1.00  0.00     0.202 C 
BRANCH  17  22
ATOM     22  C   UNL     1      25.038  31.441  18.596  1.00  0.00     0.191 C 
BRANCH  22  23
ATOM     23  O   UNL     1      26.428  31.655  18.623  1.00  0.00    -0.394 OA
ATOM     24  H   UNL     1      26.732  32.203  17.861  1.00  0.00     0.210 HD
ENDBRANCH  22  23
ENDBRANCH  17  22
BRANCH  19  25
ATOM     25  O   UNL     1      21.860  28.171  19.345  1.00  0.00    -0.350 OA
BRANCH  25  26
ATOM     26  C   UNL     1      21.587  27.543  18.115  1.00  0.00     0.169 C 
BRANCH  26  27
ATOM     27  C   UNL     1      20.613  28.372  17.304  1.00  0.00     0.119 C 
BRANCH  27  28
ATOM     28  N   UNL     1      20.052  29.367  18.229  1.00  0.00    -0.092 NA
ATOM     29  N   UNL     1      20.229  30.568  17.897  1.00  0.00     0.001 N 
ATOM     30  N   UNL     1      20.659  31.730  17.838  1.00  0.00    -0.003 NA
ENDBRANCH  27  28
ENDBRANCH  26  27
ENDBRANCH  25  26
ENDBRANCH  19  25
BRANCH  20  31
ATOM     31  O   UNL     1      24.914  28.575  16.994  1.00  0.00    -0.387 OA
ATOM     32  H   UNL     1      25.210  29.471  16.765  1.00  0.00     0.211 HD
ENDBRANCH  20  31
BRANCH  21  33
ATOM     33  O   UNL     1      24.521  26.430  19.787  1.00  0.00    -0.385 OA
ATOM     34  H   UNL     1      23.937  26.512  20.590  1.00  0.00     0.211 HD
ENDBRANCH  21  33
ENDBRANCH  15  16
ENDBRANCH  10  15
BRANCH  12  35
ATOM     35  O   UNL     1      27.746  26.921  21.944  1.00  0.00    -0.385 OA
ATOM     36  H   UNL     1      27.012  26.333  21.567  1.00  0.00     0.211 HD
ENDBRANCH  12  35
BRANCH  13  37
ATOM     37  O   UNL     1      30.496  27.509  20.084  1.00  0.00    -0.387 OA
ATOM     38  H   UNL     1      31.163  28.201  19.813  1.00  0.00     0.211 HD
ENDBRANCH  13  37
BRANCH  14  39
ATOM     39  O   UNL     1      31.182  29.866  21.540  1.00  0.00    -0.387 OA
ATOM     40  H   UNL     1      31.472  30.467  20.780  1.00  0.00     0.211 HD
ENDBRANCH  14  39
ENDBRANCH   8   9
ENDBRANCH   7   8
ENDBRANCH   1   7
BRANCH   1  41
ATOM     41  C   UNL     1      28.453  30.826  16.072  1.00  0.00     0.364 C 
ATOM     42  O   UNL     1      28.559  29.735  15.539  1.00  0.00    -0.246 OA
BRANCH  41  43
ATOM     43  O   UNL     1      27.250  31.524  15.845  1.00  0.00    -0.477 OA
ATOM     44  H   UNL     1      26.364  31.056  15.732  1.00  0.00     0.296 HD
ENDBRANCH  41  43
ENDBRANCH   1  41
BRANCH   3  45
ATOM     45  O   UNL     1      31.888  33.074  14.665  1.00  0.00    -0.391 OA
ATOM     46  H   UNL     1      32.388  33.266  15.524  1.00  0.00     0.211 HD
ENDBRANCH   3  45
BRANCH   5  47
ATOM     47  C   UNL     1      29.965  34.799  17.781  1.00  0.00     0.176 C 
BRANCH  47  48
ATOM     48  O   UNL     1      29.719  34.321  19.103  1.00  0.00    -0.388 OA
ATOM     49  H   UNL     1      30.288  33.560  19.308  1.00  0.00     0.211 HD
ENDBRANCH  47  48
BRANCH  47  50
ATOM     50  C   UNL     1      29.579  36.186  17.763  1.00  0.00     0.165 C 
BRANCH  50  51
ATOM     51  O   UNL     1      30.590  37.144  18.024  1.00  0.00    -0.388 OA
ATOM     52  H   UNL     1      31.488  36.718  17.849  1.00  0.00     0.211 HD
ENDBRANCH  50  51
BRANCH  50  53
ATOM     53  C   UNL     1      28.498  36.555  18.729  1.00  0.00     0.154 C 
BRANCH  53  54
ATOM     54  N   UNL     1      27.150  36.261  18.439  1.00  0.00    -0.319 N 
ATOM     55  C   UNL     1      26.357  35.196  18.866  1.00  0.00     0.407 C 
ATOM     56  H   UNL     1      26.630  36.956  17.777  1.00  0.00     0.167 HD
ATOM     57  O   UNL     1      26.874  34.350  19.635  1.00  0.00    -0.225 OA
BRANCH  55  58
ATOM     58  O   UNL     1      25.018  35.107  18.434  1.00  0.00    -0.443 OA
BRANCH  58  59
ATOM     59  C   UNL     1      24.688  35.589  17.165  1.00  0.00     0.294 C 
BRANCH  59  60
ATOM     60  C   UNL     1      24.801  34.577  16.132  1.00  0.00     0.121 A 
ATOM     61  C   UNL     1      23.921  33.592  15.883  1.00  0.00     0.146 A 
ATOM     62  N   UNL     1      25.876  34.401  15.249  1.00  0.00    -0.131 NA
ATOM     63  N   UNL     1      24.373  32.814  14.909  1.00  0.00    -0.201 N 
ATOM     64  N   UNL     1      25.514  33.343  14.586  1.00  0.00    -0.060 NA
BRANCH  63  65
ATOM     65  C   UNL     1      23.788  31.702  14.265  1.00  0.00     0.173 A 
ATOM     66  N   UNL     1      24.255  30.486  14.651  1.00  0.00    -0.236 NA
ATOM     67  C   UNL     1      22.896  31.844  13.194  1.00  0.00     0.097 A 
ATOM     68  C   UNL     1      23.808  29.329  13.910  1.00  0.00     0.113 A 
ATOM     69  C   UNL     1      22.521  30.697  12.529  1.00  0.00     0.025 A 
ATOM     70  C   UNL     1      22.985  29.507  12.906  1.00  0.00     0.022 A 
BRANCH  67  71
ATOM     71  C   UNL     1      22.282  33.072  12.800  1.00  0.00     0.103 C 
ATOM     72  N   UNL     1      21.778  34.116  12.454  1.00  0.00    -0.192 NA
ENDBRANCH  67  71
ENDBRANCH  63  65
ENDBRANCH  59  60
ENDBRANCH  58  59
ENDBRANCH  55  58
ENDBRANCH  53  54
ENDBRANCH  50  53
ENDBRANCH  47  50
ENDBRANCH   5  47
BRANCH   4  73
ATOM     73  N   UNL     1      28.844  34.032  14.351  1.00  0.00    -0.348 N 
ATOM     74  C   UNL     1      29.031  34.788  13.191  1.00  0.00     0.217 C 
ATOM     75  H   UNL     1      27.879  33.541  14.417  1.00  0.00     0.163 HD
ATOM     76  C   UNL     1      27.966  34.821  12.111  1.00  0.00     0.114 C 
ATOM     77  O   UNL     1      30.044  35.476  12.937  1.00  0.00    -0.275 OA
ENDBRANCH   4  73
TORSDOF 31
BEGIN_RES LYS A 131
REMARK  4 active torsions:
REMARK  status: ('A' for Active; 'I' for Inactive)
REMARK    1  A    between atoms: CA   and  CB  
REMARK    2  A    between atoms: CB   and  CG  
REMARK    3  A    between atoms: CG   and  CD  
REMARK    4  A    between atoms: CD   and  CE  
ROOT
ATOM      1  CA  LYS A 131      29.867  25.555  16.977  1.00 20.52     0.186 C 
ENDROOT
BRANCH   1   2
ATOM      2  CB  LYS A 131      28.345  25.722  17.026  1.00 20.94     0.034 C 
BRANCH   2   3
ATOM      3  CG  LYS A 131      27.602  24.398  16.935  1.00 22.96     0.005 C 
BRANCH   3   4
ATOM      4  CD  LYS A 131      26.149  24.538  17.297  1.00 24.33     0.041 C 
BRANCH   4   5
ATOM      5  CE  LYS A 131      25.543  23.155  17.512  1.00 26.91     0.338 C 
ATOM      6  NZ  LYS A 131      24.077  23.192  17.299  1.00 27.40     0.618 N 
ENDBRANCH   4   5
ENDBRANCH   3   4
ENDBRANCH   2   3
ENDBRANCH   1   2
END_RES LYS A 131
BEGIN_RES LYS A 135
REMARK  4 active torsions:
REMARK  status: ('A' for Active; 'I' for Inactive)
REMARK    5  A    between atoms: CA   and  CB  
REMARK    6  A    between atoms: CB   and  CG  
REMARK    7  A    between atoms: CG   and  CD  
REMARK    8  A    between atoms: CD   and  CE  
ROOT
ATOM      7  CA  LYS A 135      33.193  34.663   9.290  1.00 25.02     0.186 C 
ENDROOT
BRANCH   7   8
ATOM      8  CB  LYS A 135      32.060  35.360  10.034  1.00 26.63     0.034 C 
BRANCH   8   9
ATOM      9  CG  LYS A 135      30.817  35.545   9.202  1.00 29.45     0.005 C 
BRANCH   9  10
ATOM     10  CD  LYS A 135      30.087  34.222   9.027  1.00 32.00     0.041 C 
BRANCH  10  11
ATOM     11  CE  LYS A 135      28.694  34.451   8.475  1.00 34.25     0.338 C 
ATOM     12  NZ  LYS A 135      28.740  35.232   7.207  1.00 35.99     0.618 N 
ENDBRANCH  10  11
ENDBRANCH   9  10
ENDBRANCH   8   9
ENDBRANCH   7   8
END_RES LYS A 135
