REMARK VINA RESULT:    -4.140      6.485     11.651
REMARK INTER + INTRA:         -23.904
REMARK INTER:                 -11.154
REMARK INTRA:                 -12.749
REMARK UNBOUND:               -13.108
REMARK SMILES CC(=O)N[C@@H]1[C@@H](O)C[C@](OC[C@H]2O[C@@H](O[C@H]3[C@H](O)[C@@H](O)[C@H](OCCN=[N+]=[N-])O[C@@H]3CO)[C@H](O)[C@@H](O)[C@H]2O)(C(=O)O)O[C@H]1C(O)[C@H](O)CNC(=O)OCc1cn(-c2cccc(C=CC(=O)O)c2)nn1
REMARK SMILES IDX 43 1 42 2 9 3 8 4 41 5 6 6 5 7 10 8 11 9 12 10 14 11 13 12
REMARK SMILES IDX 32 13 34 14 36 15 15 16 16 17 29 18 28 19 21 20 17 21 19 22
REMARK SMILES IDX 30 23 31 24 22 26 23 27 24 28 25 29 26 30 27 31 18 32 20 34
REMARK SMILES IDX 33 36 35 38 37 40 38 42 39 43 40 44 7 46 4 48 2 49 1 51 3 52
REMARK SMILES IDX 44 53 45 55 46 56 47 58 48 59 49 60 50 62 51 63 52 64 53 65
REMARK SMILES IDX 54 66 68 67 55 68 67 69 56 70 66 71 57 72 60 73 58 74 59 75
REMARK SMILES IDX 61 76 62 77 63 78 64 79 65 80
REMARK H PARENT 31 25 18 33 20 35 33 37 35 39 37 41 40 45 7 47 4 50 44 54
REMARK H PARENT 46 57 48 61 65 81
REMARK Flexibility Score: inf
ROOT
ATOM      1  C   UNL     1      27.180  36.448  16.685  1.00  0.00     0.176 C 
ENDROOT
BRANCH   1   2
ATOM      2  C   UNL     1      27.325  34.956  16.909  1.00  0.00     0.178 C 
ATOM      3  C   UNL     1      29.051  33.432  17.414  1.00  0.00     0.272 C 
ATOM      4  C   UNL     1      27.737  32.524  17.263  1.00  0.00     0.113 C 
ATOM      5  O   UNL     1      28.659  34.712  17.083  1.00  0.00    -0.332 OA
ATOM      6  C   UNL     1      27.264  32.753  15.872  1.00  0.00     0.145 C 
ATOM      7  C   UNL     1      26.812  34.192  15.720  1.00  0.00     0.142 C 
BRANCH   3   8
ATOM      8  O   UNL     1      29.843  32.944  16.453  1.00  0.00    -0.338 OA
BRANCH   8   9
ATOM      9  C   UNL     1      31.160  32.846  16.487  1.00  0.00     0.199 C 
BRANCH   9  10
ATOM     10  C   UNL     1      31.986  33.559  15.437  1.00  0.00     0.179 C 
ATOM     11  C   UNL     1      31.264  34.953  13.668  1.00  0.00     0.282 C 
ATOM     12  O   UNL     1      31.206  33.760  14.360  1.00  0.00    -0.341 OA
ATOM     13  C   UNL     1      32.631  35.509  13.734  1.00  0.00     0.202 C 
ATOM     14  C   UNL     1      33.179  35.713  15.113  1.00  0.00     0.179 C 
ATOM     15  C   UNL     1      32.380  34.881  16.081  1.00  0.00     0.177 C 
BRANCH  11  16
ATOM     16  O   UNL     1      30.226  35.726  14.141  1.00  0.00    -0.341 OA
BRANCH  16  17
ATOM     17  C   UNL     1      29.534  36.429  13.217  1.00  0.00     0.184 C 
ATOM     18  C   UNL     1      29.273  37.831  13.675  1.00  0.00     0.178 C 
ATOM     19  O   UNL     1      28.907  38.536  12.504  1.00  0.00    -0.341 OA
ATOM     20  C   UNL     1      27.621  38.156  12.112  1.00  0.00     0.281 C 
ATOM     21  C   UNL     1      28.146  35.841  12.944  1.00  0.00     0.180 C 
ATOM     22  C   UNL     1      27.489  36.688  11.875  1.00  0.00     0.202 C 
BRANCH  18  23
ATOM     23  C   UNL     1      30.428  38.514  14.316  1.00  0.00     0.191 C 
BRANCH  23  24
ATOM     24  O   UNL     1      30.482  38.157  15.661  1.00  0.00    -0.394 OA
ATOM     25  H   UNL     1      30.555  37.156  15.751  1.00  0.00     0.210 HD
ENDBRANCH  23  24
ENDBRANCH  18  23
BRANCH  20  26
ATOM     26  O   UNL     1      27.332  38.830  10.929  1.00  0.00    -0.350 OA
BRANCH  26  27
ATOM     27  C   UNL     1      27.993  38.272   9.837  1.00  0.00     0.169 C 
BRANCH  27  28
ATOM     28  C   UNL     1      28.533  39.403   8.991  1.00  0.00     0.119 C 
BRANCH  28  29
ATOM     29  N   UNL     1      29.811  39.825   9.513  1.00  0.00    -0.092 NA
ATOM     30  N   UNL     1      30.733  39.003   9.659  1.00  0.00     0.001 N 
ATOM     31  N   UNL     1      31.495  38.173  10.180  1.00  0.00    -0.003 NA
ENDBRANCH  28  29
ENDBRANCH  27  28
ENDBRANCH  26  27
ENDBRANCH  20  26
BRANCH  21  32
ATOM     32  O   UNL     1      28.211  34.544  12.450  1.00  0.00    -0.387 OA
ATOM     33  H   UNL     1      27.273  34.226  12.423  1.00  0.00     0.211 HD
ENDBRANCH  21  32
BRANCH  22  34
ATOM     34  O   UNL     1      26.110  36.382  11.937  1.00  0.00    -0.385 OA
ATOM     35  H   UNL     1      25.893  35.810  12.707  1.00  0.00     0.211 HD
ENDBRANCH  22  34
ENDBRANCH  16  17
ENDBRANCH  11  16
BRANCH  13  36
ATOM     36  O   UNL     1      33.525  34.624  13.064  1.00  0.00    -0.385 OA
ATOM     37  H   UNL     1      34.283  35.151  12.685  1.00  0.00     0.211 HD
ENDBRANCH  13  36
BRANCH  14  38
ATOM     38  O   UNL     1      33.235  37.052  15.507  1.00  0.00    -0.387 OA
ATOM     39  H   UNL     1      32.331  37.444  15.611  1.00  0.00     0.211 HD
ENDBRANCH  14  38
BRANCH  15  40
ATOM     40  O   UNL     1      31.262  35.590  16.474  1.00  0.00    -0.387 OA
ATOM     41  H   UNL     1      30.414  35.208  16.086  1.00  0.00     0.211 HD
ENDBRANCH  15  40
ENDBRANCH   9  10
ENDBRANCH   8   9
ENDBRANCH   3   8
BRANCH   3  42
ATOM     42  C   UNL     1      29.411  33.340  18.819  1.00  0.00     0.364 C 
ATOM     43  O   UNL     1      29.105  32.465  19.649  1.00  0.00    -0.246 OA
BRANCH  42  44
ATOM     44  O   UNL     1      30.224  34.373  19.347  1.00  0.00    -0.477 OA
ATOM     45  H   UNL     1      31.056  34.091  19.888  1.00  0.00     0.296 HD
ENDBRANCH  42  44
ENDBRANCH   3  42
BRANCH   6  46
ATOM     46  O   UNL     1      28.409  32.552  15.031  1.00  0.00    -0.391 OA
ATOM     47  H   UNL     1      29.110  33.221  15.264  1.00  0.00     0.211 HD
ENDBRANCH   6  46
BRANCH   7  48
ATOM     48  N   UNL     1      25.440  34.370  15.408  1.00  0.00    -0.348 N 
ATOM     49  C   UNL     1      24.788  34.145  14.193  1.00  0.00     0.217 C 
ATOM     50  H   UNL     1      24.793  34.757  16.189  1.00  0.00     0.163 HD
ATOM     51  C   UNL     1      23.301  34.428  14.094  1.00  0.00     0.114 C 
ATOM     52  O   UNL     1      25.353  33.714  13.152  1.00  0.00    -0.275 OA
ENDBRANCH   7  48
ENDBRANCH   1   2
BRANCH   1  53
ATOM     53  O   UNL     1      26.412  36.672  15.557  1.00  0.00    -0.388 OA
ATOM     54  H   UNL     1      26.221  35.880  15.023  1.00  0.00     0.211 HD
ENDBRANCH   1  53
BRANCH   1  55
ATOM     55  C   UNL     1      26.445  37.128  17.841  1.00  0.00     0.165 C 
BRANCH  55  56
ATOM     56  O   UNL     1      25.341  37.834  17.452  1.00  0.00    -0.388 OA
ATOM     57  H   UNL     1      24.482  37.381  17.615  1.00  0.00     0.211 HD
ENDBRANCH  55  56
BRANCH  55  58
ATOM     58  C   UNL     1      27.379  37.956  18.663  1.00  0.00     0.154 C 
BRANCH  58  59
ATOM     59  N   UNL     1      28.720  37.860  18.212  1.00  0.00    -0.319 N 
ATOM     60  C   UNL     1      29.788  37.482  19.057  1.00  0.00     0.407 C 
ATOM     61  H   UNL     1      28.969  38.073  17.208  1.00  0.00     0.167 HD
ATOM     62  O   UNL     1      29.589  37.211  20.274  1.00  0.00    -0.225 OA
BRANCH  60  63
ATOM     63  O   UNL     1      31.101  37.384  18.605  1.00  0.00    -0.443 OA
BRANCH  63  64
ATOM     64  C   UNL     1      32.117  37.293  19.610  1.00  0.00     0.294 C 
BRANCH  64  65
ATOM     65  C   UNL     1      33.416  37.271  18.912  1.00  0.00     0.121 A 
ATOM     66  C   UNL     1      34.308  36.207  18.803  1.00  0.00     0.144 A 
ATOM     67  N   UNL     1      33.971  38.291  18.238  1.00  0.00    -0.131 NA
ATOM     68  N   UNL     1      35.363  36.625  18.067  1.00  0.00    -0.220 N 
ATOM     69  N   UNL     1      35.131  37.881  17.744  1.00  0.00    -0.062 NA
BRANCH  68  70
ATOM     70  C   UNL     1      36.469  35.799  17.739  1.00  0.00     0.067 A 
ATOM     71  C   UNL     1      36.823  35.616  16.403  1.00  0.00     0.036 A 
ATOM     72  C   UNL     1      37.197  35.178  18.698  1.00  0.00     0.028 A 
ATOM     73  C   UNL     1      37.875  34.834  16.038  1.00  0.00    -0.023 A 
ATOM     74  C   UNL     1      38.283  34.369  18.373  1.00  0.00     0.003 A 
ATOM     75  C   UNL     1      38.596  34.217  17.042  1.00  0.00     0.008 A 
BRANCH  73  76
ATOM     76  C   UNL     1      38.244  34.640  14.653  1.00  0.00     0.015 C 
ATOM     77  C   UNL     1      37.489  33.942  13.841  1.00  0.00     0.094 C 
BRANCH  77  78
ATOM     78  C   UNL     1      37.901  33.771  12.446  1.00  0.00     0.328 C 
ATOM     79  O   UNL     1      37.125  33.324  11.595  1.00  0.00    -0.247 OA
BRANCH  78  80
ATOM     80  O   UNL     1      39.191  34.114  12.048  1.00  0.00    -0.478 OA
ATOM     81  H   UNL     1      39.343  35.073  11.729  1.00  0.00     0.297 HD
ENDBRANCH  78  80
ENDBRANCH  77  78
ENDBRANCH  73  76
ENDBRANCH  68  70
ENDBRANCH  64  65
ENDBRANCH  63  64
ENDBRANCH  60  63
ENDBRANCH  58  59
ENDBRANCH  55  58
ENDBRANCH   1  55
TORSDOF 33
BEGIN_RES LYS A 131
REMARK  4 active torsions:
REMARK  status: ('A' for Active; 'I' for Inactive)
REMARK    1  A    between atoms: CA   and  CB  
REMARK    2  A    between atoms: CB   and  CG  
REMARK    3  A    between atoms: CG   and  CD  
REMARK    4  A    between atoms: CD   and  CE  
ROOT
ATOM      1  CA  LYS A 131      29.867  25.555  16.977  1.00 20.52     0.186 C 
ENDROOT
BRANCH   1   2
ATOM      2  CB  LYS A 131      28.345  25.722  17.026  1.00 20.94     0.034 C 
BRANCH   2   3
ATOM      3  CG  LYS A 131      27.599  24.476  16.575  1.00 22.96     0.005 C 
BRANCH   3   4
ATOM      4  CD  LYS A 131      27.258  23.571  17.727  1.00 24.33     0.041 C 
BRANCH   4   5
ATOM      5  CE  LYS A 131      25.779  23.717  18.068  1.00 26.91     0.338 C 
ATOM      6  NZ  LYS A 131      25.052  24.373  16.956  1.00 27.40     0.618 N 
ENDBRANCH   4   5
ENDBRANCH   3   4
ENDBRANCH   2   3
ENDBRANCH   1   2
END_RES LYS A 131
BEGIN_RES LYS A 135
REMARK  4 active torsions:
REMARK  status: ('A' for Active; 'I' for Inactive)
REMARK    5  A    between atoms: CA   and  CB  
REMARK    6  A    between atoms: CB   and  CG  
REMARK    7  A    between atoms: CG   and  CD  
REMARK    8  A    between atoms: CD   and  CE  
ROOT
ATOM      7  CA  LYS A 135      33.193  34.663   9.290  1.00 25.02     0.186 C 
ENDROOT
BRANCH   7   8
ATOM      8  CB  LYS A 135      32.060  35.360  10.034  1.00 26.63     0.034 C 
BRANCH   8   9
ATOM      9  CG  LYS A 135      30.756  34.606   9.989  1.00 29.45     0.005 C 
BRANCH   9  10
ATOM     10  CD  LYS A 135      30.291  34.423   8.552  1.00 32.00     0.041 C 
BRANCH  10  11
ATOM     11  CE  LYS A 135      29.703  35.713   8.014  1.00 34.25     0.338 C 
ATOM     12  NZ  LYS A 135      28.895  35.464   6.788  1.00 35.99     0.618 N 
ENDBRANCH  10  11
ENDBRANCH   9  10
ENDBRANCH   8   9
ENDBRANCH   7   8
END_RES LYS A 135
