REMARK VINA RESULT:    -4.598      4.814     11.219
REMARK INTER + INTRA:         -23.727
REMARK INTER:                 -12.523
REMARK INTRA:                 -11.204
REMARK UNBOUND:               -12.409
REMARK SMILES CC(=O)N[C@@H]1[C@@H](O)C[C@](OC[C@H]2O[C@@H](O[C@H]3[C@H](O)[C@@H](O)[C@H](OCCN=[N+]=[N-])O[C@@H]3CO)[C@H](O)[C@@H](O)[C@H]2O)(C(=O)O)O[C@H]1C(O)[C@H](O)CNC(=O)OCc1cn(C2c3ccccc3-c3ccccc32)nn1
REMARK SMILES IDX 9 1 8 2 6 3 5 4 42 5 41 6 10 7 11 8 12 9 14 10 13 11 32 12
REMARK SMILES IDX 34 13 36 14 15 15 16 16 29 17 28 18 21 19 17 20 19 21 30 22
REMARK SMILES IDX 31 23 22 25 23 26 24 27 25 28 26 29 27 30 18 31 20 33 33 35
REMARK SMILES IDX 35 37 37 39 38 41 39 42 40 43 7 45 43 47 44 48 45 50 46 51
REMARK SMILES IDX 47 53 48 54 49 55 50 57 51 58 52 59 53 60 54 61 70 62 55 63
REMARK SMILES IDX 69 64 56 65 57 66 68 67 58 68 62 69 63 70 67 71 59 72 61 73
REMARK SMILES IDX 64 74 66 75 60 76 65 77 4 78 2 79 1 81 3 82
REMARK H PARENT 31 24 18 32 20 34 33 36 35 38 37 40 40 44 7 46 44 49 46 52
REMARK H PARENT 48 56 4 80
REMARK Flexibility Score: inf
ROOT
ATOM      1  C   UNL     1      29.931  31.896  20.398  1.00  0.00     0.272 C 
ATOM      2  C   UNL     1      29.224  30.936  21.265  1.00  0.00     0.113 C 
ATOM      3  C   UNL     1      27.760  30.911  21.035  1.00  0.00     0.145 C 
ATOM      4  C   UNL     1      27.222  32.151  20.375  1.00  0.00     0.142 C 
ATOM      5  C   UNL     1      28.091  33.305  20.737  1.00  0.00     0.178 C 
ATOM      6  O   UNL     1      29.415  33.200  20.456  1.00  0.00    -0.332 OA
ENDROOT
BRANCH   1   7
ATOM      7  O   UNL     1      29.975  31.515  19.083  1.00  0.00    -0.338 OA
BRANCH   7   8
ATOM      8  C   UNL     1      30.240  32.492  18.163  1.00  0.00     0.199 C 
BRANCH   8   9
ATOM      9  C   UNL     1      30.772  31.874  16.889  1.00  0.00     0.179 C 
ATOM     10  C   UNL     1      28.753  32.178  15.736  1.00  0.00     0.282 C 
ATOM     11  O   UNL     1      29.712  31.325  16.206  1.00  0.00    -0.341 OA
ATOM     12  C   UNL     1      29.357  33.360  15.080  1.00  0.00     0.202 C 
ATOM     13  C   UNL     1      30.780  32.929  14.677  1.00  0.00     0.179 C 
ATOM     14  C   UNL     1      31.516  32.861  16.032  1.00  0.00     0.177 C 
BRANCH  10  15
ATOM     15  O   UNL     1      27.759  32.391  16.652  1.00  0.00    -0.341 OA
BRANCH  15  16
ATOM     16  C   UNL     1      26.605  31.672  16.491  1.00  0.00     0.184 C 
ATOM     17  C   UNL     1      26.877  30.361  15.854  1.00  0.00     0.178 C 
ATOM     18  O   UNL     1      25.911  29.983  14.928  1.00  0.00    -0.341 OA
ATOM     19  C   UNL     1      24.657  30.397  15.238  1.00  0.00     0.281 C 
ATOM     20  C   UNL     1      25.712  32.567  15.636  1.00  0.00     0.180 C 
ATOM     21  C   UNL     1      24.581  31.897  14.974  1.00  0.00     0.202 C 
BRANCH  17  22
ATOM     22  C   UNL     1      26.978  29.245  16.871  1.00  0.00     0.191 C 
BRANCH  22  23
ATOM     23  O   UNL     1      28.112  29.432  17.698  1.00  0.00    -0.394 OA
ATOM     24  H   UNL     1      27.911  30.139  18.384  1.00  0.00     0.210 HD
ENDBRANCH  22  23
ENDBRANCH  17  22
BRANCH  19  25
ATOM     25  O   UNL     1      24.243  30.206  16.543  1.00  0.00    -0.350 OA
BRANCH  25  26
ATOM     26  C   UNL     1      22.891  30.090  16.697  1.00  0.00     0.169 C 
BRANCH  26  27
ATOM     27  C   UNL     1      22.214  29.025  15.906  1.00  0.00     0.119 C 
BRANCH  27  28
ATOM     28  N   UNL     1      21.126  29.521  15.089  1.00  0.00    -0.092 NA
ATOM     29  N   UNL     1      21.445  30.158  14.077  1.00  0.00     0.001 N 
ATOM     30  N   UNL     1      21.681  30.889  13.108  1.00  0.00    -0.003 NA
ENDBRANCH  27  28
ENDBRANCH  26  27
ENDBRANCH  25  26
ENDBRANCH  19  25
BRANCH  20  31
ATOM     31  O   UNL     1      25.186  33.604  16.452  1.00  0.00    -0.387 OA
ATOM     32  H   UNL     1      24.198  33.548  16.483  1.00  0.00     0.211 HD
ENDBRANCH  20  31
BRANCH  21  33
ATOM     33  O   UNL     1      24.660  32.063  13.584  1.00  0.00    -0.385 OA
ATOM     34  H   UNL     1      24.461  31.226  13.089  1.00  0.00     0.211 HD
ENDBRANCH  21  33
ENDBRANCH  15  16
ENDBRANCH  10  15
BRANCH  12  35
ATOM     35  O   UNL     1      28.736  33.712  13.883  1.00  0.00    -0.385 OA
ATOM     36  H   UNL     1      27.831  34.045  14.086  1.00  0.00     0.211 HD
ENDBRANCH  12  35
BRANCH  13  37
ATOM     37  O   UNL     1      31.410  33.895  13.928  1.00  0.00    -0.387 OA
ATOM     38  H   UNL     1      30.833  34.124  13.159  1.00  0.00     0.211 HD
ENDBRANCH  13  37
BRANCH  14  39
ATOM     39  O   UNL     1      31.400  34.124  16.581  1.00  0.00    -0.387 OA
ATOM     40  H   UNL     1      30.472  34.466  16.570  1.00  0.00     0.211 HD
ENDBRANCH  14  39
ENDBRANCH   8   9
ENDBRANCH   7   8
ENDBRANCH   1   7
BRANCH   1  41
ATOM     41  C   UNL     1      31.357  32.106  20.906  1.00  0.00     0.364 C 
ATOM     42  O   UNL     1      31.735  33.267  21.088  1.00  0.00    -0.246 OA
BRANCH  41  43
ATOM     43  O   UNL     1      32.196  31.047  21.154  1.00  0.00    -0.477 OA
ATOM     44  H   UNL     1      31.892  30.242  21.714  1.00  0.00     0.296 HD
ENDBRANCH  41  43
ENDBRANCH   1  41
BRANCH   3  45
ATOM     45  O   UNL     1      27.292  29.793  20.343  1.00  0.00    -0.391 OA
ATOM     46  H   UNL     1      27.266  28.989  20.882  1.00  0.00     0.211 HD
ENDBRANCH   3  45
BRANCH   5  47
ATOM     47  C   UNL     1      27.545  34.556  20.051  1.00  0.00     0.176 C 
BRANCH  47  48
ATOM     48  O   UNL     1      26.857  34.195  18.922  1.00  0.00    -0.388 OA
ATOM     49  H   UNL     1      26.082  33.595  19.142  1.00  0.00     0.211 HD
ENDBRANCH  47  48
BRANCH  47  50
ATOM     50  C   UNL     1      28.698  35.464  19.745  1.00  0.00     0.165 C 
BRANCH  50  51
ATOM     51  O   UNL     1      29.218  35.984  20.944  1.00  0.00    -0.388 OA
ATOM     52  H   UNL     1      30.084  35.569  21.155  1.00  0.00     0.211 HD
ENDBRANCH  50  51
BRANCH  50  53
ATOM     53  C   UNL     1      28.122  36.677  19.004  1.00  0.00     0.154 C 
BRANCH  53  54
ATOM     54  N   UNL     1      28.572  36.618  17.647  1.00  0.00    -0.319 N 
ATOM     55  C   UNL     1      27.653  36.451  16.590  1.00  0.00     0.407 C 
ATOM     56  H   UNL     1      29.594  36.703  17.434  1.00  0.00     0.167 HD
ATOM     57  O   UNL     1      26.419  36.338  16.808  1.00  0.00    -0.225 OA
BRANCH  55  58
ATOM     58  O   UNL     1      28.058  36.406  15.271  1.00  0.00    -0.443 OA
BRANCH  58  59
ATOM     59  C   UNL     1      27.383  37.098  14.231  1.00  0.00     0.294 C 
BRANCH  59  60
ATOM     60  C   UNL     1      26.868  36.079  13.283  1.00  0.00     0.120 A 
ATOM     61  C   UNL     1      26.982  36.060  11.899  1.00  0.00     0.139 A 
ATOM     62  N   UNL     1      26.187  34.967  13.597  1.00  0.00    -0.132 NA
ATOM     63  N   UNL     1      26.380  34.957  11.425  1.00  0.00    -0.240 N 
ATOM     64  N   UNL     1      25.907  34.315  12.482  1.00  0.00    -0.066 NA
BRANCH  63  65
ATOM     65  C   UNL     1      26.271  34.552  10.022  1.00  0.00     0.170 C 
ATOM     66  C   UNL     1      27.615  34.564   9.438  1.00  0.00    -0.011 A 
ATOM     67  C   UNL     1      25.536  35.567   9.247  1.00  0.00    -0.011 A 
ATOM     68  C   UNL     1      28.761  33.834   9.729  1.00  0.00     0.007 A 
ATOM     69  C   UNL     1      27.699  35.481   8.425  1.00  0.00    -0.012 A 
ATOM     70  C   UNL     1      26.384  36.108   8.312  1.00  0.00    -0.012 A 
ATOM     71  C   UNL     1      24.233  36.026   9.301  1.00  0.00     0.007 A 
ATOM     72  C   UNL     1      29.924  34.034   9.019  1.00  0.00     0.000 A 
ATOM     73  C   UNL     1      28.871  35.682   7.711  1.00  0.00     0.009 A 
ATOM     74  C   UNL     1      25.954  37.086   7.443  1.00  0.00     0.009 A 
ATOM     75  C   UNL     1      23.783  37.003   8.443  1.00  0.00     0.000 A 
ATOM     76  C   UNL     1      30.009  34.963   7.993  1.00  0.00     0.001 A 
ATOM     77  C   UNL     1      24.647  37.535   7.510  1.00  0.00     0.001 A 
ENDBRANCH  63  65
ENDBRANCH  59  60
ENDBRANCH  58  59
ENDBRANCH  55  58
ENDBRANCH  53  54
ENDBRANCH  50  53
ENDBRANCH  47  50
ENDBRANCH   5  47
BRANCH   4  78
ATOM     78  N   UNL     1      25.912  32.413  21.000  1.00  0.00    -0.348 N 
ATOM     79  C   UNL     1      24.702  32.299  20.269  1.00  0.00     0.217 C 
ATOM     80  H   UNL     1      25.902  32.686  21.993  1.00  0.00     0.163 HD
ATOM     81  C   UNL     1      23.380  32.569  20.917  1.00  0.00     0.114 C 
ATOM     82  O   UNL     1      24.773  31.962  19.054  1.00  0.00    -0.275 OA
ENDBRANCH   4  78
TORSDOF 30
BEGIN_RES LYS A 131
REMARK  4 active torsions:
REMARK  status: ('A' for Active; 'I' for Inactive)
REMARK    1  A    between atoms: CA   and  CB  
REMARK    2  A    between atoms: CB   and  CG  
REMARK    3  A    between atoms: CG   and  CD  
REMARK    4  A    between atoms: CD   and  CE  
ROOT
ATOM      1  CA  LYS A 131      29.867  25.555  16.977  1.00 20.52     0.186 C 
ENDROOT
BRANCH   1   2
ATOM      2  CB  LYS A 131      28.345  25.722  17.026  1.00 20.94     0.034 C 
BRANCH   2   3
ATOM      3  CG  LYS A 131      27.601  24.403  16.887  1.00 22.96     0.005 C 
BRANCH   3   4
ATOM      4  CD  LYS A 131      26.355  24.364  17.727  1.00 24.33     0.041 C 
BRANCH   4   5
ATOM      5  CE  LYS A 131      25.667  23.014  17.555  1.00 26.91     0.338 C 
ATOM      6  NZ  LYS A 131      24.250  23.199  17.162  1.00 27.40     0.618 N 
ENDBRANCH   4   5
ENDBRANCH   3   4
ENDBRANCH   2   3
ENDBRANCH   1   2
END_RES LYS A 131
BEGIN_RES LYS A 135
REMARK  4 active torsions:
REMARK  status: ('A' for Active; 'I' for Inactive)
REMARK    5  A    between atoms: CA   and  CB  
REMARK    6  A    between atoms: CB   and  CG  
REMARK    7  A    between atoms: CG   and  CD  
REMARK    8  A    between atoms: CD   and  CE  
ROOT
ATOM      7  CA  LYS A 135      33.193  34.663   9.290  1.00 25.02     0.186 C 
ENDROOT
BRANCH   7   8
ATOM      8  CB  LYS A 135      32.060  35.360  10.034  1.00 26.63     0.034 C 
BRANCH   8   9
ATOM      9  CG  LYS A 135      32.490  35.990  11.333  1.00 29.45     0.005 C 
BRANCH   9  10
ATOM     10  CD  LYS A 135      31.799  37.330  11.535  1.00 32.00     0.041 C 
BRANCH  10  11
ATOM     11  CE  LYS A 135      30.768  37.235  12.644  1.00 34.25     0.338 C 
ATOM     12  NZ  LYS A 135      30.660  38.520  13.388  1.00 35.99     0.618 N 
ENDBRANCH  10  11
ENDBRANCH   9  10
ENDBRANCH   8   9
ENDBRANCH   7   8
END_RES LYS A 135
