REMARK VINA RESULT:    -4.755      4.122      8.184
REMARK INTER + INTRA:         -22.902
REMARK INTER:                 -11.704
REMARK INTRA:                 -11.198
REMARK UNBOUND:               -11.198
REMARK SMILES CC(=O)N[C@@H]1[C@@H](O)C[C@](OC[C@H]2O[C@@H](O[C@H]3[C@H](O)[C@@H](O)[C@H](OCCN=[N+]=[N-])O[C@@H]3CO)[C@H](O)[C@@H](O)[C@H]2O)(C(=O)O)O[C@H]1C(O)[C@H](O)CNC(=O)OCc1cn(C23CC4CC(CC(C4)C2)C3)nn1
REMARK SMILES IDX 9 1 8 2 6 3 5 4 42 5 41 6 10 7 11 8 12 9 14 10 13 11 32 12
REMARK SMILES IDX 34 13 36 14 15 15 16 16 29 17 28 18 21 19 17 20 19 21 30 22
REMARK SMILES IDX 31 23 22 25 23 26 24 27 25 28 26 29 27 30 18 31 20 33 33 35
REMARK SMILES IDX 35 37 37 39 38 41 39 42 40 43 7 45 43 47 44 48 45 50 46 51
REMARK SMILES IDX 47 53 48 54 49 55 50 57 51 58 52 59 53 60 54 61 67 62 55 63
REMARK SMILES IDX 66 64 56 65 65 66 64 67 57 68 60 69 62 70 58 71 59 72 61 73
REMARK SMILES IDX 63 74 4 75 2 76 1 78 3 79
REMARK H PARENT 31 24 18 32 20 34 33 36 35 38 37 40 40 44 7 46 44 49 46 52
REMARK H PARENT 48 56 4 77
REMARK Flexibility Score: inf
ROOT
ATOM      1  C   UNL     1      21.079  36.920   9.313  1.00  0.00     0.272 C 
ATOM      2  C   UNL     1      20.697  38.335   9.045  1.00  0.00     0.113 C 
ATOM      3  C   UNL     1      19.302  38.622   9.562  1.00  0.00     0.145 C 
ATOM      4  C   UNL     1      18.360  37.916   8.575  1.00  0.00     0.142 C 
ATOM      5  C   UNL     1      18.944  36.549   8.376  1.00  0.00     0.178 C 
ATOM      6  O   UNL     1      19.859  36.153   9.318  1.00  0.00    -0.332 OA
ENDROOT
BRANCH   1   7
ATOM      7  O   UNL     1      21.638  36.641  10.482  1.00  0.00    -0.338 OA
BRANCH   7   8
ATOM      8  C   UNL     1      21.840  35.491  11.073  1.00  0.00     0.199 C 
BRANCH   8   9
ATOM      9  C   UNL     1      21.850  35.303  12.554  1.00  0.00     0.179 C 
ATOM     10  C   UNL     1      22.649  36.015  14.530  1.00  0.00     0.282 C 
ATOM     11  O   UNL     1      22.708  36.297  13.149  1.00  0.00    -0.341 OA
ATOM     12  C   UNL     1      21.490  36.799  15.051  1.00  0.00     0.202 C 
ATOM     13  C   UNL     1      20.405  36.767  13.991  1.00  0.00     0.179 C 
ATOM     14  C   UNL     1      20.468  35.503  13.168  1.00  0.00     0.177 C 
BRANCH  10  15
ATOM     15  O   UNL     1      23.863  36.293  15.148  1.00  0.00    -0.341 OA
BRANCH  15  16
ATOM     16  C   UNL     1      24.615  35.157  15.208  1.00  0.00     0.184 C 
ATOM     17  C   UNL     1      24.931  34.615  16.554  1.00  0.00     0.178 C 
ATOM     18  O   UNL     1      25.309  33.267  16.353  1.00  0.00    -0.341 OA
ATOM     19  C   UNL     1      26.578  33.190  15.732  1.00  0.00     0.281 C 
ATOM     20  C   UNL     1      25.973  35.329  14.517  1.00  0.00     0.180 C 
ATOM     21  C   UNL     1      26.630  33.993  14.476  1.00  0.00     0.202 C 
BRANCH  17  22
ATOM     22  C   UNL     1      23.877  34.735  17.589  1.00  0.00     0.191 C 
BRANCH  22  23
ATOM     23  O   UNL     1      23.722  36.100  17.881  1.00  0.00    -0.394 OA
ATOM     24  H   UNL     1      22.868  36.455  17.520  1.00  0.00     0.210 HD
ENDBRANCH  22  23
ENDBRANCH  17  22
BRANCH  19  25
ATOM     25  O   UNL     1      26.733  31.860  15.414  1.00  0.00    -0.350 OA
BRANCH  25  26
ATOM     26  C   UNL     1      27.420  31.099  16.285  1.00  0.00     0.169 C 
BRANCH  26  27
ATOM     27  C   UNL     1      26.568  30.075  16.965  1.00  0.00     0.119 C 
BRANCH  27  28
ATOM     28  N   UNL     1      27.243  28.772  16.976  1.00  0.00    -0.092 NA
ATOM     29  N   UNL     1      27.252  28.151  18.030  1.00  0.00     0.001 N 
ATOM     30  N   UNL     1      27.587  27.507  19.048  1.00  0.00    -0.003 NA
ENDBRANCH  27  28
ENDBRANCH  26  27
ENDBRANCH  25  26
ENDBRANCH  19  25
BRANCH  20  31
ATOM     31  O   UNL     1      25.823  35.795  13.212  1.00  0.00    -0.387 OA
ATOM     32  H   UNL     1      24.880  35.705  12.949  1.00  0.00     0.211 HD
ENDBRANCH  20  31
BRANCH  21  33
ATOM     33  O   UNL     1      27.962  34.204  14.127  1.00  0.00    -0.385 OA
ATOM     34  H   UNL     1      28.532  34.218  14.920  1.00  0.00     0.211 HD
ENDBRANCH  21  33
ENDBRANCH  15  16
ENDBRANCH  10  15
BRANCH  12  35
ATOM     35  O   UNL     1      21.019  36.417  16.282  1.00  0.00    -0.385 OA
ATOM     36  H   UNL     1      21.670  36.650  16.987  1.00  0.00     0.211 HD
ENDBRANCH  12  35
BRANCH  13  37
ATOM     37  O   UNL     1      20.413  37.899  13.186  1.00  0.00    -0.387 OA
ATOM     38  H   UNL     1      21.344  38.292  13.185  1.00  0.00     0.211 HD
ENDBRANCH  13  37
BRANCH  14  39
ATOM     39  O   UNL     1      19.559  35.627  12.126  1.00  0.00    -0.387 OA
ATOM     40  H   UNL     1      19.958  36.088  11.342  1.00  0.00     0.211 HD
ENDBRANCH  14  39
ENDBRANCH   8   9
ENDBRANCH   7   8
ENDBRANCH   1   7
BRANCH   1  41
ATOM     41  C   UNL     1      21.786  36.360   8.150  1.00  0.00     0.364 C 
ATOM     42  O   UNL     1      22.480  36.989   7.339  1.00  0.00    -0.246 OA
BRANCH  41  43
ATOM     43  O   UNL     1      21.630  34.954   7.971  1.00  0.00    -0.477 OA
ATOM     44  H   UNL     1      21.388  34.618   7.063  1.00  0.00     0.296 HD
ENDBRANCH  41  43
ENDBRANCH   1  41
BRANCH   3  45
ATOM     45  O   UNL     1      19.133  38.011  10.798  1.00  0.00    -0.391 OA
ATOM     46  H   UNL     1      20.027  37.713  11.102  1.00  0.00     0.211 HD
ENDBRANCH   3  45
BRANCH   5  47
ATOM     47  C   UNL     1      17.821  35.447   8.479  1.00  0.00     0.176 C 
BRANCH  47  48
ATOM     48  O   UNL     1      17.779  35.248   9.875  1.00  0.00    -0.388 OA
ATOM     49  H   UNL     1      18.390  35.928  10.252  1.00  0.00     0.211 HD
ENDBRANCH  47  48
BRANCH  47  50
ATOM     50  C   UNL     1      18.254  34.221   7.812  1.00  0.00     0.165 C 
BRANCH  50  51
ATOM     51  O   UNL     1      19.053  34.401   6.668  1.00  0.00    -0.388 OA
ATOM     52  H   UNL     1      18.579  34.008   5.876  1.00  0.00     0.211 HD
ENDBRANCH  50  51
BRANCH  50  53
ATOM     53  C   UNL     1      17.230  33.192   7.517  1.00  0.00     0.154 C 
BRANCH  53  54
ATOM     54  N   UNL     1      16.953  32.300   8.581  1.00  0.00    -0.319 N 
ATOM     55  C   UNL     1      17.101  30.906   8.604  1.00  0.00     0.407 C 
ATOM     56  H   UNL     1      16.575  32.772   9.496  1.00  0.00     0.167 HD
ATOM     57  O   UNL     1      17.503  30.287   7.606  1.00  0.00    -0.225 OA
BRANCH  55  58
ATOM     58  O   UNL     1      16.782  30.211   9.796  1.00  0.00    -0.443 OA
BRANCH  58  59
ATOM     59  C   UNL     1      16.664  30.959  10.980  1.00  0.00     0.294 C 
BRANCH  59  60
ATOM     60  C   UNL     1      18.001  31.359  11.446  1.00  0.00     0.120 A 
ATOM     61  C   UNL     1      18.923  30.526  12.026  1.00  0.00     0.138 A 
ATOM     62  N   UNL     1      18.570  32.578  11.400  1.00  0.00    -0.132 NA
ATOM     63  N   UNL     1      20.005  31.256  12.307  1.00  0.00    -0.246 N 
ATOM     64  N   UNL     1      19.763  32.492  11.918  1.00  0.00    -0.066 NA
BRANCH  63  65
ATOM     65  C   UNL     1      21.195  30.709  12.930  1.00  0.00     0.065 C 
ATOM     66  C   UNL     1      22.325  31.669  12.729  1.00  0.00     0.034 C 
ATOM     67  C   UNL     1      20.924  30.403  14.389  1.00  0.00     0.034 C 
ATOM     68  C   UNL     1      21.565  29.398  12.260  1.00  0.00     0.034 C 
ATOM     69  C   UNL     1      23.578  31.155  13.391  1.00  0.00    -0.008 C 
ATOM     70  C   UNL     1      22.198  29.956  15.043  1.00  0.00    -0.008 C 
ATOM     71  C   UNL     1      22.803  28.872  12.947  1.00  0.00    -0.008 C 
ATOM     72  C   UNL     1      23.948  29.830  12.773  1.00  0.00     0.007 C 
ATOM     73  C   UNL     1      23.282  30.974  14.862  1.00  0.00     0.007 C 
ATOM     74  C   UNL     1      22.600  28.629  14.416  1.00  0.00     0.007 C 
ENDBRANCH  63  65
ENDBRANCH  59  60
ENDBRANCH  58  59
ENDBRANCH  55  58
ENDBRANCH  53  54
ENDBRANCH  50  53
ENDBRANCH  47  50
ENDBRANCH   5  47
BRANCH   4  75
ATOM     75  N   UNL     1      18.392  38.665   7.314  1.00  0.00    -0.348 N 
ATOM     76  C   UNL     1      17.262  38.703   6.451  1.00  0.00     0.217 C 
ATOM     77  H   UNL     1      19.260  39.185   7.031  1.00  0.00     0.163 HD
ATOM     78  C   UNL     1      17.317  39.473   5.155  1.00  0.00     0.114 C 
ATOM     79  O   UNL     1      16.233  38.083   6.795  1.00  0.00    -0.275 OA
ENDBRANCH   4  75
TORSDOF 30
BEGIN_RES LYS A 131
REMARK  4 active torsions:
REMARK  status: ('A' for Active; 'I' for Inactive)
REMARK    1  A    between atoms: CA   and  CB  
REMARK    2  A    between atoms: CB   and  CG  
REMARK    3  A    between atoms: CG   and  CD  
REMARK    4  A    between atoms: CD   and  CE  
ROOT
ATOM      1  CA  LYS A 131      29.867  25.555  16.977  1.00 20.52     0.186 C 
ENDROOT
BRANCH   1   2
ATOM      2  CB  LYS A 131      28.345  25.722  17.026  1.00 20.94     0.034 C 
BRANCH   2   3
ATOM      3  CG  LYS A 131      27.601  24.405  16.871  1.00 22.96     0.005 C 
BRANCH   3   4
ATOM      4  CD  LYS A 131      26.565  24.209  17.943  1.00 24.33     0.041 C 
BRANCH   4   5
ATOM      5  CE  LYS A 131      25.249  23.775  17.307  1.00 26.91     0.338 C 
ATOM      6  NZ  LYS A 131      24.385  24.951  17.048  1.00 27.40     0.618 N 
ENDBRANCH   4   5
ENDBRANCH   3   4
ENDBRANCH   2   3
ENDBRANCH   1   2
END_RES LYS A 131
BEGIN_RES LYS A 135
REMARK  4 active torsions:
REMARK  status: ('A' for Active; 'I' for Inactive)
REMARK    5  A    between atoms: CA   and  CB  
REMARK    6  A    between atoms: CB   and  CG  
REMARK    7  A    between atoms: CG   and  CD  
REMARK    8  A    between atoms: CD   and  CE  
ROOT
ATOM      7  CA  LYS A 135      33.193  34.663   9.290  1.00 25.02     0.186 C 
ENDROOT
BRANCH   7   8
ATOM      8  CB  LYS A 135      32.060  35.360  10.034  1.00 26.63     0.034 C 
BRANCH   8   9
ATOM      9  CG  LYS A 135      30.707  34.747   9.782  1.00 29.45     0.005 C 
BRANCH   9  10
ATOM     10  CD  LYS A 135      30.498  34.498   8.296  1.00 32.00     0.041 C 
BRANCH  10  11
ATOM     11  CE  LYS A 135      29.146  35.023   7.853  1.00 34.25     0.338 C 
ATOM     12  NZ  LYS A 135      28.043  34.378   8.620  1.00 35.99     0.618 N 
ENDBRANCH  10  11
ENDBRANCH   9  10
ENDBRANCH   8   9
ENDBRANCH   7   8
END_RES LYS A 135
