REMARK VINA RESULT:    -4.109      2.754      6.114
REMARK INTER + INTRA:         -21.600
REMARK INTER:                  -7.699
REMARK INTRA:                 -13.901
REMARK UNBOUND:               -11.125
REMARK SMILES CC(=O)N[C@@H]1[C@@H](O)C[C@](OC[C@H]2O[C@@H](O[C@H]3[C@H](O)[C@@H](O)[C@H](OCCN=[N+]=[N-])O[C@@H]3CO)[C@H](O)[C@@H](O)[C@H]2O)(C(=O)O)O[C@H]1C(O)[C@H](O)CNC(=O)OCc1cn([C@@H](C)C(=O)O)nn1
REMARK SMILES IDX 9 1 8 2 6 3 5 4 42 5 41 6 10 7 11 8 12 9 14 10 13 11 32 12
REMARK SMILES IDX 34 13 36 14 15 15 16 16 29 17 28 18 21 19 17 20 19 21 30 22
REMARK SMILES IDX 31 23 22 25 23 26 24 27 25 28 26 29 27 30 18 31 20 33 33 35
REMARK SMILES IDX 35 37 37 39 38 41 39 42 40 43 7 45 43 47 44 48 45 50 46 51
REMARK SMILES IDX 47 53 48 54 49 55 50 57 51 58 52 59 53 60 54 61 62 62 55 63
REMARK SMILES IDX 61 64 56 65 57 66 58 67 59 68 60 69 4 71 2 72 1 74 3 75
REMARK H PARENT 31 24 18 32 20 34 33 36 35 38 37 40 40 44 7 46 44 49 46 52
REMARK H PARENT 48 56 60 70 4 73
REMARK Flexibility Score: inf
ROOT
ATOM      1  C   UNL     1      29.912  32.165  19.938  1.00  0.00     0.272 C 
ATOM      2  C   UNL     1      30.446  33.521  20.194  1.00  0.00     0.113 C 
ATOM      3  C   UNL     1      29.898  34.426  19.114  1.00  0.00     0.145 C 
ATOM      4  C   UNL     1      30.718  33.984  17.849  1.00  0.00     0.142 C 
ATOM      5  C   UNL     1      30.816  32.536  17.782  1.00  0.00     0.178 C 
ATOM      6  O   UNL     1      29.996  31.797  18.591  1.00  0.00    -0.332 OA
ENDROOT
BRANCH   1   7
ATOM      7  O   UNL     1      28.649  31.995  20.413  1.00  0.00    -0.338 OA
BRANCH   7   8
ATOM      8  C   UNL     1      28.225  30.761  20.743  1.00  0.00     0.199 C 
BRANCH   8   9
ATOM      9  C   UNL     1      27.130  30.269  19.763  1.00  0.00     0.179 C 
ATOM     10  C   UNL     1      25.713  31.107  18.145  1.00  0.00     0.282 C 
ATOM     11  O   UNL     1      26.808  31.339  18.971  1.00  0.00    -0.341 OA
ATOM     12  C   UNL     1      25.281  29.670  18.145  1.00  0.00     0.202 C 
ATOM     13  C   UNL     1      26.477  28.748  18.000  1.00  0.00     0.179 C 
ATOM     14  C   UNL     1      27.604  29.114  18.951  1.00  0.00     0.177 C 
BRANCH  10  15
ATOM     15  O   UNL     1      25.953  31.465  16.811  1.00  0.00    -0.341 OA
BRANCH  15  16
ATOM     16  C   UNL     1      24.782  31.820  16.156  1.00  0.00     0.184 C 
ATOM     17  C   UNL     1      24.864  31.442  14.712  1.00  0.00     0.178 C 
ATOM     18  O   UNL     1      24.948  32.556  13.876  1.00  0.00    -0.341 OA
ATOM     19  C   UNL     1      25.972  33.417  14.282  1.00  0.00     0.281 C 
ATOM     20  C   UNL     1      24.605  33.313  16.305  1.00  0.00     0.180 C 
ATOM     21  C   UNL     1      25.636  34.120  15.567  1.00  0.00     0.202 C 
BRANCH  17  22
ATOM     22  C   UNL     1      23.672  30.624  14.271  1.00  0.00     0.191 C 
BRANCH  22  23
ATOM     23  O   UNL     1      22.466  31.251  14.576  1.00  0.00    -0.394 OA
ATOM     24  H   UNL     1      22.321  31.238  15.544  1.00  0.00     0.210 HD
ENDBRANCH  22  23
ENDBRANCH  17  22
BRANCH  19  25
ATOM     25  O   UNL     1      26.107  34.361  13.279  1.00  0.00    -0.350 OA
BRANCH  25  26
ATOM     26  C   UNL     1      25.337  35.464  13.584  1.00  0.00     0.169 C 
BRANCH  26  27
ATOM     27  C   UNL     1      24.253  35.663  12.545  1.00  0.00     0.119 C 
BRANCH  27  28
ATOM     28  N   UNL     1      22.974  35.273  13.134  1.00  0.00    -0.092 NA
ATOM     29  N   UNL     1      22.319  34.321  12.709  1.00  0.00     0.001 N 
ATOM     30  N   UNL     1      21.873  33.235  12.384  1.00  0.00    -0.003 NA
ENDBRANCH  27  28
ENDBRANCH  26  27
ENDBRANCH  25  26
ENDBRANCH  19  25
BRANCH  20  31
ATOM     31  O   UNL     1      23.331  33.729  15.924  1.00  0.00    -0.387 OA
ATOM     32  H   UNL     1      22.606  33.184  16.299  1.00  0.00     0.211 HD
ENDBRANCH  20  31
BRANCH  21  33
ATOM     33  O   UNL     1      26.799  34.225  16.327  1.00  0.00    -0.385 OA
ATOM     34  H   UNL     1      27.479  34.770  15.868  1.00  0.00     0.211 HD
ENDBRANCH  21  33
ENDBRANCH  15  16
ENDBRANCH  10  15
BRANCH  12  35
ATOM     35  O   UNL     1      24.452  29.325  19.186  1.00  0.00    -0.385 OA
ATOM     36  H   UNL     1      23.571  29.805  19.098  1.00  0.00     0.211 HD
ENDBRANCH  12  35
BRANCH  13  37
ATOM     37  O   UNL     1      26.938  28.894  16.673  1.00  0.00    -0.387 OA
ATOM     38  H   UNL     1      27.152  28.009  16.275  1.00  0.00     0.211 HD
ENDBRANCH  13  37
BRANCH  14  39
ATOM     39  O   UNL     1      28.766  29.427  18.246  1.00  0.00    -0.387 OA
ATOM     40  H   UNL     1      28.766  30.392  18.017  1.00  0.00     0.211 HD
ENDBRANCH  14  39
ENDBRANCH   8   9
ENDBRANCH   7   8
ENDBRANCH   1   7
BRANCH   1  41
ATOM     41  C   UNL     1      30.821  31.194  20.603  1.00  0.00     0.364 C 
ATOM     42  O   UNL     1      31.098  30.121  20.048  1.00  0.00    -0.246 OA
BRANCH  41  43
ATOM     43  O   UNL     1      31.375  31.462  21.846  1.00  0.00    -0.477 OA
ATOM     44  H   UNL     1      32.366  31.729  21.936  1.00  0.00     0.296 HD
ENDBRANCH  41  43
ENDBRANCH   1  41
BRANCH   3  45
ATOM     45  O   UNL     1      28.594  34.029  18.846  1.00  0.00    -0.391 OA
ATOM     46  H   UNL     1      28.463  33.707  17.938  1.00  0.00     0.211 HD
ENDBRANCH   3  45
BRANCH   5  47
ATOM     47  C   UNL     1      30.738  31.914  16.397  1.00  0.00     0.176 C 
BRANCH  47  48
ATOM     48  O   UNL     1      31.726  32.586  15.592  1.00  0.00    -0.388 OA
ATOM     49  H   UNL     1      31.277  33.129  14.922  1.00  0.00     0.211 HD
ENDBRANCH  47  48
BRANCH  47  50
ATOM     50  C   UNL     1      29.448  32.216  15.659  1.00  0.00     0.165 C 
BRANCH  50  51
ATOM     51  O   UNL     1      28.563  31.187  15.565  1.00  0.00    -0.388 OA
ATOM     52  H   UNL     1      28.172  30.849  16.401  1.00  0.00     0.211 HD
ENDBRANCH  50  51
BRANCH  50  53
ATOM     53  C   UNL     1      29.677  33.001  14.413  1.00  0.00     0.154 C 
BRANCH  53  54
ATOM     54  N   UNL     1      29.279  34.358  14.415  1.00  0.00    -0.319 N 
ATOM     55  C   UNL     1      29.224  35.242  13.306  1.00  0.00     0.407 C 
ATOM     56  H   UNL     1      28.986  34.762  15.359  1.00  0.00     0.167 HD
ATOM     57  O   UNL     1      29.542  34.826  12.186  1.00  0.00    -0.225 OA
BRANCH  55  58
ATOM     58  O   UNL     1      28.812  36.573  13.494  1.00  0.00    -0.443 OA
BRANCH  58  59
ATOM     59  C   UNL     1      29.229  37.300  14.618  1.00  0.00     0.294 C 
BRANCH  59  60
ATOM     60  C   UNL     1      28.271  37.261  15.729  1.00  0.00     0.120 A 
ATOM     61  C   UNL     1      27.045  37.877  15.846  1.00  0.00     0.139 A 
ATOM     62  N   UNL     1      28.484  36.556  16.871  1.00  0.00    -0.132 NA
ATOM     63  N   UNL     1      26.553  37.534  17.038  1.00  0.00    -0.238 N 
ATOM     64  N   UNL     1      27.415  36.739  17.660  1.00  0.00    -0.066 NA
BRANCH  63  65
ATOM     65  C   UNL     1      25.279  37.959  17.581  1.00  0.00     0.215 C 
ATOM     66  C   UNL     1      24.499  36.766  18.036  1.00  0.00     0.046 C 
BRANCH  65  67
ATOM     67  C   UNL     1      25.462  38.909  18.703  1.00  0.00     0.328 C 
ATOM     68  O   UNL     1      24.511  39.669  19.007  1.00  0.00    -0.250 OA
BRANCH  67  69
ATOM     69  O   UNL     1      26.643  38.987  19.427  1.00  0.00    -0.480 OA
ATOM     70  H   UNL     1      27.434  38.387  19.225  1.00  0.00     0.296 HD
ENDBRANCH  67  69
ENDBRANCH  65  67
ENDBRANCH  63  65
ENDBRANCH  59  60
ENDBRANCH  58  59
ENDBRANCH  55  58
ENDBRANCH  53  54
ENDBRANCH  50  53
ENDBRANCH  47  50
ENDBRANCH   5  47
BRANCH   4  71
ATOM     71  N   UNL     1      31.971  34.715  17.876  1.00  0.00    -0.348 N 
ATOM     72  C   UNL     1      32.549  35.429  16.827  1.00  0.00     0.217 C 
ATOM     73  H   UNL     1      32.492  34.695  18.799  1.00  0.00     0.163 HD
ATOM     74  C   UNL     1      33.843  36.136  16.978  1.00  0.00     0.114 C 
ATOM     75  O   UNL     1      31.963  35.473  15.729  1.00  0.00    -0.275 OA
ENDBRANCH   4  71
TORSDOF 32
BEGIN_RES LYS A 131
REMARK  4 active torsions:
REMARK  status: ('A' for Active; 'I' for Inactive)
REMARK    1  A    between atoms: CA   and  CB  
REMARK    2  A    between atoms: CB   and  CG  
REMARK    3  A    between atoms: CG   and  CD  
REMARK    4  A    between atoms: CD   and  CE  
ROOT
ATOM      1  CA  LYS A 131      29.867  25.555  16.977  1.00 20.52     0.186 C 
ENDROOT
BRANCH   1   2
ATOM      2  CB  LYS A 131      28.345  25.722  17.026  1.00 20.94     0.034 C 
BRANCH   2   3
ATOM      3  CG  LYS A 131      27.601  24.401  16.907  1.00 22.96     0.005 C 
BRANCH   3   4
ATOM      4  CD  LYS A 131      26.593  24.217  18.006  1.00 24.33     0.041 C 
BRANCH   4   5
ATOM      5  CE  LYS A 131      25.272  24.860  17.599  1.00 26.91     0.338 C 
ATOM      6  NZ  LYS A 131      24.419  23.884  16.880  1.00 27.40     0.618 N 
ENDBRANCH   4   5
ENDBRANCH   3   4
ENDBRANCH   2   3
ENDBRANCH   1   2
END_RES LYS A 131
BEGIN_RES LYS A 135
REMARK  4 active torsions:
REMARK  status: ('A' for Active; 'I' for Inactive)
REMARK    5  A    between atoms: CA   and  CB  
REMARK    6  A    between atoms: CB   and  CG  
REMARK    7  A    between atoms: CG   and  CD  
REMARK    8  A    between atoms: CD   and  CE  
ROOT
ATOM      7  CA  LYS A 135      33.193  34.663   9.290  1.00 25.02     0.186 C 
ENDROOT
BRANCH   7   8
ATOM      8  CB  LYS A 135      32.060  35.360  10.034  1.00 26.63     0.034 C 
BRANCH   8   9
ATOM      9  CG  LYS A 135      30.838  35.598   9.185  1.00 29.45     0.005 C 
BRANCH   9  10
ATOM     10  CD  LYS A 135      30.188  34.278   8.799  1.00 32.00     0.041 C 
BRANCH  10  11
ATOM     11  CE  LYS A 135      28.717  34.479   8.489  1.00 34.25     0.338 C 
ATOM     12  NZ  LYS A 135      27.859  33.718   9.439  1.00 35.99     0.618 N 
ENDBRANCH  10  11
ENDBRANCH   9  10
ENDBRANCH   8   9
ENDBRANCH   7   8
END_RES LYS A 135
