REMARK VINA RESULT:    -3.882      2.962      8.006
REMARK INTER + INTRA:         -21.626
REMARK INTER:                 -12.888
REMARK INTRA:                  -8.737
REMARK UNBOUND:               -12.070
REMARK SMILES CC(=O)N[C@@H]1[C@@H](O)C[C@](OC[C@H]2O[C@@H](O[C@H]3[C@H](O)[C@@H](O)[C@H](OCCN=[N+]=[N-])O[C@@H]3CO)[C@H](O)[C@@H](O)[C@H]2O)(C(=O)O)O[C@H]1C(O)[C@H](O)CNC(=O)OCc1cn(-c2ccccc2I)nn1
REMARK SMILES IDX 9 1 8 2 6 3 5 4 42 5 41 6 10 7 11 8 12 9 14 10 13 11 32 12
REMARK SMILES IDX 34 13 36 14 15 15 16 16 29 17 28 18 21 19 17 20 19 21 30 22
REMARK SMILES IDX 31 23 22 25 23 26 24 27 25 28 26 29 27 30 18 31 20 33 33 35
REMARK SMILES IDX 35 37 37 39 38 41 39 42 40 43 7 45 43 47 44 48 45 50 46 51
REMARK SMILES IDX 47 53 48 54 49 55 50 57 51 58 52 59 53 60 54 61 64 62 55 63
REMARK SMILES IDX 63 64 56 65 57 66 61 67 58 68 60 69 62 70 59 71 4 72 2 73
REMARK SMILES IDX 1 75 3 76
REMARK H PARENT 31 24 18 32 20 34 33 36 35 38 37 40 40 44 7 46 44 49 46 52
REMARK H PARENT 48 56 4 74
REMARK Flexibility Score: inf
ROOT
ATOM      1  C   UNL     1      28.862  38.087  11.894  1.00  0.00     0.272 C 
ATOM      2  C   UNL     1      29.883  39.063  12.407  1.00  0.00     0.113 C 
ATOM      3  C   UNL     1      31.155  38.341  12.882  1.00  0.00     0.145 C 
ATOM      4  C   UNL     1      30.691  37.479  14.092  1.00  0.00     0.142 C 
ATOM      5  C   UNL     1      29.495  36.672  13.669  1.00  0.00     0.178 C 
ATOM      6  O   UNL     1      29.360  36.797  12.281  1.00  0.00    -0.332 OA
ENDROOT
BRANCH   1   7
ATOM      7  O   UNL     1      28.714  37.964  10.549  1.00  0.00    -0.338 OA
BRANCH   7   8
ATOM      8  C   UNL     1      29.059  38.796   9.612  1.00  0.00     0.199 C 
BRANCH   8   9
ATOM      9  C   UNL     1      29.204  38.371   8.205  1.00  0.00     0.179 C 
ATOM     10  C   UNL     1      27.185  38.367   7.137  1.00  0.00     0.282 C 
ATOM     11  O   UNL     1      28.217  37.628   7.649  1.00  0.00    -0.341 OA
ATOM     12  C   UNL     1      27.584  39.004   5.812  1.00  0.00     0.202 C 
ATOM     13  C   UNL     1      29.104  39.283   5.862  1.00  0.00     0.179 C 
ATOM     14  C   UNL     1      29.460  39.613   7.298  1.00  0.00     0.177 C 
BRANCH  10  15
ATOM     15  O   UNL     1      26.468  39.150   7.983  1.00  0.00    -0.341 OA
BRANCH  15  16
ATOM     16  C   UNL     1      25.206  38.702   8.300  1.00  0.00     0.184 C 
ATOM     17  C   UNL     1      24.863  37.316   7.822  1.00  0.00     0.178 C 
ATOM     18  O   UNL     1      23.483  37.172   7.706  1.00  0.00    -0.341 OA
ATOM     19  C   UNL     1      22.756  37.981   8.588  1.00  0.00     0.281 C 
ATOM     20  C   UNL     1      24.223  39.598   7.515  1.00  0.00     0.180 C 
ATOM     21  C   UNL     1      22.898  39.442   8.250  1.00  0.00     0.202 C 
BRANCH  17  22
ATOM     22  C   UNL     1      25.495  36.204   8.594  1.00  0.00     0.191 C 
BRANCH  22  23
ATOM     23  O   UNL     1      25.980  36.759   9.785  1.00  0.00    -0.394 OA
ATOM     24  H   UNL     1      25.900  36.067  10.496  1.00  0.00     0.210 HD
ENDBRANCH  22  23
ENDBRANCH  17  22
BRANCH  19  25
ATOM     25  O   UNL     1      22.989  37.683   9.896  1.00  0.00    -0.350 OA
BRANCH  25  26
ATOM     26  C   UNL     1      22.155  36.723  10.379  1.00  0.00     0.169 C 
BRANCH  26  27
ATOM     27  C   UNL     1      22.784  35.466  10.892  1.00  0.00     0.119 C 
BRANCH  27  28
ATOM     28  N   UNL     1      23.870  35.627  11.817  1.00  0.00    -0.092 NA
ATOM     29  N   UNL     1      24.558  34.616  12.048  1.00  0.00     0.001 N 
ATOM     30  N   UNL     1      25.313  33.741  12.476  1.00  0.00    -0.003 NA
ENDBRANCH  27  28
ENDBRANCH  26  27
ENDBRANCH  25  26
ENDBRANCH  19  25
BRANCH  20  31
ATOM     31  O   UNL     1      24.651  40.912   7.515  1.00  0.00    -0.387 OA
ATOM     32  H   UNL     1      24.662  41.211   8.463  1.00  0.00     0.211 HD
ENDBRANCH  20  31
BRANCH  21  33
ATOM     33  O   UNL     1      21.842  39.937   7.488  1.00  0.00    -0.385 OA
ATOM     34  H   UNL     1      21.084  40.163   8.119  1.00  0.00     0.211 HD
ENDBRANCH  21  33
ENDBRANCH  15  16
ENDBRANCH  10  15
BRANCH  12  35
ATOM     35  O   UNL     1      27.401  38.155   4.728  1.00  0.00    -0.385 OA
ATOM     36  H   UNL     1      28.276  38.093   4.264  1.00  0.00     0.211 HD
ENDBRANCH  12  35
BRANCH  13  37
ATOM     37  O   UNL     1      29.512  40.248   4.997  1.00  0.00    -0.387 OA
ATOM     38  H   UNL     1      30.120  39.942   4.257  1.00  0.00     0.211 HD
ENDBRANCH  13  37
BRANCH  14  39
ATOM     39  O   UNL     1      28.604  40.598   7.759  1.00  0.00    -0.387 OA
ATOM     40  H   UNL     1      28.638  40.630   8.767  1.00  0.00     0.211 HD
ENDBRANCH  14  39
ENDBRANCH   8   9
ENDBRANCH   7   8
ENDBRANCH   1   7
BRANCH   1  41
ATOM     41  C   UNL     1      27.576  38.292  12.584  1.00  0.00     0.364 C 
ATOM     42  O   UNL     1      27.321  39.232  13.356  1.00  0.00    -0.246 OA
BRANCH  41  43
ATOM     43  O   UNL     1      26.511  37.384  12.398  1.00  0.00    -0.477 OA
ATOM     44  H   UNL     1      26.216  37.151  11.439  1.00  0.00     0.296 HD
ENDBRANCH  41  43
ENDBRANCH   1  41
BRANCH   3  45
ATOM     45  O   UNL     1      31.707  37.547  11.901  1.00  0.00    -0.391 OA
ATOM     46  H   UNL     1      32.609  37.869  11.663  1.00  0.00     0.211 HD
ENDBRANCH   3  45
BRANCH   5  47
ATOM     47  C   UNL     1      29.810  35.162  13.845  1.00  0.00     0.176 C 
BRANCH  47  48
ATOM     48  O   UNL     1      29.477  34.870  15.224  1.00  0.00    -0.388 OA
ATOM     49  H   UNL     1      30.261  34.341  15.565  1.00  0.00     0.211 HD
ENDBRANCH  47  48
BRANCH  47  50
ATOM     50  C   UNL     1      31.284  34.891  13.815  1.00  0.00     0.165 C 
BRANCH  50  51
ATOM     51  O   UNL     1      31.651  34.481  12.507  1.00  0.00    -0.388 OA
ATOM     52  H   UNL     1      32.536  34.847  12.258  1.00  0.00     0.211 HD
ENDBRANCH  50  51
BRANCH  50  53
ATOM     53  C   UNL     1      31.848  33.934  14.775  1.00  0.00     0.154 C 
BRANCH  53  54
ATOM     54  N   UNL     1      31.265  32.605  14.757  1.00  0.00    -0.319 N 
ATOM     55  C   UNL     1      30.786  32.045  15.980  1.00  0.00     0.407 C 
ATOM     56  H   UNL     1      31.171  32.022  13.903  1.00  0.00     0.167 HD
ATOM     57  O   UNL     1      30.892  32.722  17.055  1.00  0.00    -0.225 OA
BRANCH  55  58
ATOM     58  O   UNL     1      30.203  30.801  16.104  1.00  0.00    -0.443 OA
BRANCH  58  59
ATOM     59  C   UNL     1      28.862  30.575  15.693  1.00  0.00     0.294 C 
BRANCH  59  60
ATOM     60  C   UNL     1      28.083  30.109  16.897  1.00  0.00     0.121 A 
ATOM     61  C   UNL     1      27.432  28.911  17.077  1.00  0.00     0.144 A 
ATOM     62  N   UNL     1      27.889  30.817  18.023  1.00  0.00    -0.131 NA
ATOM     63  N   UNL     1      26.884  28.972  18.305  1.00  0.00    -0.219 N 
ATOM     64  N   UNL     1      27.164  30.129  18.873  1.00  0.00    -0.062 NA
BRANCH  63  65
ATOM     65  C   UNL     1      26.100  27.965  18.936  1.00  0.00     0.080 A 
ATOM     66  C   UNL     1      26.655  27.132  19.900  1.00  0.00     0.029 A 
ATOM     67  C   UNL     1      24.778  27.784  18.604  1.00  0.00     0.039 A 
ATOM     68  C   UNL     1      25.848  26.151  20.488  1.00  0.00     0.002 A 
ATOM     69  C   UNL     1      23.986  26.796  19.203  1.00  0.00     0.017 A 
ATOM     70  I   UNL     1      23.907  29.034  17.138  1.00  0.00    -0.042 I 
ATOM     71  C   UNL     1      24.527  25.971  20.156  1.00  0.00     0.001 A 
ENDBRANCH  63  65
ENDBRANCH  59  60
ENDBRANCH  58  59
ENDBRANCH  55  58
ENDBRANCH  53  54
ENDBRANCH  50  53
ENDBRANCH  47  50
ENDBRANCH   5  47
BRANCH   4  72
ATOM     72  N   UNL     1      30.489  38.394  15.156  1.00  0.00    -0.348 N 
ATOM     73  C   UNL     1      30.720  38.050  16.535  1.00  0.00     0.217 C 
ATOM     74  H   UNL     1      30.165  39.366  15.011  1.00  0.00     0.163 HD
ATOM     75  C   UNL     1      30.513  38.994  17.650  1.00  0.00     0.114 C 
ATOM     76  O   UNL     1      31.117  36.875  16.755  1.00  0.00    -0.275 OA
ENDBRANCH   4  72
TORSDOF 30
BEGIN_RES LYS A 131
REMARK  4 active torsions:
REMARK  status: ('A' for Active; 'I' for Inactive)
REMARK    1  A    between atoms: CA   and  CB  
REMARK    2  A    between atoms: CB   and  CG  
REMARK    3  A    between atoms: CG   and  CD  
REMARK    4  A    between atoms: CD   and  CE  
ROOT
ATOM      1  CA  LYS A 131      29.867  25.555  16.977  1.00 20.52     0.186 C 
ENDROOT
BRANCH   1   2
ATOM      2  CB  LYS A 131      28.345  25.722  17.026  1.00 20.94     0.034 C 
BRANCH   2   3
ATOM      3  CG  LYS A 131      27.601  24.402  16.889  1.00 22.96     0.005 C 
BRANCH   3   4
ATOM      4  CD  LYS A 131      26.134  24.546  17.185  1.00 24.33     0.041 C 
BRANCH   4   5
ATOM      5  CE  LYS A 131      25.559  23.189  17.579  1.00 26.91     0.338 C 
ATOM      6  NZ  LYS A 131      24.160  23.062  17.108  1.00 27.40     0.618 N 
ENDBRANCH   4   5
ENDBRANCH   3   4
ENDBRANCH   2   3
ENDBRANCH   1   2
END_RES LYS A 131
BEGIN_RES LYS A 135
REMARK  4 active torsions:
REMARK  status: ('A' for Active; 'I' for Inactive)
REMARK    5  A    between atoms: CA   and  CB  
REMARK    6  A    between atoms: CB   and  CG  
REMARK    7  A    between atoms: CG   and  CD  
REMARK    8  A    between atoms: CD   and  CE  
ROOT
ATOM      7  CA  LYS A 135      33.193  34.663   9.290  1.00 25.02     0.186 C 
ENDROOT
BRANCH   7   8
ATOM      8  CB  LYS A 135      32.060  35.360  10.034  1.00 26.63     0.034 C 
BRANCH   8   9
ATOM      9  CG  LYS A 135      30.792  35.478   9.228  1.00 29.45     0.005 C 
BRANCH   9  10
ATOM     10  CD  LYS A 135      30.100  34.128   9.117  1.00 32.00     0.041 C 
BRANCH  10  11
ATOM     11  CE  LYS A 135      28.643  34.307   8.735  1.00 34.25     0.338 C 
ATOM     12  NZ  LYS A 135      27.746  33.604   9.695  1.00 35.99     0.618 N 
ENDBRANCH  10  11
ENDBRANCH   9  10
ENDBRANCH   8   9
ENDBRANCH   7   8
END_RES LYS A 135
