REMARK VINA RESULT:    -5.624      0.963      2.558
REMARK INTER + INTRA:         -26.015
REMARK INTER:                 -13.829
REMARK INTRA:                 -12.186
REMARK UNBOUND:               -11.349
REMARK SMILES CC(=O)N[C@@H]1[C@@H](O)C[C@](OC[C@H]2O[C@@H](O[C@H]3[C@H](O)[C@@H](O)[C@H](OCCN=[N+]=[N-])O[C@@H]3CO)[C@H](O)[C@@H](O)[C@H]2O)(C(=O)O)O[C@H]1C(O)[C@H](O)CNC(=O)OCc1cn(-c2ccc(-c3c4ccc(=O)cc-4oc4cc(O)ccc34)c(C(=O)[O-])c2)nn1
REMARK SMILES IDX 9 1 8 2 6 3 5 4 42 5 41 6 10 7 11 8 12 9 14 10 13 11 32 12
REMARK SMILES IDX 34 13 36 14 15 15 16 16 29 17 28 18 21 19 17 20 19 21 30 22
REMARK SMILES IDX 31 23 22 25 23 26 24 27 25 28 26 29 27 30 18 31 20 33 33 35
REMARK SMILES IDX 35 37 37 39 38 41 39 42 40 43 7 45 43 47 44 48 45 50 46 51
REMARK SMILES IDX 47 53 48 54 49 55 50 57 51 58 52 59 53 60 54 61 82 62 55 63
REMARK SMILES IDX 81 64 56 65 80 66 57 67 76 68 58 69 59 70 77 71 78 72 79 73
REMARK SMILES IDX 60 74 75 75 61 76 74 77 69 78 67 79 62 80 73 81 70 82 68 83
REMARK SMILES IDX 66 84 63 85 71 86 64 87 65 88 72 89 4 91 2 92 1 94 3 95
REMARK H PARENT 31 24 18 32 20 34 33 36 35 38 37 40 40 44 7 46 44 49 46 52
REMARK H PARENT 48 56 72 90 4 93
REMARK Flexibility Score: inf
ROOT
ATOM      1  C   UNL     1      27.741  39.272   5.700  1.00  0.00     0.272 C 
ATOM      2  C   UNL     1      28.092  38.084   4.839  1.00  0.00     0.113 C 
ATOM      3  C   UNL     1      28.359  36.835   5.631  1.00  0.00     0.145 C 
ATOM      4  C   UNL     1      28.582  37.235   7.067  1.00  0.00     0.142 C 
ATOM      5  C   UNL     1      29.481  38.443   7.043  1.00  0.00     0.178 C 
ATOM      6  O   UNL     1      28.767  39.543   6.639  1.00  0.00    -0.332 OA
ENDROOT
BRANCH   1   7
ATOM      7  O   UNL     1      26.540  39.210   6.349  1.00  0.00    -0.338 OA
BRANCH   7   8
ATOM      8  C   UNL     1      25.997  40.408   6.654  1.00  0.00     0.199 C 
BRANCH   8   9
ATOM      9  C   UNL     1      24.941  40.288   7.763  1.00  0.00     0.179 C 
ATOM     10  C   UNL     1      23.001  39.166   8.304  1.00  0.00     0.282 C 
ATOM     11  O   UNL     1      23.798  39.716   7.339  1.00  0.00    -0.341 OA
ATOM     12  C   UNL     1      23.107  39.782   9.643  1.00  0.00     0.202 C 
ATOM     13  C   UNL     1      24.534  39.909  10.122  1.00  0.00     0.179 C 
ATOM     14  C   UNL     1      25.496  39.640   8.976  1.00  0.00     0.177 C 
BRANCH  10  15
ATOM     15  O   UNL     1      23.176  37.785   8.230  1.00  0.00    -0.341 OA
BRANCH  15  16
ATOM     16  C   UNL     1      22.150  37.073   8.760  1.00  0.00     0.184 C 
ATOM     17  C   UNL     1      22.535  35.668   9.106  1.00  0.00     0.178 C 
ATOM     18  O   UNL     1      21.619  35.125  10.017  1.00  0.00    -0.341 OA
ATOM     19  C   UNL     1      20.312  35.441   9.666  1.00  0.00     0.281 C 
ATOM     20  C   UNL     1      20.964  36.917   7.790  1.00  0.00     0.180 C 
ATOM     21  C   UNL     1      20.157  35.708   8.212  1.00  0.00     0.202 C 
BRANCH  17  22
ATOM     22  C   UNL     1      23.897  35.638   9.730  1.00  0.00     0.191 C 
BRANCH  22  23
ATOM     23  O   UNL     1      23.926  36.551  10.787  1.00  0.00    -0.394 OA
ATOM     24  H   UNL     1      24.523  37.282  10.516  1.00  0.00     0.210 HD
ENDBRANCH  22  23
ENDBRANCH  17  22
BRANCH  19  25
ATOM     25  O   UNL     1      19.822  36.474  10.436  1.00  0.00    -0.350 OA
BRANCH  25  26
ATOM     26  C   UNL     1      20.119  36.369  11.788  1.00  0.00     0.169 C 
BRANCH  26  27
ATOM     27  C   UNL     1      20.330  37.786  12.292  1.00  0.00     0.119 C 
BRANCH  27  28
ATOM     28  N   UNL     1      20.106  38.761  11.259  1.00  0.00    -0.092 NA
ATOM     29  N   UNL     1      19.980  39.950  11.582  1.00  0.00     0.001 N 
ATOM     30  N   UNL     1      20.080  41.176  11.646  1.00  0.00    -0.003 NA
ENDBRANCH  27  28
ENDBRANCH  26  27
ENDBRANCH  25  26
ENDBRANCH  19  25
BRANCH  20  31
ATOM     31  O   UNL     1      20.163  38.040   7.970  1.00  0.00    -0.387 OA
ATOM     32  H   UNL     1      20.481  38.837   7.492  1.00  0.00     0.211 HD
ENDBRANCH  20  31
BRANCH  21  33
ATOM     33  O   UNL     1      20.410  34.582   7.427  1.00  0.00    -0.385 OA
ATOM     34  H   UNL     1      21.378  34.359   7.593  1.00  0.00     0.211 HD
ENDBRANCH  21  33
ENDBRANCH  15  16
ENDBRANCH  10  15
BRANCH  12  35
ATOM     35  O   UNL     1      22.494  41.061   9.651  1.00  0.00    -0.385 OA
ATOM     36  H   UNL     1      22.535  41.422  10.587  1.00  0.00     0.211 HD
ENDBRANCH  12  35
BRANCH  13  37
ATOM     37  O   UNL     1      24.791  39.127  11.236  1.00  0.00    -0.387 OA
ATOM     38  H   UNL     1      24.589  38.191  11.001  1.00  0.00     0.211 HD
ENDBRANCH  13  37
BRANCH  14  39
ATOM     39  O   UNL     1      25.660  38.264   8.878  1.00  0.00    -0.387 OA
ATOM     40  H   UNL     1      24.747  37.898   8.690  1.00  0.00     0.211 HD
ENDBRANCH  14  39
ENDBRANCH   8   9
ENDBRANCH   7   8
ENDBRANCH   1   7
BRANCH   1  41
ATOM     41  C   UNL     1      27.834  40.462   4.763  1.00  0.00     0.364 C 
ATOM     42  O   UNL     1      28.548  41.457   4.983  1.00  0.00    -0.246 OA
BRANCH  41  43
ATOM     43  O   UNL     1      27.093  40.474   3.585  1.00  0.00    -0.477 OA
ATOM     44  H   UNL     1      27.330  39.866   2.814  1.00  0.00     0.296 HD
ENDBRANCH  41  43
ENDBRANCH   1  41
BRANCH   3  45
ATOM     45  O   UNL     1      27.321  35.941   5.445  1.00  0.00    -0.391 OA
ATOM     46  H   UNL     1      27.210  35.434   6.286  1.00  0.00     0.211 HD
ENDBRANCH   3  45
BRANCH   5  47
ATOM     47  C   UNL     1      29.990  38.762   8.452  1.00  0.00     0.176 C 
BRANCH  47  48
ATOM     48  O   UNL     1      29.170  39.788   8.981  1.00  0.00    -0.388 OA
ATOM     49  H   UNL     1      28.264  39.489   9.159  1.00  0.00     0.211 HD
ENDBRANCH  47  48
BRANCH  47  50
ATOM     50  C   UNL     1      31.372  39.327   8.407  1.00  0.00     0.165 C 
BRANCH  50  51
ATOM     51  O   UNL     1      32.015  38.920   7.237  1.00  0.00    -0.388 OA
ATOM     52  H   UNL     1      31.776  39.551   6.510  1.00  0.00     0.211 HD
ENDBRANCH  50  51
BRANCH  50  53
ATOM     53  C   UNL     1      32.217  39.065   9.604  1.00  0.00     0.154 C 
BRANCH  53  54
ATOM     54  N   UNL     1      31.426  38.764  10.775  1.00  0.00    -0.319 N 
ATOM     55  C   UNL     1      31.189  39.671  11.835  1.00  0.00     0.407 C 
ATOM     56  H   UNL     1      30.966  37.810  10.900  1.00  0.00     0.167 HD
ATOM     57  O   UNL     1      31.676  40.817  11.794  1.00  0.00    -0.225 OA
BRANCH  55  58
ATOM     58  O   UNL     1      30.425  39.344  12.948  1.00  0.00    -0.443 OA
BRANCH  58  59
ATOM     59  C   UNL     1      29.071  39.785  13.101  1.00  0.00     0.294 C 
BRANCH  59  60
ATOM     60  C   UNL     1      28.221  38.668  12.617  1.00  0.00     0.121 A 
ATOM     61  C   UNL     1      27.679  37.660  13.364  1.00  0.00     0.144 A 
ATOM     62  N   UNL     1      27.820  38.435  11.334  1.00  0.00    -0.131 NA
ATOM     63  N   UNL     1      26.971  36.842  12.557  1.00  0.00    -0.220 N 
ATOM     64  N   UNL     1      27.079  37.343  11.329  1.00  0.00    -0.062 NA
BRANCH  63  65
ATOM     65  C   UNL     1      26.260  35.684  12.967  1.00  0.00     0.067 A 
ATOM     66  C   UNL     1      25.486  35.666  14.103  1.00  0.00     0.039 A 
ATOM     67  C   UNL     1      26.346  34.550  12.198  1.00  0.00     0.029 A 
ATOM     68  C   UNL     1      24.812  34.520  14.454  1.00  0.00     0.007 A 
ATOM     69  C   UNL     1      25.669  33.402  12.553  1.00  0.00     0.012 A 
ATOM     70  C   UNL     1      24.889  33.361  13.685  1.00  0.00    -0.008 A 
BRANCH  68  71
ATOM     71  C   UNL     1      23.978  34.465  15.657  1.00  0.00     0.072 C 
ATOM     72  O   UNL     1      22.757  34.752  15.634  1.00  0.00    -0.545 OA
ATOM     73  O   UNL     1      24.545  34.089  16.850  1.00  0.00    -0.545 OA
ENDBRANCH  68  71
BRANCH  70  74
ATOM     74  C   UNL     1      24.170  32.158  14.065  1.00  0.00     0.004 A 
ATOM     75  C   UNL     1      22.906  31.956  13.569  1.00  0.00     0.026 A 
ATOM     76  C   UNL     1      24.710  31.219  14.906  1.00  0.00     0.026 A 
ATOM     77  C   UNL     1      22.285  32.843  12.722  1.00  0.00     0.016 A 
ATOM     78  C   UNL     1      22.229  30.801  13.946  1.00  0.00     0.139 A 
ATOM     79  C   UNL     1      23.950  30.005  15.276  1.00  0.00     0.139 A 
ATOM     80  C   UNL     1      25.966  31.352  15.439  1.00  0.00     0.016 A 
ATOM     81  C   UNL     1      21.011  32.629  12.228  1.00  0.00     0.047 A 
ATOM     82  C   UNL     1      20.965  30.595  13.451  1.00  0.00     0.093 A 
ATOM     83  O   UNL     1      22.756  29.902  14.754  1.00  0.00    -0.456 OA
ATOM     84  C   UNL     1      24.495  29.068  16.117  1.00  0.00     0.099 A 
ATOM     85  C   UNL     1      26.502  30.399  16.287  1.00  0.00     0.053 A 
ATOM     86  C   UNL     1      20.334  31.487  12.596  1.00  0.00     0.119 A 
ATOM     87  C   UNL     1      25.761  29.277  16.611  1.00  0.00     0.182 A 
ATOM     88  O   UNL     1      26.305  28.445  17.386  1.00  0.00    -0.290 OA
BRANCH  86  89
ATOM     89  O   UNL     1      19.057  31.280  12.096  1.00  0.00    -0.508 OA
ATOM     90  H   UNL     1      18.586  30.428  12.390  1.00  0.00     0.293 HD
ENDBRANCH  86  89
ENDBRANCH  70  74
ENDBRANCH  63  65
ENDBRANCH  59  60
ENDBRANCH  58  59
ENDBRANCH  55  58
ENDBRANCH  53  54
ENDBRANCH  50  53
ENDBRANCH  47  50
ENDBRANCH   5  47
BRANCH   4  91
ATOM     91  N   UNL     1      29.132  36.161   7.865  1.00  0.00    -0.348 N 
ATOM     92  C   UNL     1      28.246  35.288   8.526  1.00  0.00     0.217 C 
ATOM     93  H   UNL     1      30.157  35.998   7.976  1.00  0.00     0.163 HD
ATOM     94  C   UNL     1      28.698  34.155   9.370  1.00  0.00     0.114 C 
ATOM     95  O   UNL     1      26.978  35.434   8.431  1.00  0.00    -0.275 OA
ENDBRANCH   4  91
TORSDOF 33
BEGIN_RES LYS A 131
REMARK  4 active torsions:
REMARK  status: ('A' for Active; 'I' for Inactive)
REMARK    1  A    between atoms: CA   and  CB  
REMARK    2  A    between atoms: CB   and  CG  
REMARK    3  A    between atoms: CG   and  CD  
REMARK    4  A    between atoms: CD   and  CE  
ROOT
ATOM      1  CA  LYS A 131      29.867  25.555  16.977  1.00 20.52     0.186 C 
ENDROOT
BRANCH   1   2
ATOM      2  CB  LYS A 131      28.345  25.722  17.026  1.00 20.94     0.034 C 
BRANCH   2   3
ATOM      3  CG  LYS A 131      27.599  24.436  16.707  1.00 22.96     0.005 C 
BRANCH   3   4
ATOM      4  CD  LYS A 131      26.984  23.818  17.932  1.00 24.33     0.041 C 
BRANCH   4   5
ATOM      5  CE  LYS A 131      25.576  23.333  17.605  1.00 26.91     0.338 C 
ATOM      6  NZ  LYS A 131      24.811  24.392  16.907  1.00 27.40     0.618 N 
ENDBRANCH   4   5
ENDBRANCH   3   4
ENDBRANCH   2   3
ENDBRANCH   1   2
END_RES LYS A 131
BEGIN_RES LYS A 135
REMARK  4 active torsions:
REMARK  status: ('A' for Active; 'I' for Inactive)
REMARK    5  A    between atoms: CA   and  CB  
REMARK    6  A    between atoms: CB   and  CG  
REMARK    7  A    between atoms: CG   and  CD  
REMARK    8  A    between atoms: CD   and  CE  
ROOT
ATOM      7  CA  LYS A 135      33.193  34.663   9.290  1.00 25.02     0.186 C 
ENDROOT
BRANCH   7   8
ATOM      8  CB  LYS A 135      32.060  35.360  10.034  1.00 26.63     0.034 C 
BRANCH   8   9
ATOM      9  CG  LYS A 135      31.995  35.009  11.498  1.00 29.45     0.005 C 
BRANCH   9  10
ATOM     10  CD  LYS A 135      30.747  35.600  12.137  1.00 32.00     0.041 C 
BRANCH  10  11
ATOM     11  CE  LYS A 135      30.039  34.560  12.984  1.00 34.25     0.338 C 
ATOM     12  NZ  LYS A 135      30.849  34.201  14.181  1.00 35.99     0.618 N 
ENDBRANCH  10  11
ENDBRANCH   9  10
ENDBRANCH   8   9
ENDBRANCH   7   8
END_RES LYS A 135
