REMARK VINA RESULT:    -5.046      2.920      5.939
REMARK INTER + INTRA:         -22.128
REMARK INTER:                  -9.576
REMARK INTRA:                 -12.552
REMARK UNBOUND:                -9.116
REMARK SMILES CC(=O)N[C@@H]1[C@@H](O)C[C@](OC[C@H]2O[C@@H](O[C@H]3[C@H](O)[C@@H](O)[C@H](OCCN=[N+]=[N-])O[C@@H]3CO)[C@H](O)[C@@H](O)[C@H]2O)(C(=O)O)O[C@H]1C(O)[C@H](O)CNC(=O)OCc1cn(CCC2OCCO2)nn1
REMARK SMILES IDX 9 1 8 2 6 3 5 4 42 5 41 6 10 7 11 8 12 9 14 10 13 11 32 12
REMARK SMILES IDX 34 13 36 14 15 15 16 16 29 17 28 18 21 19 17 20 19 21 30 22
REMARK SMILES IDX 31 23 22 25 23 26 24 27 25 28 26 29 27 30 18 31 20 33 33 35
REMARK SMILES IDX 35 37 37 39 38 41 39 42 40 43 7 45 43 47 44 48 45 50 46 51
REMARK SMILES IDX 47 53 48 54 49 55 50 57 51 58 52 59 53 60 54 61 64 62 55 63
REMARK SMILES IDX 63 64 56 65 57 66 58 67 59 68 62 69 60 70 61 71 4 72 2 73
REMARK SMILES IDX 1 75 3 76
REMARK H PARENT 31 24 18 32 20 34 33 36 35 38 37 40 40 44 7 46 44 49 46 52
REMARK H PARENT 48 56 4 74
REMARK Flexibility Score: inf
ROOT
ATOM      1  C   UNL     1      29.287  31.929  17.655  1.00  0.00     0.272 C 
ATOM      2  C   UNL     1      29.153  30.622  16.791  1.00  0.00     0.113 C 
ATOM      3  C   UNL     1      27.934  29.878  17.138  1.00  0.00     0.145 C 
ATOM      4  C   UNL     1      26.719  30.757  16.920  1.00  0.00     0.142 C 
ATOM      5  C   UNL     1      27.055  32.208  16.955  1.00  0.00     0.178 C 
ATOM      6  O   UNL     1      28.089  32.594  17.733  1.00  0.00    -0.332 OA
ENDROOT
BRANCH   1   7
ATOM      7  O   UNL     1      30.177  32.641  16.962  1.00  0.00    -0.338 OA
BRANCH   7   8
ATOM      8  C   UNL     1      30.900  32.287  15.924  1.00  0.00     0.199 C 
BRANCH   8   9
ATOM      9  C   UNL     1      31.630  33.287  15.086  1.00  0.00     0.179 C 
ATOM     10  C   UNL     1      31.224  35.010  13.555  1.00  0.00     0.282 C 
ATOM     11  O   UNL     1      30.784  33.850  14.158  1.00  0.00    -0.341 OA
ATOM     12  C   UNL     1      32.657  35.341  13.753  1.00  0.00     0.202 C 
ATOM     13  C   UNL     1      33.122  35.209  15.178  1.00  0.00     0.179 C 
ATOM     14  C   UNL     1      32.092  34.474  15.968  1.00  0.00     0.177 C 
BRANCH  10  15
ATOM     15  O   UNL     1      30.322  36.030  13.857  1.00  0.00    -0.341 OA
BRANCH  15  16
ATOM     16  C   UNL     1      29.828  36.687  12.738  1.00  0.00     0.184 C 
ATOM     17  C   UNL     1      29.815  38.181  12.854  1.00  0.00     0.178 C 
ATOM     18  O   UNL     1      29.376  38.700  11.634  1.00  0.00    -0.341 OA
ATOM     19  C   UNL     1      28.046  38.416  11.362  1.00  0.00     0.281 C 
ATOM     20  C   UNL     1      28.337  36.292  12.541  1.00  0.00     0.180 C 
ATOM     21  C   UNL     1      27.956  36.901  11.197  1.00  0.00     0.202 C 
BRANCH  17  22
ATOM     22  C   UNL     1      31.238  38.685  13.023  1.00  0.00     0.191 C 
BRANCH  22  23
ATOM     23  O   UNL     1      31.534  38.507  14.398  1.00  0.00    -0.394 OA
ATOM     24  H   UNL     1      31.696  37.568  14.629  1.00  0.00     0.210 HD
ENDBRANCH  22  23
ENDBRANCH  17  22
BRANCH  19  25
ATOM     25  O   UNL     1      27.683  39.058  10.212  1.00  0.00    -0.350 OA
BRANCH  25  26
ATOM     26  C   UNL     1      28.530  38.918   9.149  1.00  0.00     0.169 C 
BRANCH  26  27
ATOM     27  C   UNL     1      27.898  39.159   7.796  1.00  0.00     0.119 C 
BRANCH  27  28
ATOM     28  N   UNL     1      27.438  37.905   7.228  1.00  0.00    -0.092 NA
ATOM     29  N   UNL     1      26.523  37.247   7.716  1.00  0.00     0.001 N 
ATOM     30  N   UNL     1      25.520  36.616   8.040  1.00  0.00    -0.003 NA
ENDBRANCH  27  28
ENDBRANCH  26  27
ENDBRANCH  25  26
ENDBRANCH  19  25
BRANCH  20  31
ATOM     31  O   UNL     1      28.252  34.922  12.484  1.00  0.00    -0.387 OA
ATOM     32  H   UNL     1      27.355  34.644  12.815  1.00  0.00     0.211 HD
ENDBRANCH  20  31
BRANCH  21  33
ATOM     33  O   UNL     1      26.676  36.484  10.904  1.00  0.00    -0.385 OA
ATOM     34  H   UNL     1      26.235  36.214  11.748  1.00  0.00     0.211 HD
ENDBRANCH  21  33
ENDBRANCH  15  16
ENDBRANCH  10  15
BRANCH  12  35
ATOM     35  O   UNL     1      33.444  34.538  12.890  1.00  0.00    -0.385 OA
ATOM     36  H   UNL     1      34.090  34.078  13.489  1.00  0.00     0.211 HD
ENDBRANCH  12  35
BRANCH  13  37
ATOM     37  O   UNL     1      33.454  36.444  15.735  1.00  0.00    -0.387 OA
ATOM     38  H   UNL     1      34.395  36.643  15.485  1.00  0.00     0.211 HD
ENDBRANCH  13  37
BRANCH  14  39
ATOM     39  O   UNL     1      30.990  35.230  16.306  1.00  0.00    -0.387 OA
ATOM     40  H   UNL     1      30.180  35.023  15.775  1.00  0.00     0.211 HD
ENDBRANCH  14  39
ENDBRANCH   8   9
ENDBRANCH   7   8
ENDBRANCH   1   7
BRANCH   1  41
ATOM     41  C   UNL     1      29.601  31.410  18.986  1.00  0.00     0.364 C 
ATOM     42  O   UNL     1      30.692  30.724  19.156  1.00  0.00    -0.246 OA
BRANCH  41  43
ATOM     43  O   UNL     1      28.882  31.549  20.151  1.00  0.00    -0.477 OA
ATOM     44  H   UNL     1      28.113  30.923  20.346  1.00  0.00     0.296 HD
ENDBRANCH  41  43
ENDBRANCH   1  41
BRANCH   3  45
ATOM     45  O   UNL     1      27.882  28.761  16.254  1.00  0.00    -0.391 OA
ATOM     46  H   UNL     1      27.176  28.149  16.628  1.00  0.00     0.211 HD
ENDBRANCH   3  45
BRANCH   5  47
ATOM     47  C   UNL     1      27.064  32.770  15.565  1.00  0.00     0.176 C 
BRANCH  47  48
ATOM     48  O   UNL     1      25.881  32.505  14.859  1.00  0.00    -0.388 OA
ATOM     49  H   UNL     1      25.685  33.238  14.205  1.00  0.00     0.211 HD
ENDBRANCH  47  48
BRANCH  47  50
ATOM     50  C   UNL     1      27.089  34.324  15.628  1.00  0.00     0.165 C 
BRANCH  50  51
ATOM     51  O   UNL     1      28.400  34.735  15.663  1.00  0.00    -0.388 OA
ATOM     52  H   UNL     1      28.534  35.609  16.073  1.00  0.00     0.211 HD
ENDBRANCH  50  51
BRANCH  50  53
ATOM     53  C   UNL     1      26.205  34.753  16.727  1.00  0.00     0.154 C 
BRANCH  53  54
ATOM     54  N   UNL     1      26.869  35.616  17.653  1.00  0.00    -0.319 N 
ATOM     55  C   UNL     1      26.685  36.995  17.725  1.00  0.00     0.407 C 
ATOM     56  H   UNL     1      27.539  35.161  18.322  1.00  0.00     0.167 HD
ATOM     57  O   UNL     1      25.913  37.585  16.952  1.00  0.00    -0.225 OA
BRANCH  55  58
ATOM     58  O   UNL     1      27.345  37.811  18.655  1.00  0.00    -0.443 OA
BRANCH  58  59
ATOM     59  C   UNL     1      28.278  38.790  18.235  1.00  0.00     0.294 C 
BRANCH  59  60
ATOM     60  C   UNL     1      29.662  38.267  18.160  1.00  0.00     0.120 A 
ATOM     61  C   UNL     1      30.296  37.534  19.169  1.00  0.00     0.138 A 
ATOM     62  N   UNL     1      30.576  38.364  17.182  1.00  0.00    -0.132 NA
ATOM     63  N   UNL     1      31.556  37.220  18.763  1.00  0.00    -0.252 N 
ATOM     64  N   UNL     1      31.695  37.734  17.563  1.00  0.00    -0.067 NA
BRANCH  63  65
ATOM     65  C   UNL     1      32.478  36.450  19.587  1.00  0.00     0.151 C 
BRANCH  65  66
ATOM     66  C   UNL     1      32.044  34.992  19.650  1.00  0.00     0.086 C 
BRANCH  66  67
ATOM     67  C   UNL     1      31.953  34.507  21.069  1.00  0.00     0.251 C 
ATOM     68  O   UNL     1      31.449  35.529  21.874  1.00  0.00    -0.350 OA
ATOM     69  O   UNL     1      31.088  33.443  21.234  1.00  0.00    -0.350 OA
ATOM     70  C   UNL     1      31.009  34.885  23.025  1.00  0.00     0.192 C 
ATOM     71  C   UNL     1      30.986  33.415  22.645  1.00  0.00     0.192 C 
ENDBRANCH  66  67
ENDBRANCH  65  66
ENDBRANCH  63  65
ENDBRANCH  59  60
ENDBRANCH  58  59
ENDBRANCH  55  58
ENDBRANCH  53  54
ENDBRANCH  50  53
ENDBRANCH  47  50
ENDBRANCH   5  47
BRANCH   4  72
ATOM     72  N   UNL     1      25.649  30.395  17.848  1.00  0.00    -0.348 N 
ATOM     73  C   UNL     1      24.305  30.300  17.477  1.00  0.00     0.217 C 
ATOM     74  H   UNL     1      25.943  30.200  18.849  1.00  0.00     0.163 HD
ATOM     75  C   UNL     1      23.265  29.922  18.489  1.00  0.00     0.114 C 
ATOM     76  O   UNL     1      24.011  30.542  16.274  1.00  0.00    -0.275 OA
ENDBRANCH   4  72
TORSDOF 32
BEGIN_RES LYS A 131
REMARK  4 active torsions:
REMARK  status: ('A' for Active; 'I' for Inactive)
REMARK    1  A    between atoms: CA   and  CB  
REMARK    2  A    between atoms: CB   and  CG  
REMARK    3  A    between atoms: CG   and  CD  
REMARK    4  A    between atoms: CD   and  CE  
ROOT
ATOM      1  CA  LYS A 131      29.867  25.555  16.977  1.00 20.52     0.186 C 
ENDROOT
BRANCH   1   2
ATOM      2  CB  LYS A 131      28.345  25.722  17.026  1.00 20.94     0.034 C 
BRANCH   2   3
ATOM      3  CG  LYS A 131      27.601  24.401  16.898  1.00 22.96     0.005 C 
BRANCH   3   4
ATOM      4  CD  LYS A 131      26.171  24.511  17.348  1.00 24.33     0.041 C 
BRANCH   4   5
ATOM      5  CE  LYS A 131      26.004  25.755  18.215  1.00 26.91     0.338 C 
ATOM      6  NZ  LYS A 131      24.880  26.585  17.720  1.00 27.40     0.618 N 
ENDBRANCH   4   5
ENDBRANCH   3   4
ENDBRANCH   2   3
ENDBRANCH   1   2
END_RES LYS A 131
BEGIN_RES LYS A 135
REMARK  4 active torsions:
REMARK  status: ('A' for Active; 'I' for Inactive)
REMARK    5  A    between atoms: CA   and  CB  
REMARK    6  A    between atoms: CB   and  CG  
REMARK    7  A    between atoms: CG   and  CD  
REMARK    8  A    between atoms: CD   and  CE  
ROOT
ATOM      7  CA  LYS A 135      33.193  34.663   9.290  1.00 25.02     0.186 C 
ENDROOT
BRANCH   7   8
ATOM      8  CB  LYS A 135      32.060  35.360  10.034  1.00 26.63     0.034 C 
BRANCH   8   9
ATOM      9  CG  LYS A 135      30.811  35.529   9.208  1.00 29.45     0.005 C 
BRANCH   9  10
ATOM     10  CD  LYS A 135      30.062  34.210   9.092  1.00 32.00     0.041 C 
BRANCH  10  11
ATOM     11  CE  LYS A 135      28.646  34.443   8.602  1.00 34.25     0.338 C 
ATOM     12  NZ  LYS A 135      27.666  33.656   9.401  1.00 35.99     0.618 N 
ENDBRANCH  10  11
ENDBRANCH   9  10
ENDBRANCH   8   9
ENDBRANCH   7   8
END_RES LYS A 135
