REMARK VINA RESULT:    -5.296      4.573      9.774
REMARK INTER + INTRA:         -23.298
REMARK INTER:                 -13.039
REMARK INTRA:                 -10.259
REMARK UNBOUND:                -9.487
REMARK SMILES CC(=O)N[C@@H]1[C@@H](O)C[C@](OC[C@H]2O[C@@H](O[C@H]3[C@H](O)[C@@H](O)[C@H](OCCN=[N+]=[N-])O[C@@H]3CO)[C@H](O)[C@@H](O)[C@H]2O)(C(=O)O)O[C@H]1C(O)[C@H](O)CNC(=O)OCc1cn(Cc2ccc(C(=O)O)cc2)nn1
REMARK SMILES IDX 43 1 42 2 9 3 8 4 41 5 6 6 5 7 10 8 11 9 12 10 14 11 13 12
REMARK SMILES IDX 32 13 34 14 36 15 15 16 16 17 29 18 28 19 21 20 17 21 19 22
REMARK SMILES IDX 30 23 31 24 22 26 23 27 24 28 25 29 26 30 27 31 18 32 20 34
REMARK SMILES IDX 33 36 35 38 37 40 38 42 39 43 40 44 7 46 4 48 2 49 1 51 3 52
REMARK SMILES IDX 44 53 45 55 46 56 47 58 48 59 49 60 50 62 51 63 52 64 53 65
REMARK SMILES IDX 54 66 67 67 55 68 66 69 56 70 57 71 58 72 65 73 59 74 64 75
REMARK SMILES IDX 60 76 61 77 62 78 63 79
REMARK H PARENT 31 25 18 33 20 35 33 37 35 39 37 41 40 45 7 47 4 50 44 54
REMARK H PARENT 46 57 48 61 63 80
REMARK Flexibility Score: inf
ROOT
ATOM      1  C   UNL     1      22.192  35.482  11.297  1.00  0.00     0.176 C 
ENDROOT
BRANCH   1   2
ATOM      2  C   UNL     1      21.928  36.538  10.202  1.00  0.00     0.178 C 
ATOM      3  C   UNL     1      19.920  37.228   9.156  1.00  0.00     0.272 C 
ATOM      4  C   UNL     1      20.517  36.861   7.857  1.00  0.00     0.113 C 
ATOM      5  O   UNL     1      20.611  36.788  10.256  1.00  0.00    -0.332 OA
ATOM      6  C   UNL     1      21.454  35.674   7.940  1.00  0.00     0.145 C 
ATOM      7  C   UNL     1      22.508  36.026   8.947  1.00  0.00     0.142 C 
BRANCH   3   8
ATOM      8  O   UNL     1      18.656  36.720   9.292  1.00  0.00    -0.338 OA
BRANCH   8   9
ATOM      9  C   UNL     1      17.779  36.800   8.270  1.00  0.00     0.199 C 
BRANCH   9  10
ATOM     10  C   UNL     1      17.340  35.381   7.833  1.00  0.00     0.179 C 
ATOM     11  C   UNL     1      17.559  33.149   8.465  1.00  0.00     0.282 C 
ATOM     12  O   UNL     1      17.995  34.466   8.603  1.00  0.00    -0.341 OA
ATOM     13  C   UNL     1      16.611  32.935   7.340  1.00  0.00     0.202 C 
ATOM     14  C   UNL     1      15.439  33.875   7.521  1.00  0.00     0.179 C 
ATOM     15  C   UNL     1      15.841  35.260   7.923  1.00  0.00     0.177 C 
BRANCH  11  16
ATOM     16  O   UNL     1      16.992  32.758   9.678  1.00  0.00    -0.341 OA
BRANCH  16  17
ATOM     17  C   UNL     1      17.938  32.384  10.588  1.00  0.00     0.184 C 
ATOM     18  C   UNL     1      17.678  31.045  11.174  1.00  0.00     0.178 C 
ATOM     19  O   UNL     1      18.793  30.583  11.888  1.00  0.00    -0.341 OA
ATOM     20  C   UNL     1      19.357  31.608  12.652  1.00  0.00     0.281 C 
ATOM     21  C   UNL     1      17.906  33.443  11.707  1.00  0.00     0.180 C 
ATOM     22  C   UNL     1      18.416  32.737  12.946  1.00  0.00     0.202 C 
BRANCH  18  23
ATOM     23  C   UNL     1      17.374  30.041  10.098  1.00  0.00     0.191 C 
BRANCH  23  24
ATOM     24  O   UNL     1      15.985  30.147   9.856  1.00  0.00    -0.394 OA
ATOM     25  H   UNL     1      15.488  30.070  10.692  1.00  0.00     0.210 HD
ENDBRANCH  23  24
ENDBRANCH  18  23
BRANCH  20  26
ATOM     26  O   UNL     1      20.515  32.035  12.045  1.00  0.00    -0.350 OA
BRANCH  26  27
ATOM     27  C   UNL     1      21.646  31.962  12.825  1.00  0.00     0.169 C 
BRANCH  27  28
ATOM     28  C   UNL     1      22.447  30.711  12.684  1.00  0.00     0.119 C 
BRANCH  28  29
ATOM     29  N   UNL     1      23.731  30.958  13.360  1.00  0.00    -0.092 NA
ATOM     30  N   UNL     1      24.341  32.015  13.251  1.00  0.00     0.001 N 
ATOM     31  N   UNL     1      24.815  33.087  12.890  1.00  0.00    -0.003 NA
ENDBRANCH  28  29
ENDBRANCH  27  28
ENDBRANCH  26  27
ENDBRANCH  20  26
BRANCH  21  32
ATOM     32  O   UNL     1      18.696  34.520  11.369  1.00  0.00    -0.387 OA
ATOM     33  H   UNL     1      19.307  34.785  12.130  1.00  0.00     0.211 HD
ENDBRANCH  21  32
BRANCH  22  34
ATOM     34  O   UNL     1      17.352  32.339  13.723  1.00  0.00    -0.385 OA
ATOM     35  H   UNL     1      17.615  31.746  14.449  1.00  0.00     0.211 HD
ENDBRANCH  22  34
ENDBRANCH  16  17
ENDBRANCH  11  16
BRANCH  13  36
ATOM     36  O   UNL     1      17.219  33.157   6.095  1.00  0.00    -0.385 OA
ATOM     37  H   UNL     1      18.159  32.843   6.189  1.00  0.00     0.211 HD
ENDBRANCH  13  36
BRANCH  14  38
ATOM     38  O   UNL     1      14.523  33.373   8.447  1.00  0.00    -0.387 OA
ATOM     39  H   UNL     1      14.778  32.429   8.649  1.00  0.00     0.211 HD
ENDBRANCH  14  38
BRANCH  15  40
ATOM     40  O   UNL     1      15.372  35.599   9.200  1.00  0.00    -0.387 OA
ATOM     41  H   UNL     1      14.536  36.119   9.072  1.00  0.00     0.211 HD
ENDBRANCH  15  40
ENDBRANCH   9  10
ENDBRANCH   8   9
ENDBRANCH   3   8
BRANCH   3  42
ATOM     42  C   UNL     1      19.907  38.733   9.263  1.00  0.00     0.364 C 
ATOM     43  O   UNL     1      19.666  39.297  10.360  1.00  0.00    -0.246 OA
BRANCH  42  44
ATOM     44  O   UNL     1      20.159  39.543   8.167  1.00  0.00    -0.477 OA
ATOM     45  H   UNL     1      19.660  40.445   8.127  1.00  0.00     0.296 HD
ENDBRANCH  42  44
ENDBRANCH   3  42
BRANCH   6  46
ATOM     46  O   UNL     1      20.699  34.570   8.273  1.00  0.00    -0.391 OA
ATOM     47  H   UNL     1      20.124  34.779   9.055  1.00  0.00     0.211 HD
ENDBRANCH   6  46
BRANCH   7  48
ATOM     48  N   UNL     1      23.376  37.041   8.364  1.00  0.00    -0.348 N 
ATOM     49  C   UNL     1      24.802  37.001   8.550  1.00  0.00     0.217 C 
ATOM     50  H   UNL     1      23.038  37.843   7.790  1.00  0.00     0.163 HD
ATOM     51  C   UNL     1      25.659  38.062   7.934  1.00  0.00     0.114 C 
ATOM     52  O   UNL     1      25.287  36.078   9.225  1.00  0.00    -0.275 OA
ENDBRANCH   7  48
ENDBRANCH   1   2
BRANCH   1  53
ATOM     53  O   UNL     1      23.035  34.490  10.915  1.00  0.00    -0.388 OA
ATOM     54  H   UNL     1      22.893  34.109  10.021  1.00  0.00     0.211 HD
ENDBRANCH   1  53
BRANCH   1  55
ATOM     55  C   UNL     1      22.574  36.134  12.604  1.00  0.00     0.165 C 
BRANCH  55  56
ATOM     56  O   UNL     1      21.478  36.719  13.155  1.00  0.00    -0.388 OA
ATOM     57  H   UNL     1      21.249  37.610  12.827  1.00  0.00     0.211 HD
ENDBRANCH  55  56
BRANCH  55  58
ATOM     58  C   UNL     1      23.799  36.945  12.432  1.00  0.00     0.154 C 
BRANCH  58  59
ATOM     59  N   UNL     1      24.969  36.135  12.234  1.00  0.00    -0.319 N 
ATOM     60  C   UNL     1      26.228  36.398  12.818  1.00  0.00     0.407 C 
ATOM     61  H   UNL     1      24.913  35.281  11.613  1.00  0.00     0.167 HD
ATOM     62  O   UNL     1      26.418  37.370  13.565  1.00  0.00    -0.225 OA
BRANCH  60  63
ATOM     63  O   UNL     1      27.354  35.579  12.601  1.00  0.00    -0.443 OA
BRANCH  63  64
ATOM     64  C   UNL     1      28.549  36.147  12.096  1.00  0.00     0.294 C 
BRANCH  64  65
ATOM     65  C   UNL     1      29.699  35.950  12.996  1.00  0.00     0.120 A 
ATOM     66  C   UNL     1      30.388  34.808  13.298  1.00  0.00     0.138 A 
ATOM     67  N   UNL     1      30.264  36.937  13.717  1.00  0.00    -0.132 NA
ATOM     68  N   UNL     1      31.348  35.133  14.192  1.00  0.00    -0.248 N 
ATOM     69  N   UNL     1      31.251  36.428  14.429  1.00  0.00    -0.067 NA
BRANCH  68  70
ATOM     70  C   UNL     1      32.287  34.203  14.766  1.00  0.00     0.181 C 
BRANCH  70  71
ATOM     71  C   UNL     1      31.633  33.368  15.793  1.00  0.00    -0.026 A 
ATOM     72  C   UNL     1      31.147  32.122  15.460  1.00  0.00     0.006 A 
ATOM     73  C   UNL     1      31.487  33.840  17.095  1.00  0.00     0.006 A 
ATOM     74  C   UNL     1      30.529  31.400  16.465  1.00  0.00     0.016 A 
ATOM     75  C   UNL     1      30.870  33.116  18.090  1.00  0.00     0.016 A 
ATOM     76  C   UNL     1      30.387  31.873  17.754  1.00  0.00     0.059 A 
BRANCH  76  77
ATOM     77  C   UNL     1      29.721  31.065  18.764  1.00  0.00     0.335 C 
ATOM     78  O   UNL     1      29.657  31.460  19.937  1.00  0.00    -0.246 OA
BRANCH  77  79
ATOM     79  O   UNL     1      29.163  29.857  18.413  1.00  0.00    -0.478 OA
ATOM     80  H   UNL     1      28.760  29.691  17.492  1.00  0.00     0.297 HD
ENDBRANCH  77  79
ENDBRANCH  76  77
ENDBRANCH  70  71
ENDBRANCH  68  70
ENDBRANCH  64  65
ENDBRANCH  63  64
ENDBRANCH  60  63
ENDBRANCH  58  59
ENDBRANCH  55  58
ENDBRANCH   1  55
TORSDOF 33
BEGIN_RES LYS A 131
REMARK  4 active torsions:
REMARK  status: ('A' for Active; 'I' for Inactive)
REMARK    1  A    between atoms: CA   and  CB  
REMARK    2  A    between atoms: CB   and  CG  
REMARK    3  A    between atoms: CG   and  CD  
REMARK    4  A    between atoms: CD   and  CE  
ROOT
ATOM      1  CA  LYS A 131      29.867  25.555  16.977  1.00 20.52     0.186 C 
ENDROOT
BRANCH   1   2
ATOM      2  CB  LYS A 131      28.345  25.722  17.026  1.00 20.94     0.034 C 
BRANCH   2   3
ATOM      3  CG  LYS A 131      27.599  24.422  16.765  1.00 22.96     0.005 C 
BRANCH   3   4
ATOM      4  CD  LYS A 131      26.872  23.931  17.986  1.00 24.33     0.041 C 
BRANCH   4   5
ATOM      5  CE  LYS A 131      25.527  23.341  17.575  1.00 26.91     0.338 C 
ATOM      6  NZ  LYS A 131      24.707  24.358  16.875  1.00 27.40     0.618 N 
ENDBRANCH   4   5
ENDBRANCH   3   4
ENDBRANCH   2   3
ENDBRANCH   1   2
END_RES LYS A 131
BEGIN_RES LYS A 135
REMARK  4 active torsions:
REMARK  status: ('A' for Active; 'I' for Inactive)
REMARK    5  A    between atoms: CA   and  CB  
REMARK    6  A    between atoms: CB   and  CG  
REMARK    7  A    between atoms: CG   and  CD  
REMARK    8  A    between atoms: CD   and  CE  
ROOT
ATOM      7  CA  LYS A 135      33.193  34.663   9.290  1.00 25.02     0.186 C 
ENDROOT
BRANCH   7   8
ATOM      8  CB  LYS A 135      32.060  35.360  10.034  1.00 26.63     0.034 C 
BRANCH   8   9
ATOM      9  CG  LYS A 135      30.787  35.463   9.234  1.00 29.45     0.005 C 
BRANCH   9  10
ATOM     10  CD  LYS A 135      30.136  34.097   9.083  1.00 32.00     0.041 C 
BRANCH  10  11
ATOM     11  CE  LYS A 135      28.645  34.241   8.845  1.00 34.25     0.338 C 
ATOM     12  NZ  LYS A 135      28.367  35.232   7.769  1.00 35.99     0.618 N 
ENDBRANCH  10  11
ENDBRANCH   9  10
ENDBRANCH   8   9
ENDBRANCH   7   8
END_RES LYS A 135
