REMARK VINA RESULT:    -3.950      2.927      7.186
REMARK INTER + INTRA:         -22.266
REMARK INTER:                 -11.413
REMARK INTRA:                 -10.853
REMARK UNBOUND:               -12.543
REMARK SMILES CC(=O)N[C@@H]1[C@@H](O)C[C@](OC[C@H]2O[C@@H](O[C@H]3[C@H](O)[C@@H](O)[C@H](OCCN=[N+]=[N-])O[C@@H]3CO)[C@H](O)[C@@H](O)[C@H]2O)(C(=O)O)O[C@H]1C(O)[C@H](O)CNC(=O)OCc1cn(-c2ccncc2)nn1
REMARK SMILES IDX 9 1 8 2 6 3 5 4 42 5 41 6 10 7 11 8 12 9 14 10 13 11 32 12
REMARK SMILES IDX 34 13 36 14 15 15 16 16 29 17 28 18 21 19 17 20 19 21 30 22
REMARK SMILES IDX 31 23 22 25 23 26 24 27 25 28 26 29 27 30 18 31 20 33 33 35
REMARK SMILES IDX 35 37 37 39 38 41 39 42 40 43 7 45 43 47 44 48 45 50 46 51
REMARK SMILES IDX 47 53 48 54 49 55 50 57 51 58 52 59 53 60 54 61 63 62 55 63
REMARK SMILES IDX 62 64 56 65 57 66 61 67 58 68 60 69 59 70 4 71 2 72 1 74
REMARK SMILES IDX 3 75
REMARK H PARENT 31 24 18 32 20 34 33 36 35 38 37 40 40 44 7 46 44 49 46 52
REMARK H PARENT 48 56 4 73
REMARK Flexibility Score: inf
ROOT
ATOM      1  C   UNL     1      24.194  33.557  14.718  1.00  0.00     0.272 C 
ATOM      2  C   UNL     1      24.326  32.794  13.383  1.00  0.00     0.113 C 
ATOM      3  C   UNL     1      23.531  33.510  12.286  1.00  0.00     0.145 C 
ATOM      4  C   UNL     1      22.023  33.326  12.668  1.00  0.00     0.142 C 
ATOM      5  C   UNL     1      21.905  33.787  14.091  1.00  0.00     0.178 C 
ATOM      6  O   UNL     1      23.095  34.400  14.462  1.00  0.00    -0.332 OA
ENDROOT
BRANCH   1   7
ATOM      7  O   UNL     1      25.219  34.367  14.895  1.00  0.00    -0.338 OA
BRANCH   7   8
ATOM      8  C   UNL     1      25.590  35.567  14.810  1.00  0.00     0.199 C 
BRANCH   8   9
ATOM      9  C   UNL     1      27.010  35.931  14.496  1.00  0.00     0.179 C 
ATOM     10  C   UNL     1      29.048  34.779  14.293  1.00  0.00     0.282 C 
ATOM     11  O   UNL     1      27.701  34.679  14.550  1.00  0.00    -0.341 OA
ATOM     12  C   UNL     1      29.295  35.257  12.896  1.00  0.00     0.202 C 
ATOM     13  C   UNL     1      28.540  36.568  12.663  1.00  0.00     0.179 C 
ATOM     14  C   UNL     1      27.102  36.345  13.024  1.00  0.00     0.177 C 
BRANCH  10  15
ATOM     15  O   UNL     1      29.514  33.446  14.431  1.00  0.00    -0.341 OA
BRANCH  15  16
ATOM     16  C   UNL     1      29.549  33.018  15.715  1.00  0.00     0.184 C 
ATOM     17  C   UNL     1      30.899  32.701  16.219  1.00  0.00     0.178 C 
ATOM     18  O   UNL     1      30.847  32.376  17.591  1.00  0.00    -0.341 OA
ATOM     19  C   UNL     1      30.367  31.012  17.553  1.00  0.00     0.281 C 
ATOM     20  C   UNL     1      28.685  31.723  15.804  1.00  0.00     0.180 C 
ATOM     21  C   UNL     1      28.940  31.081  17.155  1.00  0.00     0.202 C 
BRANCH  17  22
ATOM     22  C   UNL     1      31.887  33.784  16.005  1.00  0.00     0.191 C 
BRANCH  22  23
ATOM     23  O   UNL     1      32.384  33.808  14.693  1.00  0.00    -0.394 OA
ATOM     24  H   UNL     1      31.853  34.504  14.203  1.00  0.00     0.210 HD
ENDBRANCH  22  23
ENDBRANCH  17  22
BRANCH  19  25
ATOM     25  O   UNL     1      30.518  30.558  18.834  1.00  0.00    -0.350 OA
BRANCH  25  26
ATOM     26  C   UNL     1      30.453  31.549  19.765  1.00  0.00     0.169 C 
BRANCH  26  27
ATOM     27  C   UNL     1      31.126  31.284  21.073  1.00  0.00     0.119 C 
BRANCH  27  28
ATOM     28  N   UNL     1      31.927  30.077  21.061  1.00  0.00    -0.092 NA
ATOM     29  N   UNL     1      32.995  29.953  21.645  1.00  0.00     0.001 N 
ATOM     30  N   UNL     1      34.165  30.013  22.035  1.00  0.00    -0.003 NA
ENDBRANCH  27  28
ENDBRANCH  26  27
ENDBRANCH  25  26
ENDBRANCH  19  25
BRANCH  20  31
ATOM     31  O   UNL     1      27.374  32.132  15.756  1.00  0.00    -0.387 OA
ATOM     32  H   UNL     1      26.986  32.017  14.831  1.00  0.00     0.211 HD
ENDBRANCH  20  31
BRANCH  21  33
ATOM     33  O   UNL     1      28.369  29.819  17.201  1.00  0.00    -0.385 OA
ATOM     34  H   UNL     1      27.434  29.877  16.873  1.00  0.00     0.211 HD
ENDBRANCH  21  33
ENDBRANCH  15  16
ENDBRANCH  10  15
BRANCH  12  35
ATOM     35  O   UNL     1      30.667  35.544  12.695  1.00  0.00    -0.385 OA
ATOM     36  H   UNL     1      30.891  36.233  13.365  1.00  0.00     0.211 HD
ENDBRANCH  12  35
BRANCH  13  37
ATOM     37  O   UNL     1      28.636  37.015  11.366  1.00  0.00    -0.387 OA
ATOM     38  H   UNL     1      27.722  37.223  10.993  1.00  0.00     0.211 HD
ENDBRANCH  13  37
BRANCH  14  39
ATOM     39  O   UNL     1      26.558  35.275  12.297  1.00  0.00    -0.387 OA
ATOM     40  H   UNL     1      25.559  35.273  12.409  1.00  0.00     0.211 HD
ENDBRANCH  14  39
ENDBRANCH   8   9
ENDBRANCH   7   8
ENDBRANCH   1   7
BRANCH   1  41
ATOM     41  C   UNL     1      23.935  32.632  15.826  1.00  0.00     0.364 C 
ATOM     42  O   UNL     1      23.802  33.039  17.026  1.00  0.00    -0.246 OA
BRANCH  41  43
ATOM     43  O   UNL     1      23.819  31.272  15.661  1.00  0.00    -0.477 OA
ATOM     44  H   UNL     1      23.016  30.776  15.340  1.00  0.00     0.296 HD
ENDBRANCH  41  43
ENDBRANCH   1  41
BRANCH   3  45
ATOM     45  O   UNL     1      23.796  34.851  12.324  1.00  0.00    -0.391 OA
ATOM     46  H   UNL     1      23.000  35.385  12.515  1.00  0.00     0.211 HD
ENDBRANCH   3  45
BRANCH   5  47
ATOM     47  C   UNL     1      20.888  34.920  14.282  1.00  0.00     0.176 C 
BRANCH  47  48
ATOM     48  O   UNL     1      20.028  34.700  13.118  1.00  0.00    -0.388 OA
ATOM     49  H   UNL     1      20.386  35.292  12.390  1.00  0.00     0.211 HD
ENDBRANCH  47  48
BRANCH  47  50
ATOM     50  C   UNL     1      21.386  36.296  14.189  1.00  0.00     0.165 C 
BRANCH  50  51
ATOM     51  O   UNL     1      21.659  36.972  15.354  1.00  0.00    -0.388 OA
ATOM     52  H   UNL     1      21.501  36.401  16.151  1.00  0.00     0.211 HD
ENDBRANCH  50  51
BRANCH  50  53
ATOM     53  C   UNL     1      20.889  37.095  13.048  1.00  0.00     0.154 C 
BRANCH  53  54
ATOM     54  N   UNL     1      21.716  37.096  11.870  1.00  0.00    -0.319 N 
ATOM     55  C   UNL     1      21.218  36.633  10.628  1.00  0.00     0.407 C 
ATOM     56  H   UNL     1      22.689  37.433  11.970  1.00  0.00     0.167 HD
ATOM     57  O   UNL     1      20.034  36.230  10.602  1.00  0.00    -0.225 OA
BRANCH  55  58
ATOM     58  O   UNL     1      21.945  36.602   9.472  1.00  0.00    -0.443 OA
BRANCH  58  59
ATOM     59  C   UNL     1      22.916  35.639   9.123  1.00  0.00     0.294 C 
BRANCH  59  60
ATOM     60  C   UNL     1      24.291  36.235   9.058  1.00  0.00     0.121 A 
ATOM     61  C   UNL     1      25.054  36.565   7.959  1.00  0.00     0.144 A 
ATOM     62  N   UNL     1      25.052  36.562  10.130  1.00  0.00    -0.131 NA
ATOM     63  N   UNL     1      26.226  37.070   8.380  1.00  0.00    -0.220 N 
ATOM     64  N   UNL     1      26.202  37.059   9.714  1.00  0.00    -0.062 NA
BRANCH  63  65
ATOM     65  C   UNL     1      27.277  37.523   7.537  1.00  0.00     0.069 A 
ATOM     66  C   UNL     1      28.317  38.324   7.957  1.00  0.00     0.048 A 
ATOM     67  C   UNL     1      27.260  37.131   6.217  1.00  0.00     0.048 A 
ATOM     68  C   UNL     1      29.324  38.738   7.101  1.00  0.00     0.113 A 
ATOM     69  C   UNL     1      28.271  37.549   5.368  1.00  0.00     0.113 A 
ATOM     70  N   UNL     1      29.265  38.328   5.812  1.00  0.00    -0.265 NA
ENDBRANCH  63  65
ENDBRANCH  59  60
ENDBRANCH  58  59
ENDBRANCH  55  58
ENDBRANCH  53  54
ENDBRANCH  50  53
ENDBRANCH  47  50
ENDBRANCH   5  47
BRANCH   4  71
ATOM     71  N   UNL     1      21.824  31.907  12.493  1.00  0.00    -0.348 N 
ATOM     72  C   UNL     1      20.568  31.281  12.343  1.00  0.00     0.217 C 
ATOM     73  H   UNL     1      22.655  31.287  12.477  1.00  0.00     0.163 HD
ATOM     74  C   UNL     1      20.490  29.823  12.173  1.00  0.00     0.114 C 
ATOM     75  O   UNL     1      19.524  31.962  12.354  1.00  0.00    -0.275 OA
ENDBRANCH   4  71
TORSDOF 30
BEGIN_RES LYS A 131
REMARK  4 active torsions:
REMARK  status: ('A' for Active; 'I' for Inactive)
REMARK    1  A    between atoms: CA   and  CB  
REMARK    2  A    between atoms: CB   and  CG  
REMARK    3  A    between atoms: CG   and  CD  
REMARK    4  A    between atoms: CD   and  CE  
ROOT
ATOM      1  CA  LYS A 131      29.867  25.555  16.977  1.00 20.52     0.186 C 
ENDROOT
BRANCH   1   2
ATOM      2  CB  LYS A 131      28.345  25.722  17.026  1.00 20.94     0.034 C 
BRANCH   2   3
ATOM      3  CG  LYS A 131      27.601  24.401  16.900  1.00 22.96     0.005 C 
BRANCH   3   4
ATOM      4  CD  LYS A 131      26.150  24.531  17.269  1.00 24.33     0.041 C 
BRANCH   4   5
ATOM      5  CE  LYS A 131      25.583  23.154  17.600  1.00 26.91     0.338 C 
ATOM      6  NZ  LYS A 131      24.519  23.263  18.626  1.00 27.40     0.618 N 
ENDBRANCH   4   5
ENDBRANCH   3   4
ENDBRANCH   2   3
ENDBRANCH   1   2
END_RES LYS A 131
BEGIN_RES LYS A 135
REMARK  4 active torsions:
REMARK  status: ('A' for Active; 'I' for Inactive)
REMARK    5  A    between atoms: CA   and  CB  
REMARK    6  A    between atoms: CB   and  CG  
REMARK    7  A    between atoms: CG   and  CD  
REMARK    8  A    between atoms: CD   and  CE  
ROOT
ATOM      7  CA  LYS A 135      33.193  34.663   9.290  1.00 25.02     0.186 C 
ENDROOT
BRANCH   7   8
ATOM      8  CB  LYS A 135      32.060  35.360  10.034  1.00 26.63     0.034 C 
BRANCH   8   9
ATOM      9  CG  LYS A 135      30.795  35.484   9.225  1.00 29.45     0.005 C 
BRANCH   9  10
ATOM     10  CD  LYS A 135      29.976  34.205   9.309  1.00 32.00     0.041 C 
BRANCH  10  11
ATOM     11  CE  LYS A 135      28.611  34.403   8.679  1.00 34.25     0.338 C 
ATOM     12  NZ  LYS A 135      27.553  33.707   9.461  1.00 35.99     0.618 N 
ENDBRANCH  10  11
ENDBRANCH   9  10
ENDBRANCH   8   9
ENDBRANCH   7   8
END_RES LYS A 135
