REMARK VINA RESULT:    -4.534      5.817     10.563
REMARK INTER + INTRA:         -24.814
REMARK INTER:                  -9.263
REMARK INTRA:                 -15.551
REMARK UNBOUND:               -11.931
REMARK SMILES CC(=O)N[C@@H]1[C@@H](O)C[C@](OC[C@H]2O[C@@H](O[C@H]3[C@H](O)[C@@H](O)[C@H](OCCN=[N+]=[N-])O[C@@H]3CO)[C@H](O)[C@@H](O)[C@H]2O)(C(=O)O)O[C@H]1C(O)[C@H](O)CNC(=O)OCc1cn(CC(=O)NCC(O)Cn2ccnc2[N+](=O)[O-])nn1
REMARK SMILES IDX 47 1 45 2 43 3 42 4 9 5 8 6 41 7 6 8 5 9 10 10 11 11 12 12
REMARK SMILES IDX 14 13 13 14 32 15 34 16 36 17 15 18 16 19 29 20 28 21 21 22
REMARK SMILES IDX 17 23 19 24 30 25 31 26 22 28 23 29 24 30 25 31 26 32 27 33
REMARK SMILES IDX 18 34 20 36 33 38 35 40 37 42 38 44 39 45 40 46 7 48 4 50
REMARK SMILES IDX 2 51 1 53 3 54 44 55 46 57 48 59 49 60 50 62 51 63 52 64
REMARK SMILES IDX 53 65 54 66 73 67 55 68 72 69 56 70 57 71 58 72 59 73 60 75
REMARK SMILES IDX 61 76 62 77 63 79 64 80 65 81 68 82 66 83 67 84 69 85 70 86
REMARK SMILES IDX 71 87
REMARK H PARENT 31 27 18 35 20 37 33 39 35 41 37 43 40 47 7 49 4 52 44 56
REMARK H PARENT 46 58 48 61 59 74 62 78
REMARK Flexibility Score: inf
ROOT
ATOM      1  C   UNL     1      22.100  40.234  12.984  1.00  0.00     0.154 C 
ENDROOT
BRANCH   1   2
ATOM      2  C   UNL     1      23.134  39.160  13.028  1.00  0.00     0.165 C 
BRANCH   2   3
ATOM      3  C   UNL     1      23.921  38.953  11.788  1.00  0.00     0.176 C 
BRANCH   3   4
ATOM      4  C   UNL     1      24.550  40.112  11.132  1.00  0.00     0.178 C 
ATOM      5  C   UNL     1      24.450  41.633   9.378  1.00  0.00     0.272 C 
ATOM      6  C   UNL     1      25.308  42.406  10.318  1.00  0.00     0.113 C 
ATOM      7  O   UNL     1      23.949  40.443   9.936  1.00  0.00    -0.332 OA
ATOM      8  C   UNL     1      26.412  41.626  10.947  1.00  0.00     0.145 C 
ATOM      9  C   UNL     1      26.024  40.121  10.983  1.00  0.00     0.142 C 
BRANCH   5  10
ATOM     10  O   UNL     1      24.987  41.325   8.163  1.00  0.00    -0.338 OA
BRANCH  10  11
ATOM     11  C   UNL     1      26.014  42.090   7.707  1.00  0.00     0.199 C 
BRANCH  11  12
ATOM     12  C   UNL     1      27.086  41.285   6.999  1.00  0.00     0.179 C 
ATOM     13  C   UNL     1      28.156  39.215   7.057  1.00  0.00     0.282 C 
ATOM     14  O   UNL     1      27.617  40.294   7.747  1.00  0.00    -0.341 OA
ATOM     15  C   UNL     1      28.817  39.645   5.771  1.00  0.00     0.202 C 
ATOM     16  C   UNL     1      27.852  40.383   4.872  1.00  0.00     0.179 C 
ATOM     17  C   UNL     1      26.620  40.795   5.655  1.00  0.00     0.177 C 
BRANCH  13  18
ATOM     18  O   UNL     1      27.280  38.220   6.807  1.00  0.00    -0.341 OA
BRANCH  18  19
ATOM     19  C   UNL     1      26.928  37.323   7.742  1.00  0.00     0.184 C 
ATOM     20  C   UNL     1      27.460  35.923   7.596  1.00  0.00     0.178 C 
ATOM     21  O   UNL     1      27.348  35.330   8.856  1.00  0.00    -0.341 OA
ATOM     22  C   UNL     1      26.018  35.096   9.184  1.00  0.00     0.281 C 
ATOM     23  C   UNL     1      25.406  37.133   7.834  1.00  0.00     0.180 C 
ATOM     24  C   UNL     1      25.167  36.326   9.090  1.00  0.00     0.202 C 
BRANCH  20  25
ATOM     25  C   UNL     1      28.921  35.963   7.255  1.00  0.00     0.191 C 
BRANCH  25  26
ATOM     26  O   UNL     1      29.129  36.030   5.871  1.00  0.00    -0.394 OA
ATOM     27  H   UNL     1      28.258  35.713   5.473  1.00  0.00     0.210 HD
ENDBRANCH  25  26
ENDBRANCH  20  25
BRANCH  22  28
ATOM     28  O   UNL     1      25.991  34.667  10.509  1.00  0.00    -0.350 OA
BRANCH  28  29
ATOM     29  C   UNL     1      26.140  35.737  11.393  1.00  0.00     0.169 C 
BRANCH  29  30
ATOM     30  C   UNL     1      25.331  35.372  12.640  1.00  0.00     0.119 C 
BRANCH  30  31
ATOM     31  N   UNL     1      23.908  35.462  12.361  1.00  0.00    -0.092 NA
ATOM     32  N   UNL     1      23.288  34.382  12.258  1.00  0.00     0.001 N 
ATOM     33  N   UNL     1      22.583  33.397  12.432  1.00  0.00    -0.003 NA
ENDBRANCH  30  31
ENDBRANCH  29  30
ENDBRANCH  28  29
ENDBRANCH  22  28
BRANCH  23  34
ATOM     34  O   UNL     1      24.756  38.351   8.006  1.00  0.00    -0.387 OA
ATOM     35  H   UNL     1      24.758  38.772   7.089  1.00  0.00     0.211 HD
ENDBRANCH  23  34
BRANCH  24  36
ATOM     36  O   UNL     1      23.836  35.941   9.239  1.00  0.00    -0.385 OA
ATOM     37  H   UNL     1      23.738  35.513  10.140  1.00  0.00     0.211 HD
ENDBRANCH  24  36
ENDBRANCH  18  19
ENDBRANCH  13  18
BRANCH  15  38
ATOM     38  O   UNL     1      29.973  40.400   6.011  1.00  0.00    -0.385 OA
ATOM     39  H   UNL     1      30.611  39.758   6.456  1.00  0.00     0.211 HD
ENDBRANCH  15  38
BRANCH  16  40
ATOM     40  O   UNL     1      27.422  39.572   3.825  1.00  0.00    -0.387 OA
ATOM     41  H   UNL     1      26.648  39.973   3.330  1.00  0.00     0.211 HD
ENDBRANCH  16  40
BRANCH  17  42
ATOM     42  O   UNL     1      25.640  39.832   5.710  1.00  0.00    -0.387 OA
ATOM     43  H   UNL     1      24.949  40.020   6.403  1.00  0.00     0.211 HD
ENDBRANCH  17  42
ENDBRANCH  11  12
ENDBRANCH  10  11
ENDBRANCH   5  10
BRANCH   5  44
ATOM     44  C   UNL     1      23.198  42.451   9.169  1.00  0.00     0.364 C 
ATOM     45  O   UNL     1      23.198  43.607   9.629  1.00  0.00    -0.246 OA
BRANCH  44  46
ATOM     46  O   UNL     1      22.089  41.979   8.507  1.00  0.00    -0.477 OA
ATOM     47  H   UNL     1      21.265  42.589   8.361  1.00  0.00     0.296 HD
ENDBRANCH  44  46
ENDBRANCH   5  44
BRANCH   8  48
ATOM     48  O   UNL     1      27.660  41.784  10.437  1.00  0.00    -0.391 OA
ATOM     49  H   UNL     1      28.355  41.213  10.796  1.00  0.00     0.211 HD
ENDBRANCH   8  48
BRANCH   9  50
ATOM     50  N   UNL     1      26.799  39.527  12.006  1.00  0.00    -0.348 N 
ATOM     51  C   UNL     1      28.026  38.834  11.705  1.00  0.00     0.217 C 
ATOM     52  H   UNL     1      26.523  39.578  12.995  1.00  0.00     0.163 HD
ATOM     53  C   UNL     1      28.852  38.197  12.765  1.00  0.00     0.114 C 
ATOM     54  O   UNL     1      28.387  38.777  10.511  1.00  0.00    -0.275 OA
ENDBRANCH   9  50
ENDBRANCH   3   4
BRANCH   3  55
ATOM     55  O   UNL     1      23.097  38.224  10.894  1.00  0.00    -0.388 OA
ATOM     56  H   UNL     1      23.564  38.176  10.043  1.00  0.00     0.211 HD
ENDBRANCH   3  55
ENDBRANCH   2   3
BRANCH   2  57
ATOM     57  O   UNL     1      22.722  38.034  13.700  1.00  0.00    -0.388 OA
ATOM     58  H   UNL     1      23.312  37.261  13.640  1.00  0.00     0.211 HD
ENDBRANCH   2  57
ENDBRANCH   1   2
BRANCH   1  59
ATOM     59  N   UNL     1      20.981  39.827  12.179  1.00  0.00    -0.319 N 
ATOM     60  C   UNL     1      20.283  40.702  11.311  1.00  0.00     0.407 C 
ATOM     61  H   UNL     1      20.632  38.824  12.214  1.00  0.00     0.167 HD
ATOM     62  O   UNL     1      20.652  41.891  11.218  1.00  0.00    -0.225 OA
BRANCH  60  63
ATOM     63  O   UNL     1      19.199  40.333  10.543  1.00  0.00    -0.443 OA
BRANCH  63  64
ATOM     64  C   UNL     1      19.301  40.132   9.158  1.00  0.00     0.294 C 
BRANCH  64  65
ATOM     65  C   UNL     1      20.099  38.989   8.718  1.00  0.00     0.120 A 
ATOM     66  C   UNL     1      19.671  37.730   8.382  1.00  0.00     0.138 A 
ATOM     67  N   UNL     1      21.433  38.953   8.572  1.00  0.00    -0.132 NA
ATOM     68  N   UNL     1      20.743  36.976   8.046  1.00  0.00    -0.243 N 
ATOM     69  N   UNL     1      21.794  37.725   8.166  1.00  0.00    -0.067 NA
BRANCH  68  70
ATOM     70  C   UNL     1      20.713  35.586   7.605  1.00  0.00     0.245 C 
BRANCH  70  71
ATOM     71  C   UNL     1      19.651  34.870   8.341  1.00  0.00     0.241 C 
ATOM     72  O   UNL     1      18.568  34.516   7.762  1.00  0.00    -0.273 OA
ATOM     73  N   UNL     1      19.762  34.526   9.721  1.00  0.00    -0.352 N 
ATOM     74  H   UNL     1      20.620  34.791  10.235  1.00  0.00     0.163 HD
BRANCH  73  75
ATOM     75  C   UNL     1      18.667  33.820  10.357  1.00  0.00     0.151 C 
BRANCH  75  76
ATOM     76  C   UNL     1      19.072  33.180  11.648  1.00  0.00     0.168 C 
BRANCH  76  77
ATOM     77  O   UNL     1      18.701  31.849  11.720  1.00  0.00    -0.388 OA
ATOM     78  H   UNL     1      17.715  31.815  11.730  1.00  0.00     0.211 HD
ENDBRANCH  76  77
BRANCH  76  79
ATOM     79  C   UNL     1      18.428  33.978  12.772  1.00  0.00     0.239 C 
BRANCH  79  80
ATOM     80  N   UNL     1      19.409  34.558  13.643  1.00  0.00    -0.227 N 
ATOM     81  C   UNL     1      19.872  33.980  14.783  1.00  0.00     0.204 A 
ATOM     82  C   UNL     1      20.054  35.748  13.557  1.00  0.00     0.434 A 
ATOM     83  C   UNL     1      20.785  34.815  15.376  1.00  0.00     0.245 A 
ATOM     84  N   UNL     1      20.883  35.896  14.609  1.00  0.00    -0.074 NA
BRANCH  82  85
ATOM     85  N   UNL     1      19.890  36.697  12.504  1.00  0.00    -0.047 N 
ATOM     86  O   UNL     1      18.933  37.464  12.410  1.00  0.00    -0.390 OA
ATOM     87  O   UNL     1      20.865  36.753  11.518  1.00  0.00    -0.390 OA
ENDBRANCH  82  85
ENDBRANCH  79  80
ENDBRANCH  76  79
ENDBRANCH  75  76
ENDBRANCH  73  75
ENDBRANCH  70  71
ENDBRANCH  68  70
ENDBRANCH  64  65
ENDBRANCH  63  64
ENDBRANCH  60  63
ENDBRANCH   1  59
TORSDOF 37
BEGIN_RES LYS A 131
REMARK  4 active torsions:
REMARK  status: ('A' for Active; 'I' for Inactive)
REMARK    1  A    between atoms: CA   and  CB  
REMARK    2  A    between atoms: CB   and  CG  
REMARK    3  A    between atoms: CG   and  CD  
REMARK    4  A    between atoms: CD   and  CE  
ROOT
ATOM      1  CA  LYS A 131      29.867  25.555  16.977  1.00 20.52     0.186 C 
ENDROOT
BRANCH   1   2
ATOM      2  CB  LYS A 131      28.345  25.722  17.026  1.00 20.94     0.034 C 
BRANCH   2   3
ATOM      3  CG  LYS A 131      27.608  24.395  17.116  1.00 22.96     0.005 C 
BRANCH   3   4
ATOM      4  CD  LYS A 131      26.124  24.581  17.270  1.00 24.33     0.041 C 
BRANCH   4   5
ATOM      5  CE  LYS A 131      25.514  23.324  17.882  1.00 26.91     0.338 C 
ATOM      6  NZ  LYS A 131      26.131  22.110  17.297  1.00 27.40     0.618 N 
ENDBRANCH   4   5
ENDBRANCH   3   4
ENDBRANCH   2   3
ENDBRANCH   1   2
END_RES LYS A 131
BEGIN_RES LYS A 135
REMARK  4 active torsions:
REMARK  status: ('A' for Active; 'I' for Inactive)
REMARK    5  A    between atoms: CA   and  CB  
REMARK    6  A    between atoms: CB   and  CG  
REMARK    7  A    between atoms: CG   and  CD  
REMARK    8  A    between atoms: CD   and  CE  
ROOT
ATOM      7  CA  LYS A 135      33.193  34.663   9.290  1.00 25.02     0.186 C 
ENDROOT
BRANCH   7   8
ATOM      8  CB  LYS A 135      32.060  35.360  10.034  1.00 26.63     0.034 C 
BRANCH   8   9
ATOM      9  CG  LYS A 135      30.783  34.560  10.073  1.00 29.45     0.005 C 
BRANCH   9  10
ATOM     10  CD  LYS A 135      29.867  35.065  11.177  1.00 32.00     0.041 C 
BRANCH  10  11
ATOM     11  CE  LYS A 135      30.274  34.479  12.516  1.00 34.25     0.338 C 
ATOM     12  NZ  LYS A 135      30.941  35.501  13.369  1.00 35.99     0.618 N 
ENDBRANCH  10  11
ENDBRANCH   9  10
ENDBRANCH   8   9
ENDBRANCH   7   8
END_RES LYS A 135
