REMARK VINA RESULT:    -6.903      3.551      8.048
REMARK INTER + INTRA:         -20.435
REMARK INTER:                  -9.379
REMARK INTRA:                 -11.056
REMARK UNBOUND:                -1.022
REMARK SMILES CC(=O)N[C@@H]1[C@@H](O)C[C@](OC[C@H]2O[C@@H](O[C@H]3[C@H](O)[C@@H](O)[C@H](OCCN=[N+]=[N-])O[C@@H]3CO)[C@H](O)[C@@H](O)[C@H]2O)(C(=O)O)O[C@H]1C(O)[C@H](O)CNC(=O)OCc1cn(C2CC(O)C=C[C@@H](O)C2)nn1
REMARK SMILES IDX 43 1 42 2 9 3 8 4 41 5 6 6 5 7 10 8 11 9 12 10 14 11 13 12
REMARK SMILES IDX 32 13 34 14 36 15 15 16 16 17 29 18 28 19 21 20 17 21 19 22
REMARK SMILES IDX 30 23 31 24 22 26 23 27 24 28 25 29 26 30 27 31 18 32 20 34
REMARK SMILES IDX 33 36 35 38 37 40 38 42 39 43 40 44 7 46 4 48 2 49 1 51 3 52
REMARK SMILES IDX 44 53 45 55 46 56 47 58 48 59 49 60 50 62 51 63 52 64 53 65
REMARK SMILES IDX 54 66 66 67 55 68 65 69 56 70 57 71 58 72 59 74 64 76 62 77
REMARK SMILES IDX 61 78 60 79 63 81
REMARK H PARENT 31 25 18 33 20 35 33 37 35 39 37 41 40 45 7 47 4 50 44 54
REMARK H PARENT 46 57 48 61 59 75 63 82
REMARK Flexibility Score: 90.00
ROOT
ATOM      1  C   UNL     1      24.909  36.205  12.677  1.00  0.00     0.176 C 
ENDROOT
BRANCH   1   2
ATOM      2  C   UNL     1      23.525  35.588  12.576  1.00  0.00     0.178 C 
ATOM      3  C   UNL     1      22.468  33.638  13.361  1.00  0.00     0.272 C 
ATOM      4  C   UNL     1      21.380  33.774  12.360  1.00  0.00     0.113 C 
ATOM      5  O   UNL     1      23.622  34.301  13.177  1.00  0.00    -0.332 OA
ATOM      6  C   UNL     1      21.473  34.977  11.494  1.00  0.00     0.145 C 
ATOM      7  C   UNL     1      22.969  35.345  11.240  1.00  0.00     0.142 C 
BRANCH   3   8
ATOM      8  O   UNL     1      22.688  32.263  13.579  1.00  0.00    -0.338 OA
BRANCH   8   9
ATOM      9  C   UNL     1      23.672  31.710  12.812  1.00  0.00     0.199 C 
BRANCH   9  10
ATOM     10  C   UNL     1      24.653  30.912  13.673  1.00  0.00     0.179 C 
ATOM     11  C   UNL     1      25.531  31.286  15.775  1.00  0.00     0.282 C 
ATOM     12  O   UNL     1      25.294  31.784  14.494  1.00  0.00    -0.341 OA
ATOM     13  C   UNL     1      24.148  31.118  16.378  1.00  0.00     0.202 C 
ATOM     14  C   UNL     1      23.544  29.907  15.704  1.00  0.00     0.179 C 
ATOM     15  C   UNL     1      24.013  29.720  14.297  1.00  0.00     0.177 C 
BRANCH  11  16
ATOM     16  O   UNL     1      26.332  32.168  16.459  1.00  0.00    -0.341 OA
BRANCH  16  17
ATOM     17  C   UNL     1      27.574  31.577  16.710  1.00  0.00     0.184 C 
ATOM     18  C   UNL     1      28.158  32.118  17.991  1.00  0.00     0.178 C 
ATOM     19  O   UNL     1      28.679  33.383  17.894  1.00  0.00    -0.341 OA
ATOM     20  C   UNL     1      28.710  33.889  16.596  1.00  0.00     0.281 C 
ATOM     21  C   UNL     1      28.521  31.696  15.547  1.00  0.00     0.180 C 
ATOM     22  C   UNL     1      29.414  32.900  15.674  1.00  0.00     0.202 C 
BRANCH  18  23
ATOM     23  C   UNL     1      29.208  31.165  18.548  1.00  0.00     0.191 C 
BRANCH  23  24
ATOM     24  O   UNL     1      28.844  29.840  18.396  1.00  0.00    -0.394 OA
ATOM     25  H   UNL     1      28.860  29.341  19.228  1.00  0.00     0.210 HD
ENDBRANCH  23  24
ENDBRANCH  18  23
BRANCH  20  26
ATOM     26  O   UNL     1      29.429  35.078  16.664  1.00  0.00    -0.350 OA
BRANCH  26  27
ATOM     27  C   UNL     1      29.082  35.740  17.836  1.00  0.00     0.169 C 
BRANCH  27  28
ATOM     28  C   UNL     1      28.385  37.057  17.541  1.00  0.00     0.119 C 
BRANCH  28  29
ATOM     29  N   UNL     1      29.157  37.851  16.607  1.00  0.00    -0.092 NA
ATOM     30  N   UNL     1      28.569  38.680  15.895  1.00  0.00     0.001 N 
ATOM     31  N   UNL     1      27.855  39.392  15.175  1.00  0.00    -0.003 NA
ENDBRANCH  28  29
ENDBRANCH  27  28
ENDBRANCH  26  27
ENDBRANCH  20  26
BRANCH  21  32
ATOM     32  O   UNL     1      29.296  30.542  15.436  1.00  0.00    -0.387 OA
ATOM     33  H   UNL     1      30.022  30.647  14.774  1.00  0.00     0.211 HD
ENDBRANCH  21  32
BRANCH  22  34
ATOM     34  O   UNL     1      29.633  33.494  14.437  1.00  0.00    -0.385 OA
ATOM     35  H   UNL     1      28.775  33.642  13.960  1.00  0.00     0.211 HD
ENDBRANCH  22  34
ENDBRANCH  16  17
ENDBRANCH  11  16
BRANCH  13  36
ATOM     36  O   UNL     1      24.138  30.962  17.738  1.00  0.00    -0.385 OA
ATOM     37  H   UNL     1      25.006  30.820  18.147  1.00  0.00     0.211 HD
ENDBRANCH  13  36
BRANCH  14  38
ATOM     38  O   UNL     1      22.159  30.045  15.800  1.00  0.00    -0.387 OA
ATOM     39  H   UNL     1      21.855  30.891  15.368  1.00  0.00     0.211 HD
ENDBRANCH  14  38
BRANCH  15  40
ATOM     40  O   UNL     1      22.929  29.356  13.472  1.00  0.00    -0.387 OA
ATOM     41  H   UNL     1      22.975  28.445  13.151  1.00  0.00     0.211 HD
ENDBRANCH  15  40
ENDBRANCH   9  10
ENDBRANCH   8   9
ENDBRANCH   3   8
BRANCH   3  42
ATOM     42  C   UNL     1      21.892  34.147  14.665  1.00  0.00     0.364 C 
ATOM     43  O   UNL     1      20.668  34.406  14.807  1.00  0.00    -0.246 OA
BRANCH  42  44
ATOM     44  O   UNL     1      22.765  34.324  15.725  1.00  0.00    -0.477 OA
ATOM     45  H   UNL     1      23.534  34.992  15.669  1.00  0.00     0.296 HD
ENDBRANCH  42  44
ENDBRANCH   3  42
BRANCH   6  46
ATOM     46  O   UNL     1      20.824  34.797  10.298  1.00  0.00    -0.391 OA
ATOM     47  H   UNL     1      20.576  33.855  10.184  1.00  0.00     0.211 HD
ENDBRANCH   6  46
BRANCH   7  48
ATOM     48  N   UNL     1      23.026  36.324  10.225  1.00  0.00    -0.348 N 
ATOM     49  C   UNL     1      23.933  36.180   9.144  1.00  0.00     0.217 C 
ATOM     50  H   UNL     1      22.391  37.143  10.231  1.00  0.00     0.163 HD
ATOM     51  C   UNL     1      24.011  37.197   8.064  1.00  0.00     0.114 C 
ATOM     52  O   UNL     1      24.685  35.177   9.097  1.00  0.00    -0.275 OA
ENDBRANCH   7  48
ENDBRANCH   1   2
BRANCH   1  53
ATOM     53  O   UNL     1      25.671  35.277  11.839  1.00  0.00    -0.388 OA
ATOM     54  H   UNL     1      25.275  34.361  11.978  1.00  0.00     0.211 HD
ENDBRANCH   1  53
BRANCH   1  55
ATOM     55  C   UNL     1      25.575  36.009  14.009  1.00  0.00     0.165 C 
BRANCH  55  56
ATOM     56  O   UNL     1      25.823  37.199  14.649  1.00  0.00    -0.388 OA
ATOM     57  H   UNL     1      26.755  37.312  14.940  1.00  0.00     0.211 HD
ENDBRANCH  55  56
BRANCH  55  58
ATOM     58  C   UNL     1      26.924  35.318  13.843  1.00  0.00     0.154 C 
BRANCH  58  59
ATOM     59  N   UNL     1      28.046  36.193  13.949  1.00  0.00    -0.319 N 
ATOM     60  C   UNL     1      28.744  36.698  12.818  1.00  0.00     0.407 C 
ATOM     61  H   UNL     1      28.391  36.492  14.910  1.00  0.00     0.167 HD
ATOM     62  O   UNL     1      28.328  36.333  11.681  1.00  0.00    -0.225 OA
BRANCH  60  63
ATOM     63  O   UNL     1      29.819  37.541  12.982  1.00  0.00    -0.443 OA
BRANCH  63  64
ATOM     64  C   UNL     1      31.133  37.120  12.628  1.00  0.00     0.294 C 
BRANCH  64  65
ATOM     65  C   UNL     1      31.714  36.418  13.794  1.00  0.00     0.120 A 
ATOM     66  C   UNL     1      32.110  36.947  14.995  1.00  0.00     0.138 A 
ATOM     67  N   UNL     1      31.960  35.098  13.864  1.00  0.00    -0.132 NA
ATOM     68  N   UNL     1      32.587  35.928  15.753  1.00  0.00    -0.249 N 
ATOM     69  N   UNL     1      32.483  34.825  15.040  1.00  0.00    -0.067 NA
BRANCH  68  70
ATOM     70  C   UNL     1      33.127  36.030  17.116  1.00  0.00     0.115 C 
BRANCH  70  71
ATOM     71  C   UNL     1      32.616  34.881  17.917  1.00  0.00     0.063 C 
BRANCH  71  72
ATOM     72  C   UNL     1      32.588  35.280  19.396  1.00  0.00     0.139 CG0
ATOM     73  G   UNL     1      33.965  35.295  19.915  1.00  0.00     0.000 G0
BRANCH  72  74
ATOM     74  O   UNL     1      31.785  34.394  20.111  1.00  0.00    -0.389 OA
ATOM     75  H   UNL     1      31.185  33.932  19.459  1.00  0.00     0.211 HD
ENDBRANCH  72  74
ENDBRANCH  71  72
ENDBRANCH  70  71
BRANCH  70  76
ATOM     76  C   UNL     1      34.622  36.018  17.035  1.00  0.00     0.063 C 
BRANCH  76  77
ATOM     77  C   UNL     1      35.132  36.794  18.255  1.00  0.00     0.139 C 
BRANCH  77  78
ATOM     78  C   UNL     1      35.073  35.923  19.460  1.00  0.00     0.002 C 
ATOM     79  C   UNL     1      33.998  35.301  19.922  1.00  0.00     0.002 CG0
ATOM     80  G   UNL     1      32.621  35.291  19.404  1.00  0.00     0.000 G0
ENDBRANCH  77  78
BRANCH  77  81
ATOM     81  O   UNL     1      36.410  37.290  18.049  1.00  0.00    -0.389 OA
ATOM     82  H   UNL     1      36.670  37.064  17.112  1.00  0.00     0.211 HD
ENDBRANCH  77  81
ENDBRANCH  76  77
ENDBRANCH  70  76
ENDBRANCH  68  70
ENDBRANCH  64  65
ENDBRANCH  63  64
ENDBRANCH  60  63
ENDBRANCH  58  59
ENDBRANCH  55  58
ENDBRANCH   1  55
TORSDOF 32
BEGIN_RES LYS A 131
REMARK  4 active torsions:
REMARK  status: ('A' for Active; 'I' for Inactive)
REMARK    1  A    between atoms: CA   and  CB  
REMARK    2  A    between atoms: CB   and  CG  
REMARK    3  A    between atoms: CG   and  CD  
REMARK    4  A    between atoms: CD   and  CE  
ROOT
ATOM      1  CA  LYS A 131      29.867  25.555  16.977  1.00 20.52     0.186 C 
ENDROOT
BRANCH   1   2
ATOM      2  CB  LYS A 131      28.345  25.722  17.026  1.00 20.94     0.034 C 
BRANCH   2   3
ATOM      3  CG  LYS A 131      27.603  24.395  16.987  1.00 22.96     0.005 C 
BRANCH   3   4
ATOM      4  CD  LYS A 131      26.143  24.552  17.306  1.00 24.33     0.041 C 
BRANCH   4   5
ATOM      5  CE  LYS A 131      25.913  24.277  18.789  1.00 26.91     0.338 C 
ATOM      6  NZ  LYS A 131      25.329  22.929  18.982  1.00 27.40     0.618 N 
ENDBRANCH   4   5
ENDBRANCH   3   4
ENDBRANCH   2   3
ENDBRANCH   1   2
END_RES LYS A 131
BEGIN_RES LYS A 135
REMARK  4 active torsions:
REMARK  status: ('A' for Active; 'I' for Inactive)
REMARK    5  A    between atoms: CA   and  CB  
REMARK    6  A    between atoms: CB   and  CG  
REMARK    7  A    between atoms: CG   and  CD  
REMARK    8  A    between atoms: CD   and  CE  
ROOT
ATOM      7  CA  LYS A 135      33.193  34.663   9.290  1.00 25.02     0.186 C 
ENDROOT
BRANCH   7   8
ATOM      8  CB  LYS A 135      32.060  35.360  10.034  1.00 26.63     0.034 C 
BRANCH   8   9
ATOM      9  CG  LYS A 135      30.698  34.794   9.724  1.00 29.45     0.005 C 
BRANCH   9  10
ATOM     10  CD  LYS A 135      30.564  34.502   8.238  1.00 32.00     0.041 C 
BRANCH  10  11
ATOM     11  CE  LYS A 135      29.185  34.893   7.741  1.00 34.25     0.338 C 
ATOM     12  NZ  LYS A 135      28.131  34.498   8.715  1.00 35.99     0.618 N 
ENDBRANCH  10  11
ENDBRANCH   9  10
ENDBRANCH   8   9
ENDBRANCH   7   8
END_RES LYS A 135
