REMARK VINA RESULT:    -4.485      3.181      9.996
REMARK INTER + INTRA:         -24.674
REMARK INTER:                 -12.743
REMARK INTRA:                 -11.931
REMARK UNBOUND:               -11.931
REMARK SMILES CC(=O)N[C@@H]1[C@@H](O)C[C@](OC[C@H]2O[C@@H](O[C@H]3[C@H](O)[C@@H](O)[C@H](OCCN=[N+]=[N-])O[C@@H]3CO)[C@H](O)[C@@H](O)[C@H]2O)(C(=O)O)O[C@H]1C(O)[C@H](O)CNC(=O)OCc1cn(CC(=O)NCC(O)Cn2ccnc2[N+](=O)[O-])nn1
REMARK SMILES IDX 47 1 45 2 43 3 42 4 9 5 8 6 41 7 6 8 5 9 10 10 11 11 12 12
REMARK SMILES IDX 14 13 13 14 32 15 34 16 36 17 15 18 16 19 29 20 28 21 21 22
REMARK SMILES IDX 17 23 19 24 30 25 31 26 22 28 23 29 24 30 25 31 26 32 27 33
REMARK SMILES IDX 18 34 20 36 33 38 35 40 37 42 38 44 39 45 40 46 7 48 4 50
REMARK SMILES IDX 2 51 1 53 3 54 44 55 46 57 48 59 49 60 50 62 51 63 52 64
REMARK SMILES IDX 53 65 54 66 73 67 55 68 72 69 56 70 57 71 58 72 59 73 60 75
REMARK SMILES IDX 61 76 62 77 63 79 64 80 65 81 68 82 66 83 67 84 69 85 70 86
REMARK SMILES IDX 71 87
REMARK H PARENT 31 27 18 35 20 37 33 39 35 41 37 43 40 47 7 49 4 52 44 56
REMARK H PARENT 46 58 48 61 59 74 62 78
REMARK Flexibility Score: inf
ROOT
ATOM      1  C   UNL     1      31.273  38.869  10.743  1.00  0.00     0.154 C 
ENDROOT
BRANCH   1   2
ATOM      2  C   UNL     1      31.382  37.681  11.639  1.00  0.00     0.165 C 
BRANCH   2   3
ATOM      3  C   UNL     1      30.747  37.803  12.974  1.00  0.00     0.176 C 
BRANCH   3   4
ATOM      4  C   UNL     1      31.372  37.140  14.131  1.00  0.00     0.178 C 
ATOM      5  C   UNL     1      32.535  35.282  14.904  1.00  0.00     0.272 C 
ATOM      6  C   UNL     1      32.899  36.253  15.971  1.00  0.00     0.113 C 
ATOM      7  O   UNL     1      31.810  35.864  13.847  1.00  0.00    -0.332 OA
ATOM      8  C   UNL     1      31.760  37.055  16.506  1.00  0.00     0.145 C 
ATOM      9  C   UNL     1      30.647  37.154  15.424  1.00  0.00     0.142 C 
BRANCH   5  10
ATOM     10  O   UNL     1      31.866  34.159  15.292  1.00  0.00    -0.338 OA
BRANCH  10  11
ATOM     11  C   UNL     1      30.961  33.625  14.428  1.00  0.00     0.199 C 
BRANCH  11  12
ATOM     12  C   UNL     1      30.135  32.514  15.045  1.00  0.00     0.179 C 
ATOM     13  C   UNL     1      30.005  31.170  16.946  1.00  0.00     0.282 C 
ATOM     14  O   UNL     1      30.789  31.795  15.982  1.00  0.00    -0.341 OA
ATOM     15  C   UNL     1      28.698  30.680  16.374  1.00  0.00     0.202 C 
ATOM     16  C   UNL     1      27.912  31.806  15.741  1.00  0.00     0.179 C 
ATOM     17  C   UNL     1      28.805  33.015  15.539  1.00  0.00     0.177 C 
BRANCH  13  18
ATOM     18  O   UNL     1      29.767  31.920  18.042  1.00  0.00    -0.341 OA
BRANCH  18  19
ATOM     19  C   UNL     1      30.640  31.999  19.059  1.00  0.00     0.184 C 
ATOM     20  C   UNL     1      30.175  31.531  20.411  1.00  0.00     0.178 C 
ATOM     21  O   UNL     1      31.331  31.289  21.158  1.00  0.00    -0.341 OA
ATOM     22  C   UNL     1      31.981  32.476  21.476  1.00  0.00     0.281 C 
ATOM     23  C   UNL     1      31.124  33.436  19.310  1.00  0.00     0.180 C 
ATOM     24  C   UNL     1      32.283  33.317  20.273  1.00  0.00     0.202 C 
BRANCH  20  25
ATOM     25  C   UNL     1      29.452  30.223  20.279  1.00  0.00     0.191 C 
BRANCH  25  26
ATOM     26  O   UNL     1      30.279  29.224  19.748  1.00  0.00    -0.394 OA
ATOM     27  H   UNL     1      29.729  28.813  19.009  1.00  0.00     0.210 HD
ENDBRANCH  25  26
ENDBRANCH  20  25
BRANCH  22  28
ATOM     28  O   UNL     1      33.196  32.134  22.066  1.00  0.00    -0.350 OA
BRANCH  28  29
ATOM     29  C   UNL     1      33.045  31.880  23.430  1.00  0.00     0.169 C 
BRANCH  29  30
ATOM     30  C   UNL     1      33.467  30.423  23.638  1.00  0.00     0.119 C 
BRANCH  30  31
ATOM     31  N   UNL     1      34.419  30.024  22.616  1.00  0.00    -0.092 NA
ATOM     32  N   UNL     1      35.368  29.301  22.988  1.00  0.00     0.001 N 
ATOM     33  N   UNL     1      36.137  28.377  23.218  1.00  0.00    -0.003 NA
ENDBRANCH  30  31
ENDBRANCH  29  30
ENDBRANCH  28  29
ENDBRANCH  22  28
BRANCH  23  34
ATOM     34  O   UNL     1      31.623  34.011  18.146  1.00  0.00    -0.387 OA
ATOM     35  H   UNL     1      31.066  33.611  17.406  1.00  0.00     0.211 HD
ENDBRANCH  23  34
BRANCH  24  36
ATOM     36  O   UNL     1      32.744  34.555  20.719  1.00  0.00    -0.385 OA
ATOM     37  H   UNL     1      32.081  35.251  20.435  1.00  0.00     0.211 HD
ENDBRANCH  24  36
ENDBRANCH  18  19
ENDBRANCH  13  18
BRANCH  15  38
ATOM     38  O   UNL     1      28.892  29.622  15.475  1.00  0.00    -0.385 OA
ATOM     39  H   UNL     1      29.892  29.501  15.433  1.00  0.00     0.211 HD
ENDBRANCH  15  38
BRANCH  16  40
ATOM     40  O   UNL     1      26.859  32.203  16.559  1.00  0.00    -0.387 OA
ATOM     41  H   UNL     1      26.343  32.968  16.166  1.00  0.00     0.211 HD
ENDBRANCH  16  40
BRANCH  17  42
ATOM     42  O   UNL     1      28.881  33.847  16.630  1.00  0.00    -0.387 OA
ATOM     43  H   UNL     1      29.290  33.409  17.426  1.00  0.00     0.211 HD
ENDBRANCH  17  42
ENDBRANCH  11  12
ENDBRANCH  10  11
ENDBRANCH   5  10
BRANCH   5  44
ATOM     44  C   UNL     1      33.826  34.878  14.233  1.00  0.00     0.364 C 
ATOM     45  O   UNL     1      34.850  34.878  14.940  1.00  0.00    -0.246 OA
BRANCH  44  46
ATOM     46  O   UNL     1      33.911  34.520  12.909  1.00  0.00    -0.477 OA
ATOM     47  H   UNL     1      33.333  33.745  12.535  1.00  0.00     0.296 HD
ENDBRANCH  44  46
ENDBRANCH   5  44
BRANCH   8  48
ATOM     48  O   UNL     1      31.233  36.676  17.698  1.00  0.00    -0.391 OA
ATOM     49  H   UNL     1      31.742  36.036  18.217  1.00  0.00     0.211 HD
ENDBRANCH   8  48
BRANCH   9  50
ATOM     50  N   UNL     1      29.876  38.297  15.741  1.00  0.00    -0.348 N 
ATOM     51  C   UNL     1      28.607  38.176  16.413  1.00  0.00     0.217 C 
ATOM     52  H   UNL     1      30.196  39.248  15.515  1.00  0.00     0.163 HD
ATOM     53  C   UNL     1      27.777  39.364  16.748  1.00  0.00     0.114 C 
ATOM     54  O   UNL     1      28.209  37.030  16.711  1.00  0.00    -0.275 OA
ENDBRANCH   9  50
ENDBRANCH   3   4
BRANCH   3  55
ATOM     55  O   UNL     1      29.389  37.427  12.821  1.00  0.00    -0.388 OA
ATOM     56  H   UNL     1      29.375  36.566  12.372  1.00  0.00     0.211 HD
ENDBRANCH   3  55
ENDBRANCH   2   3
BRANCH   2  57
ATOM     57  O   UNL     1      32.613  37.072  11.588  1.00  0.00    -0.388 OA
ATOM     58  H   UNL     1      32.757  36.345  12.221  1.00  0.00     0.211 HD
ENDBRANCH   2  57
ENDBRANCH   1   2
BRANCH   1  59
ATOM     59  N   UNL     1      30.157  38.726   9.847  1.00  0.00    -0.319 N 
ATOM     60  C   UNL     1      30.278  38.774   8.436  1.00  0.00     0.407 C 
ATOM     61  H   UNL     1      29.177  38.577  10.230  1.00  0.00     0.167 HD
ATOM     62  O   UNL     1      31.406  38.937   7.926  1.00  0.00    -0.225 OA
BRANCH  60  63
ATOM     63  O   UNL     1      29.218  38.653   7.562  1.00  0.00    -0.443 OA
BRANCH  63  64
ATOM     64  C   UNL     1      28.129  39.538   7.587  1.00  0.00     0.294 C 
BRANCH  64  65
ATOM     65  C   UNL     1      26.797  38.937   7.575  1.00  0.00     0.120 A 
ATOM     66  C   UNL     1      25.578  39.566   7.592  1.00  0.00     0.138 A 
ATOM     67  N   UNL     1      26.510  37.625   7.559  1.00  0.00    -0.132 NA
ATOM     68  N   UNL     1      24.599  38.630   7.586  1.00  0.00    -0.243 N 
ATOM     69  N   UNL     1      25.176  37.470   7.566  1.00  0.00    -0.067 NA
BRANCH  68  70
ATOM     70  C   UNL     1      23.164  38.887   7.575  1.00  0.00     0.245 C 
BRANCH  70  71
ATOM     71  C   UNL     1      22.525  38.100   8.650  1.00  0.00     0.241 C 
ATOM     72  O   UNL     1      21.825  38.666   9.556  1.00  0.00    -0.273 OA
ATOM     73  N   UNL     1      22.642  36.681   8.745  1.00  0.00    -0.352 N 
ATOM     74  H   UNL     1      23.199  36.176   8.034  1.00  0.00     0.163 HD
BRANCH  73  75
ATOM     75  C   UNL     1      21.975  35.997   9.836  1.00  0.00     0.151 C 
BRANCH  75  76
ATOM     76  C   UNL     1      22.875  35.789  11.014  1.00  0.00     0.168 C 
BRANCH  76  77
ATOM     77  O   UNL     1      23.060  36.946  11.751  1.00  0.00    -0.388 OA
ATOM     78  H   UNL     1      22.247  37.496  11.649  1.00  0.00     0.211 HD
ENDBRANCH  76  77
BRANCH  76  79
ATOM     79  C   UNL     1      24.205  35.273  10.486  1.00  0.00     0.239 C 
BRANCH  79  80
ATOM     80  N   UNL     1      25.188  35.171  11.526  1.00  0.00    -0.227 N 
ATOM     81  C   UNL     1      25.229  34.183  12.458  1.00  0.00     0.204 A 
ATOM     82  C   UNL     1      26.229  35.987  11.822  1.00  0.00     0.434 A 
ATOM     83  C   UNL     1      26.285  34.405  13.307  1.00  0.00     0.245 A 
ATOM     84  N   UNL     1      26.887  35.517  12.900  1.00  0.00    -0.074 NA
BRANCH  82  85
ATOM     85  N   UNL     1      26.585  37.161  11.093  1.00  0.00    -0.047 N 
ATOM     86  O   UNL     1      25.849  38.137  10.956  1.00  0.00    -0.390 OA
ATOM     87  O   UNL     1      27.837  37.203  10.493  1.00  0.00    -0.390 OA
ENDBRANCH  82  85
ENDBRANCH  79  80
ENDBRANCH  76  79
ENDBRANCH  75  76
ENDBRANCH  73  75
ENDBRANCH  70  71
ENDBRANCH  68  70
ENDBRANCH  64  65
ENDBRANCH  63  64
ENDBRANCH  60  63
ENDBRANCH   1  59
TORSDOF 37
BEGIN_RES LYS A 131
REMARK  4 active torsions:
REMARK  status: ('A' for Active; 'I' for Inactive)
REMARK    1  A    between atoms: CA   and  CB  
REMARK    2  A    between atoms: CB   and  CG  
REMARK    3  A    between atoms: CG   and  CD  
REMARK    4  A    between atoms: CD   and  CE  
ROOT
ATOM      1  CA  LYS A 131      29.867  25.555  16.977  1.00 20.52     0.186 C 
ENDROOT
BRANCH   1   2
ATOM      2  CB  LYS A 131      28.345  25.722  17.026  1.00 20.94     0.034 C 
BRANCH   2   3
ATOM      3  CG  LYS A 131      27.602  24.399  16.924  1.00 22.96     0.005 C 
BRANCH   3   4
ATOM      4  CD  LYS A 131      26.548  24.257  17.987  1.00 24.33     0.041 C 
BRANCH   4   5
ATOM      5  CE  LYS A 131      25.399  25.217  17.695  1.00 26.91     0.338 C 
ATOM      6  NZ  LYS A 131      24.238  24.483  17.138  1.00 27.40     0.618 N 
ENDBRANCH   4   5
ENDBRANCH   3   4
ENDBRANCH   2   3
ENDBRANCH   1   2
END_RES LYS A 131
BEGIN_RES LYS A 135
REMARK  4 active torsions:
REMARK  status: ('A' for Active; 'I' for Inactive)
REMARK    5  A    between atoms: CA   and  CB  
REMARK    6  A    between atoms: CB   and  CG  
REMARK    7  A    between atoms: CG   and  CD  
REMARK    8  A    between atoms: CD   and  CE  
ROOT
ATOM      7  CA  LYS A 135      33.193  34.663   9.290  1.00 25.02     0.186 C 
ENDROOT
BRANCH   7   8
ATOM      8  CB  LYS A 135      32.060  35.360  10.034  1.00 26.63     0.034 C 
BRANCH   8   9
ATOM      9  CG  LYS A 135      30.708  34.740   9.791  1.00 29.45     0.005 C 
BRANCH   9  10
ATOM     10  CD  LYS A 135      30.480  34.515   8.304  1.00 32.00     0.041 C 
BRANCH  10  11
ATOM     11  CE  LYS A 135      29.061  34.886   7.921  1.00 34.25     0.338 C 
ATOM     12  NZ  LYS A 135      29.010  35.475   6.554  1.00 35.99     0.618 N 
ENDBRANCH  10  11
ENDBRANCH   9  10
ENDBRANCH   8   9
ENDBRANCH   7   8
END_RES LYS A 135
