REMARK VINA RESULT:    -5.508      2.210      3.616
REMARK INTER + INTRA:         -23.608
REMARK INTER:                 -12.630
REMARK INTRA:                 -10.978
REMARK UNBOUND:                -9.729
REMARK SMILES CC(=O)N[C@@H]1[C@@H](O)C[C@](OC[C@H]2O[C@@H](O[C@H]3[C@H](O)[C@@H](O)[C@H](OCCN=[N+]=[N-])O[C@@H]3CO)[C@H](O)[C@@H](O)[C@H]2O)(C(=O)O)O[C@H]1C(O)[C@H](O)CNC(=O)OCc1cn(-c2ncccc2C#N)nn1
REMARK SMILES IDX 9 1 8 2 6 3 5 4 42 5 41 6 10 7 11 8 12 9 14 10 13 11 32 12
REMARK SMILES IDX 34 13 36 14 15 15 16 16 29 17 28 18 21 19 17 20 19 21 30 22
REMARK SMILES IDX 31 23 22 25 23 26 24 27 25 28 26 29 27 30 18 31 20 33 33 35
REMARK SMILES IDX 35 37 37 39 38 41 39 42 40 43 7 45 43 47 44 48 45 50 46 51
REMARK SMILES IDX 47 53 48 54 49 55 50 57 51 58 52 59 53 60 54 61 65 62 55 63
REMARK SMILES IDX 64 64 56 65 57 66 61 67 58 68 60 69 59 70 62 71 63 72 4 73
REMARK SMILES IDX 2 74 1 76 3 77
REMARK H PARENT 31 24 18 32 20 34 33 36 35 38 37 40 40 44 7 46 44 49 46 52
REMARK H PARENT 48 56 4 75
REMARK Flexibility Score: inf
ROOT
ATOM      1  C   UNL     1      30.303  30.266  20.433  1.00  0.00     0.272 C 
ATOM      2  C   UNL     1      31.360  29.288  20.143  1.00  0.00     0.113 C 
ATOM      3  C   UNL     1      31.690  28.413  21.287  1.00  0.00     0.145 C 
ATOM      4  C   UNL     1      30.591  28.137  22.259  1.00  0.00     0.142 C 
ATOM      5  C   UNL     1      29.243  28.706  21.920  1.00  0.00     0.178 C 
ATOM      6  O   UNL     1      29.256  29.802  21.195  1.00  0.00    -0.332 OA
ENDROOT
BRANCH   1   7
ATOM      7  O   UNL     1      29.710  30.957  19.455  1.00  0.00    -0.338 OA
BRANCH   7   8
ATOM      8  C   UNL     1      28.828  31.907  19.393  1.00  0.00     0.199 C 
BRANCH   8   9
ATOM      9  C   UNL     1      29.148  32.743  18.149  1.00  0.00     0.179 C 
ATOM     10  C   UNL     1      30.720  33.191  16.579  1.00  0.00     0.282 C 
ATOM     11  O   UNL     1      30.501  32.812  17.953  1.00  0.00    -0.341 OA
ATOM     12  C   UNL     1      30.398  32.045  15.690  1.00  0.00     0.202 C 
ATOM     13  C   UNL     1      28.997  31.500  15.984  1.00  0.00     0.179 C 
ATOM     14  C   UNL     1      28.338  32.409  16.952  1.00  0.00     0.177 C 
BRANCH  10  15
ATOM     15  O   UNL     1      31.982  33.644  16.408  1.00  0.00    -0.341 OA
BRANCH  15  16
ATOM     16  C   UNL     1      32.161  34.987  16.585  1.00  0.00     0.184 C 
ATOM     17  C   UNL     1      30.886  35.752  16.124  1.00  0.00     0.178 C 
ATOM     18  O   UNL     1      31.202  36.452  14.961  1.00  0.00    -0.341 OA
ATOM     19  C   UNL     1      31.738  35.590  13.994  1.00  0.00     0.281 C 
ATOM     20  C   UNL     1      33.339  35.570  15.847  1.00  0.00     0.180 C 
ATOM     21  C   UNL     1      33.175  35.317  14.344  1.00  0.00     0.202 C 
BRANCH  17  22
ATOM     22  C   UNL     1      30.442  36.649  17.234  1.00  0.00     0.191 C 
BRANCH  22  23
ATOM     23  O   UNL     1      30.890  37.971  17.053  1.00  0.00    -0.394 OA
ATOM     24  H   UNL     1      31.105  38.161  16.109  1.00  0.00     0.210 HD
ENDBRANCH  22  23
ENDBRANCH  17  22
BRANCH  19  25
ATOM     25  O   UNL     1      31.590  36.218  12.779  1.00  0.00    -0.350 OA
BRANCH  25  26
ATOM     26  C   UNL     1      31.455  37.610  12.931  1.00  0.00     0.169 C 
BRANCH  26  27
ATOM     27  C   UNL     1      30.477  38.160  11.913  1.00  0.00     0.119 C 
BRANCH  27  28
ATOM     28  N   UNL     1      29.176  37.552  12.225  1.00  0.00    -0.092 NA
ATOM     29  N   UNL     1      28.619  37.981  13.269  1.00  0.00     0.001 N 
ATOM     30  N   UNL     1      28.190  38.078  14.429  1.00  0.00    -0.003 NA
ENDBRANCH  27  28
ENDBRANCH  26  27
ENDBRANCH  25  26
ENDBRANCH  19  25
BRANCH  20  31
ATOM     31  O   UNL     1      33.505  36.916  16.074  1.00  0.00    -0.387 OA
ATOM     32  H   UNL     1      34.381  37.218  16.364  1.00  0.00     0.211 HD
ENDBRANCH  20  31
BRANCH  21  33
ATOM     33  O   UNL     1      33.552  34.012  14.043  1.00  0.00    -0.385 OA
ATOM     34  H   UNL     1      33.078  33.761  13.203  1.00  0.00     0.211 HD
ENDBRANCH  21  33
ENDBRANCH  15  16
ENDBRANCH  10  15
BRANCH  12  35
ATOM     35  O   UNL     1      30.463  32.418  14.359  1.00  0.00    -0.385 OA
ATOM     36  H   UNL     1      31.427  32.310  14.064  1.00  0.00     0.211 HD
ENDBRANCH  12  35
BRANCH  13  37
ATOM     37  O   UNL     1      29.115  30.187  16.497  1.00  0.00    -0.387 OA
ATOM     38  H   UNL     1      29.531  29.591  15.813  1.00  0.00     0.211 HD
ENDBRANCH  13  37
BRANCH  14  39
ATOM     39  O   UNL     1      27.066  31.984  17.344  1.00  0.00    -0.387 OA
ATOM     40  H   UNL     1      26.842  32.360  18.255  1.00  0.00     0.211 HD
ENDBRANCH  14  39
ENDBRANCH   8   9
ENDBRANCH   7   8
ENDBRANCH   1   7
BRANCH   1  41
ATOM     41  C   UNL     1      30.971  31.327  21.307  1.00  0.00     0.364 C 
ATOM     42  O   UNL     1      31.923  32.010  20.967  1.00  0.00    -0.246 OA
BRANCH  41  43
ATOM     43  O   UNL     1      30.468  31.550  22.604  1.00  0.00    -0.477 OA
ATOM     44  H   UNL     1      29.743  30.979  23.011  1.00  0.00     0.296 HD
ENDBRANCH  41  43
ENDBRANCH   1  41
BRANCH   3  45
ATOM     45  O   UNL     1      32.294  27.221  20.841  1.00  0.00    -0.391 OA
ATOM     46  H   UNL     1      31.529  26.559  20.789  1.00  0.00     0.211 HD
ENDBRANCH   3  45
BRANCH   5  47
ATOM     47  C   UNL     1      28.297  27.608  21.356  1.00  0.00     0.176 C 
BRANCH  47  48
ATOM     48  O   UNL     1      29.148  26.661  20.713  1.00  0.00    -0.388 OA
ATOM     49  H   UNL     1      29.643  27.076  19.986  1.00  0.00     0.211 HD
ENDBRANCH  47  48
BRANCH  47  50
ATOM     50  C   UNL     1      27.334  28.034  20.373  1.00  0.00     0.165 C 
BRANCH  50  51
ATOM     51  O   UNL     1      25.981  27.675  20.593  1.00  0.00    -0.388 OA
ATOM     52  H   UNL     1      25.419  28.075  19.857  1.00  0.00     0.211 HD
ENDBRANCH  50  51
BRANCH  50  53
ATOM     53  C   UNL     1      27.595  27.553  18.981  1.00  0.00     0.154 C 
BRANCH  53  54
ATOM     54  N   UNL     1      27.317  28.382  17.875  1.00  0.00    -0.319 N 
ATOM     55  C   UNL     1      26.108  28.631  17.227  1.00  0.00     0.407 C 
ATOM     56  H   UNL     1      28.164  28.916  17.440  1.00  0.00     0.167 HD
ATOM     57  O   UNL     1      25.079  28.061  17.665  1.00  0.00    -0.225 OA
BRANCH  55  58
ATOM     58  O   UNL     1      26.076  29.505  16.122  1.00  0.00    -0.443 OA
BRANCH  58  59
ATOM     59  C   UNL     1      24.844  29.798  15.532  1.00  0.00     0.294 C 
BRANCH  59  60
ATOM     60  C   UNL     1      24.703  31.199  15.187  1.00  0.00     0.121 A 
ATOM     61  C   UNL     1      24.892  31.742  13.972  1.00  0.00     0.146 A 
ATOM     62  N   UNL     1      24.411  32.252  16.067  1.00  0.00    -0.131 NA
ATOM     63  N   UNL     1      24.739  33.058  14.033  1.00  0.00    -0.201 N 
ATOM     64  N   UNL     1      24.460  33.286  15.281  1.00  0.00    -0.060 NA
BRANCH  63  65
ATOM     65  C   UNL     1      24.779  34.044  13.022  1.00  0.00     0.173 A 
ATOM     66  N   UNL     1      23.614  34.246  12.353  1.00  0.00    -0.236 NA
ATOM     67  C   UNL     1      25.973  34.664  12.632  1.00  0.00     0.097 A 
ATOM     68  C   UNL     1      23.645  35.124  11.206  1.00  0.00     0.113 A 
ATOM     69  C   UNL     1      25.926  35.481  11.524  1.00  0.00     0.025 A 
ATOM     70  C   UNL     1      24.785  35.674  10.866  1.00  0.00     0.022 A 
BRANCH  67  71
ATOM     71  C   UNL     1      27.207  34.583  13.347  1.00  0.00     0.103 C 
ATOM     72  N   UNL     1      28.260  34.529  13.940  1.00  0.00    -0.192 NA
ENDBRANCH  67  71
ENDBRANCH  63  65
ENDBRANCH  59  60
ENDBRANCH  58  59
ENDBRANCH  55  58
ENDBRANCH  53  54
ENDBRANCH  50  53
ENDBRANCH  47  50
ENDBRANCH   5  47
BRANCH   4  73
ATOM     73  N   UNL     1      31.129  28.452  23.564  1.00  0.00    -0.348 N 
ATOM     74  C   UNL     1      30.978  27.735  24.754  1.00  0.00     0.217 C 
ATOM     75  H   UNL     1      31.714  29.360  23.658  1.00  0.00     0.163 HD
ATOM     76  C   UNL     1      31.664  28.196  26.026  1.00  0.00     0.114 C 
ATOM     77  O   UNL     1      30.302  26.691  24.883  1.00  0.00    -0.275 OA
ENDBRANCH   4  73
TORSDOF 31
BEGIN_RES LYS A 131
REMARK  4 active torsions:
REMARK  status: ('A' for Active; 'I' for Inactive)
REMARK    1  A    between atoms: CA   and  CB  
REMARK    2  A    between atoms: CB   and  CG  
REMARK    3  A    between atoms: CG   and  CD  
REMARK    4  A    between atoms: CD   and  CE  
ROOT
ATOM      1  CA  LYS A 131      29.867  25.555  16.977  1.00 20.52     0.186 C 
ENDROOT
BRANCH   1   2
ATOM      2  CB  LYS A 131      28.345  25.722  17.026  1.00 20.94     0.034 C 
BRANCH   2   3
ATOM      3  CG  LYS A 131      27.602  24.399  16.928  1.00 22.96     0.005 C 
BRANCH   3   4
ATOM      4  CD  LYS A 131      26.163  24.525  17.344  1.00 24.33     0.041 C 
BRANCH   4   5
ATOM      5  CE  LYS A 131      25.901  23.626  18.548  1.00 26.91     0.338 C 
ATOM      6  NZ  LYS A 131      25.531  24.438  19.732  1.00 27.40     0.618 N 
ENDBRANCH   4   5
ENDBRANCH   3   4
ENDBRANCH   2   3
ENDBRANCH   1   2
END_RES LYS A 131
BEGIN_RES LYS A 135
REMARK  4 active torsions:
REMARK  status: ('A' for Active; 'I' for Inactive)
REMARK    5  A    between atoms: CA   and  CB  
REMARK    6  A    between atoms: CB   and  CG  
REMARK    7  A    between atoms: CG   and  CD  
REMARK    8  A    between atoms: CD   and  CE  
ROOT
ATOM      7  CA  LYS A 135      33.193  34.663   9.290  1.00 25.02     0.186 C 
ENDROOT
BRANCH   7   8
ATOM      8  CB  LYS A 135      32.060  35.360  10.034  1.00 26.63     0.034 C 
BRANCH   8   9
ATOM      9  CG  LYS A 135      30.883  35.701   9.157  1.00 29.45     0.005 C 
BRANCH   9  10
ATOM     10  CD  LYS A 135      30.388  34.467   8.419  1.00 32.00     0.041 C 
BRANCH  10  11
ATOM     11  CE  LYS A 135      28.873  34.464   8.344  1.00 34.25     0.338 C 
ATOM     12  NZ  LYS A 135      28.279  33.739   9.502  1.00 35.99     0.618 N 
ENDBRANCH  10  11
ENDBRANCH   9  10
ENDBRANCH   8   9
ENDBRANCH   7   8
END_RES LYS A 135
