REMARK VINA RESULT:    -3.867      4.545      8.027
REMARK INTER + INTRA:         -22.217
REMARK INTER:                 -12.444
REMARK INTRA:                  -9.773
REMARK UNBOUND:               -12.359
REMARK SMILES CC(=O)N[C@@H]1[C@@H](O)C[C@](OC[C@H]2O[C@@H](O[C@H]3[C@H](O)[C@@H](O)[C@H](OCCN=[N+]=[N-])O[C@@H]3CO)[C@H](O)[C@@H](O)[C@H]2O)(C(=O)O)O[C@H]1C(O)[C@H](O)CNC(=O)OCc1cn(CC(=O)O)nn1
REMARK SMILES IDX 9 1 8 2 6 3 5 4 42 5 41 6 10 7 11 8 12 9 14 10 13 11 32 12
REMARK SMILES IDX 34 13 36 14 15 15 16 16 29 17 28 18 21 19 17 20 19 21 30 22
REMARK SMILES IDX 31 23 22 25 23 26 24 27 25 28 26 29 27 30 18 31 20 33 33 35
REMARK SMILES IDX 35 37 37 39 38 41 39 42 40 43 7 45 43 47 44 48 45 50 46 51
REMARK SMILES IDX 47 53 48 54 49 55 50 57 51 58 52 59 53 60 54 61 61 62 55 63
REMARK SMILES IDX 60 64 56 65 57 66 58 67 59 68 4 70 2 71 1 73 3 74
REMARK H PARENT 31 24 18 32 20 34 33 36 35 38 37 40 40 44 7 46 44 49 46 52
REMARK H PARENT 48 56 59 69 4 72
REMARK Flexibility Score: inf
ROOT
ATOM      1  C   UNL     1      30.573  39.402   8.844  1.00  0.00     0.272 C 
ATOM      2  C   UNL     1      29.700  40.321   9.649  1.00  0.00     0.113 C 
ATOM      3  C   UNL     1      28.694  41.098   8.908  1.00  0.00     0.145 C 
ATOM      4  C   UNL     1      28.900  41.198   7.401  1.00  0.00     0.142 C 
ATOM      5  C   UNL     1      30.358  40.958   7.159  1.00  0.00     0.178 C 
ATOM      6  O   UNL     1      30.507  39.587   7.498  1.00  0.00    -0.332 OA
ENDROOT
BRANCH   1   7
ATOM      7  O   UNL     1      30.297  38.046   9.122  1.00  0.00    -0.338 OA
BRANCH   7   8
ATOM      8  C   UNL     1      30.035  37.279   8.029  1.00  0.00     0.199 C 
BRANCH   8   9
ATOM      9  C   UNL     1      28.610  36.712   8.131  1.00  0.00     0.179 C 
ATOM     10  C   UNL     1      26.549  37.731   7.934  1.00  0.00     0.282 C 
ATOM     11  O   UNL     1      27.735  37.587   8.723  1.00  0.00    -0.341 OA
ATOM     12  C   UNL     1      27.008  38.390   6.686  1.00  0.00     0.202 C 
ATOM     13  C   UNL     1      27.692  37.291   5.855  1.00  0.00     0.179 C 
ATOM     14  C   UNL     1      28.161  36.198   6.777  1.00  0.00     0.177 C 
BRANCH  10  15
ATOM     15  O   UNL     1      25.627  38.386   8.695  1.00  0.00    -0.341 OA
BRANCH  15  16
ATOM     16  C   UNL     1      24.459  37.657   8.922  1.00  0.00     0.184 C 
ATOM     17  C   UNL     1      24.844  36.264   9.323  1.00  0.00     0.178 C 
ATOM     18  O   UNL     1      23.892  35.357   8.944  1.00  0.00    -0.341 OA
ATOM     19  C   UNL     1      22.583  35.756   9.022  1.00  0.00     0.281 C 
ATOM     20  C   UNL     1      23.610  37.576   7.671  1.00  0.00     0.180 C 
ATOM     21  C   UNL     1      22.292  36.914   8.082  1.00  0.00     0.202 C 
BRANCH  17  22
ATOM     22  C   UNL     1      25.026  36.210  10.829  1.00  0.00     0.191 C 
BRANCH  22  23
ATOM     23  O   UNL     1      24.647  37.466  11.309  1.00  0.00    -0.394 OA
ATOM     24  H   UNL     1      25.247  38.167  10.969  1.00  0.00     0.210 HD
ENDBRANCH  22  23
ENDBRANCH  17  22
BRANCH  19  25
ATOM     25  O   UNL     1      22.226  36.025  10.315  1.00  0.00    -0.350 OA
BRANCH  25  26
ATOM     26  C   UNL     1      21.168  35.285  10.780  1.00  0.00     0.169 C 
BRANCH  26  27
ATOM     27  C   UNL     1      19.899  36.067  10.996  1.00  0.00     0.119 C 
BRANCH  27  28
ATOM     28  N   UNL     1      19.113  36.148   9.763  1.00  0.00    -0.092 NA
ATOM     29  N   UNL     1      19.164  35.143   9.027  1.00  0.00     0.001 N 
ATOM     30  N   UNL     1      19.270  34.525   7.950  1.00  0.00    -0.003 NA
ENDBRANCH  27  28
ENDBRANCH  26  27
ENDBRANCH  25  26
ENDBRANCH  19  25
BRANCH  20  31
ATOM     31  O   UNL     1      23.298  38.801   7.137  1.00  0.00    -0.387 OA
ATOM     32  H   UNL     1      23.636  39.571   7.622  1.00  0.00     0.211 HD
ENDBRANCH  20  31
BRANCH  21  33
ATOM     33  O   UNL     1      21.599  36.452   6.979  1.00  0.00    -0.385 OA
ATOM     34  H   UNL     1      21.633  37.097   6.227  1.00  0.00     0.211 HD
ENDBRANCH  21  33
ENDBRANCH  15  16
ENDBRANCH  10  15
BRANCH  12  35
ATOM     35  O   UNL     1      26.081  39.089   5.969  1.00  0.00    -0.385 OA
ATOM     36  H   UNL     1      25.187  38.755   6.146  1.00  0.00     0.211 HD
ENDBRANCH  12  35
BRANCH  13  37
ATOM     37  O   UNL     1      28.763  37.886   5.206  1.00  0.00    -0.387 OA
ATOM     38  H   UNL     1      29.591  37.902   5.761  1.00  0.00     0.211 HD
ENDBRANCH  13  37
BRANCH  14  39
ATOM     39  O   UNL     1      29.262  35.608   6.158  1.00  0.00    -0.387 OA
ATOM     40  H   UNL     1      30.055  36.193   6.160  1.00  0.00     0.211 HD
ENDBRANCH  14  39
ENDBRANCH   8   9
ENDBRANCH   7   8
ENDBRANCH   1   7
BRANCH   1  41
ATOM     41  C   UNL     1      31.974  39.602   9.279  1.00  0.00     0.364 C 
ATOM     42  O   UNL     1      32.251  40.192  10.341  1.00  0.00    -0.246 OA
BRANCH  41  43
ATOM     43  O   UNL     1      33.043  39.142   8.529  1.00  0.00    -0.477 OA
ATOM     44  H   UNL     1      33.647  38.368   8.834  1.00  0.00     0.296 HD
ENDBRANCH  41  43
ENDBRANCH   1  41
BRANCH   3  45
ATOM     45  O   UNL     1      27.369  40.780   9.227  1.00  0.00    -0.391 OA
ATOM     46  H   UNL     1      26.720  41.095   8.576  1.00  0.00     0.211 HD
ENDBRANCH   3  45
BRANCH   5  47
ATOM     47  C   UNL     1      30.870  41.167   5.775  1.00  0.00     0.176 C 
BRANCH  47  48
ATOM     48  O   UNL     1      30.390  40.030   5.044  1.00  0.00    -0.388 OA
ATOM     49  H   UNL     1      30.125  40.320   4.125  1.00  0.00     0.211 HD
ENDBRANCH  47  48
BRANCH  47  50
ATOM     50  C   UNL     1      32.378  41.183   5.664  1.00  0.00     0.165 C 
BRANCH  50  51
ATOM     51  O   UNL     1      32.856  39.850   5.762  1.00  0.00    -0.388 OA
ATOM     52  H   UNL     1      32.325  39.308   5.140  1.00  0.00     0.211 HD
ENDBRANCH  50  51
BRANCH  50  53
ATOM     53  C   UNL     1      33.039  42.016   6.691  1.00  0.00     0.154 C 
BRANCH  53  54
ATOM     54  N   UNL     1      34.437  41.724   6.827  1.00  0.00    -0.319 N 
ATOM     55  C   UNL     1      35.355  42.330   7.712  1.00  0.00     0.407 C 
ATOM     56  H   UNL     1      34.896  40.962   6.208  1.00  0.00     0.167 HD
ATOM     57  O   UNL     1      35.013  43.227   8.487  1.00  0.00    -0.225 OA
BRANCH  55  58
ATOM     58  O   UNL     1      36.702  41.952   7.761  1.00  0.00    -0.443 OA
BRANCH  58  59
ATOM     59  C   UNL     1      37.073  40.607   8.010  1.00  0.00     0.294 C 
BRANCH  59  60
ATOM     60  C   UNL     1      36.711  39.738   6.848  1.00  0.00     0.120 A 
ATOM     61  C   UNL     1      37.423  39.597   5.665  1.00  0.00     0.139 A 
ATOM     62  N   UNL     1      35.643  38.936   6.721  1.00  0.00    -0.132 NA
ATOM     63  N   UNL     1      36.764  38.726   4.881  1.00  0.00    -0.241 N 
ATOM     64  N   UNL     1      35.685  38.338   5.543  1.00  0.00    -0.066 NA
BRANCH  63  65
ATOM     65  C   UNL     1      37.139  38.266   3.540  1.00  0.00     0.268 C 
BRANCH  65  66
ATOM     66  C   UNL     1      38.460  37.619   3.633  1.00  0.00     0.325 C 
ATOM     67  O   UNL     1      39.456  38.152   3.121  1.00  0.00    -0.250 OA
BRANCH  66  68
ATOM     68  O   UNL     1      38.587  36.414   4.293  1.00  0.00    -0.480 OA
ATOM     69  H   UNL     1      38.125  35.579   3.999  1.00  0.00     0.296 HD
ENDBRANCH  66  68
ENDBRANCH  65  66
ENDBRANCH  63  65
ENDBRANCH  59  60
ENDBRANCH  58  59
ENDBRANCH  55  58
ENDBRANCH  53  54
ENDBRANCH  50  53
ENDBRANCH  47  50
ENDBRANCH   5  47
BRANCH   4  70
ATOM     70  N   UNL     1      28.328  42.391   6.878  1.00  0.00    -0.348 N 
ATOM     71  C   UNL     1      27.629  42.424   5.623  1.00  0.00     0.217 C 
ATOM     72  H   UNL     1      28.384  43.287   7.402  1.00  0.00     0.163 HD
ATOM     73  C   UNL     1      27.063  43.712   5.156  1.00  0.00     0.114 C 
ATOM     74  O   UNL     1      27.495  41.389   4.930  1.00  0.00    -0.275 OA
ENDBRANCH   4  70
TORSDOF 32
BEGIN_RES LYS A 131
REMARK  4 active torsions:
REMARK  status: ('A' for Active; 'I' for Inactive)
REMARK    1  A    between atoms: CA   and  CB  
REMARK    2  A    between atoms: CB   and  CG  
REMARK    3  A    between atoms: CG   and  CD  
REMARK    4  A    between atoms: CD   and  CE  
ROOT
ATOM      1  CA  LYS A 131      29.867  25.555  16.977  1.00 20.52     0.186 C 
ENDROOT
BRANCH   1   2
ATOM      2  CB  LYS A 131      28.345  25.722  17.026  1.00 20.94     0.034 C 
BRANCH   2   3
ATOM      3  CG  LYS A 131      27.600  24.409  16.840  1.00 22.96     0.005 C 
BRANCH   3   4
ATOM      4  CD  LYS A 131      26.719  24.086  18.015  1.00 24.33     0.041 C 
BRANCH   4   5
ATOM      5  CE  LYS A 131      25.605  23.144  17.571  1.00 26.91     0.338 C 
ATOM      6  NZ  LYS A 131      24.933  22.545  18.748  1.00 27.40     0.618 N 
ENDBRANCH   4   5
ENDBRANCH   3   4
ENDBRANCH   2   3
ENDBRANCH   1   2
END_RES LYS A 131
BEGIN_RES LYS A 135
REMARK  4 active torsions:
REMARK  status: ('A' for Active; 'I' for Inactive)
REMARK    5  A    between atoms: CA   and  CB  
REMARK    6  A    between atoms: CB   and  CG  
REMARK    7  A    between atoms: CG   and  CD  
REMARK    8  A    between atoms: CD   and  CE  
ROOT
ATOM      7  CA  LYS A 135      33.193  34.663   9.290  1.00 25.02     0.186 C 
ENDROOT
BRANCH   7   8
ATOM      8  CB  LYS A 135      32.060  35.360  10.034  1.00 26.63     0.034 C 
BRANCH   8   9
ATOM      9  CG  LYS A 135      30.843  34.493  10.228  1.00 29.45     0.005 C 
BRANCH   9  10
ATOM     10  CD  LYS A 135      29.853  35.160  11.169  1.00 32.00     0.041 C 
BRANCH  10  11
ATOM     11  CE  LYS A 135      30.509  35.469  12.501  1.00 34.25     0.338 C 
ATOM     12  NZ  LYS A 135      30.495  34.278  13.395  1.00 35.99     0.618 N 
ENDBRANCH  10  11
ENDBRANCH   9  10
ENDBRANCH   8   9
ENDBRANCH   7   8
END_RES LYS A 135
