REMARK VINA RESULT:    -3.697      3.297      9.819
REMARK INTER + INTRA:         -22.014
REMARK INTER:                  -9.315
REMARK INTRA:                 -12.699
REMARK UNBOUND:               -12.699
REMARK SMILES CC(=O)N[C@@H]1[C@@H](O)C[C@](OC[C@H]2O[C@@H](O[C@H]3[C@H](O)[C@@H](O)[C@H](OCCN=[N+]=[N-])O[C@@H]3CO)[C@H](O)[C@@H](O)[C@H]2O)(C(=O)O)O[C@H]1C(O)[C@H](O)CNC(=O)OCc1cn(Cc2ccc(Br)cc2)nn1
REMARK SMILES IDX 9 1 8 2 6 3 5 4 42 5 41 6 10 7 11 8 12 9 14 10 13 11 32 12
REMARK SMILES IDX 34 13 36 14 15 15 16 16 29 17 28 18 21 19 17 20 19 21 30 22
REMARK SMILES IDX 31 23 22 25 23 26 24 27 25 28 26 29 27 30 18 31 20 33 33 35
REMARK SMILES IDX 35 37 37 39 38 41 39 42 40 43 7 45 43 47 44 48 45 50 46 51
REMARK SMILES IDX 47 53 48 54 49 55 50 57 51 58 52 59 53 60 54 61 65 62 55 63
REMARK SMILES IDX 64 64 56 65 57 66 58 67 63 68 59 69 62 70 60 71 61 72 4 73
REMARK SMILES IDX 2 74 1 76 3 77
REMARK H PARENT 31 24 18 32 20 34 33 36 35 38 37 40 40 44 7 46 44 49 46 52
REMARK H PARENT 48 56 4 75
REMARK Flexibility Score: inf
ROOT
ATOM      1  C   UNL     1      28.047  31.164  16.869  1.00  0.00     0.272 C 
ATOM      2  C   UNL     1      26.993  32.095  17.348  1.00  0.00     0.113 C 
ATOM      3  C   UNL     1      26.310  32.961  16.365  1.00  0.00     0.145 C 
ATOM      4  C   UNL     1      27.096  33.150  15.040  1.00  0.00     0.142 C 
ATOM      5  C   UNL     1      28.524  33.014  15.494  1.00  0.00     0.178 C 
ATOM      6  O   UNL     1      28.657  31.609  15.682  1.00  0.00    -0.332 OA
ENDROOT
BRANCH   1   7
ATOM      7  O   UNL     1      27.861  29.849  16.902  1.00  0.00    -0.338 OA
BRANCH   7   8
ATOM      8  C   UNL     1      26.895  29.040  17.121  1.00  0.00     0.199 C 
BRANCH   8   9
ATOM      9  C   UNL     1      26.914  28.306  18.441  1.00  0.00     0.179 C 
ATOM     10  C   UNL     1      28.161  27.743  20.250  1.00  0.00     0.282 C 
ATOM     11  O   UNL     1      28.168  28.206  18.982  1.00  0.00    -0.341 OA
ATOM     12  C   UNL     1      26.861  27.139  20.747  1.00  0.00     0.202 C 
ATOM     13  C   UNL     1      25.682  28.046  20.471  1.00  0.00     0.179 C 
ATOM     14  C   UNL     1      26.071  29.104  19.449  1.00  0.00     0.177 C 
BRANCH  10  15
ATOM     15  O   UNL     1      28.618  28.561  21.229  1.00  0.00    -0.341 OA
BRANCH  15  16
ATOM     16  C   UNL     1      29.812  29.170  21.208  1.00  0.00     0.184 C 
ATOM     17  C   UNL     1      31.014  28.309  21.423  1.00  0.00     0.178 C 
ATOM     18  O   UNL     1      31.709  28.595  22.567  1.00  0.00    -0.341 OA
ATOM     19  C   UNL     1      32.227  29.881  22.619  1.00  0.00     0.281 C 
ATOM     20  C   UNL     1      29.824  30.288  22.229  1.00  0.00     0.180 C 
ATOM     21  C   UNL     1      31.195  30.915  22.214  1.00  0.00     0.202 C 
BRANCH  17  22
ATOM     22  C   UNL     1      31.894  28.365  20.196  1.00  0.00     0.191 C 
BRANCH  22  23
ATOM     23  O   UNL     1      32.179  27.073  19.709  1.00  0.00    -0.394 OA
ATOM     24  H   UNL     1      32.177  27.054  18.736  1.00  0.00     0.210 HD
ENDBRANCH  22  23
ENDBRANCH  17  22
BRANCH  19  25
ATOM     25  O   UNL     1      33.406  30.047  21.911  1.00  0.00    -0.350 OA
BRANCH  25  26
ATOM     26  C   UNL     1      34.552  29.727  22.587  1.00  0.00     0.169 C 
BRANCH  26  27
ATOM     27  C   UNL     1      34.823  30.598  23.779  1.00  0.00     0.119 C 
BRANCH  27  28
ATOM     28  N   UNL     1      35.279  31.912  23.343  1.00  0.00    -0.092 NA
ATOM     29  N   UNL     1      34.507  32.868  23.360  1.00  0.00     0.001 N 
ATOM     30  N   UNL     1      33.781  33.860  23.119  1.00  0.00    -0.003 NA
ENDBRANCH  27  28
ENDBRANCH  26  27
ENDBRANCH  25  26
ENDBRANCH  19  25
BRANCH  20  31
ATOM     31  O   UNL     1      28.920  31.264  21.764  1.00  0.00    -0.387 OA
ATOM     32  H   UNL     1      29.114  31.475  20.809  1.00  0.00     0.211 HD
ENDBRANCH  20  31
BRANCH  21  33
ATOM     33  O   UNL     1      31.262  32.053  23.011  1.00  0.00    -0.385 OA
ATOM     34  H   UNL     1      30.337  32.391  23.116  1.00  0.00     0.211 HD
ENDBRANCH  21  33
ENDBRANCH  15  16
ENDBRANCH  10  15
BRANCH  12  35
ATOM     35  O   UNL     1      26.599  25.882  20.230  1.00  0.00    -0.385 OA
ATOM     36  H   UNL     1      26.506  25.170  20.904  1.00  0.00     0.211 HD
ENDBRANCH  12  35
BRANCH  13  37
ATOM     37  O   UNL     1      25.165  28.634  21.619  1.00  0.00    -0.387 OA
ATOM     38  H   UNL     1      24.577  27.964  22.047  1.00  0.00     0.211 HD
ENDBRANCH  13  37
BRANCH  14  39
ATOM     39  O   UNL     1      26.931  30.059  20.003  1.00  0.00    -0.387 OA
ATOM     40  H   UNL     1      26.409  30.801  20.367  1.00  0.00     0.211 HD
ENDBRANCH  14  39
ENDBRANCH   8   9
ENDBRANCH   7   8
ENDBRANCH   1   7
BRANCH   1  41
ATOM     41  C   UNL     1      29.200  31.334  17.872  1.00  0.00     0.364 C 
ATOM     42  O   UNL     1      30.286  30.830  17.592  1.00  0.00    -0.246 OA
BRANCH  41  43
ATOM     43  O   UNL     1      29.060  32.019  19.049  1.00  0.00    -0.477 OA
ATOM     44  H   UNL     1      29.344  31.570  19.935  1.00  0.00     0.296 HD
ENDBRANCH  41  43
ENDBRANCH   1  41
BRANCH   3  45
ATOM     45  O   UNL     1      24.977  32.678  16.111  1.00  0.00    -0.391 OA
ATOM     46  H   UNL     1      24.443  32.988  16.873  1.00  0.00     0.211 HD
ENDBRANCH   3  45
BRANCH   5  47
ATOM     47  C   UNL     1      29.589  33.492  14.580  1.00  0.00     0.176 C 
BRANCH  47  48
ATOM     48  O   UNL     1      29.343  34.721  14.064  1.00  0.00    -0.388 OA
ATOM     49  H   UNL     1      30.140  35.176  13.768  1.00  0.00     0.211 HD
ENDBRANCH  47  48
BRANCH  47  50
ATOM     50  C   UNL     1      31.000  33.239  14.910  1.00  0.00     0.165 C 
BRANCH  50  51
ATOM     51  O   UNL     1      31.293  31.869  15.016  1.00  0.00    -0.388 OA
ATOM     52  H   UNL     1      31.694  31.602  15.856  1.00  0.00     0.211 HD
ENDBRANCH  50  51
BRANCH  50  53
ATOM     53  C   UNL     1      31.662  34.015  15.976  1.00  0.00     0.154 C 
BRANCH  53  54
ATOM     54  N   UNL     1      31.481  33.501  17.323  1.00  0.00    -0.319 N 
ATOM     55  C   UNL     1      31.531  34.350  18.459  1.00  0.00     0.407 C 
ATOM     56  H   UNL     1      31.303  32.485  17.523  1.00  0.00     0.167 HD
ATOM     57  O   UNL     1      31.725  35.598  18.308  1.00  0.00    -0.225 OA
BRANCH  55  58
ATOM     58  O   UNL     1      31.380  33.894  19.765  1.00  0.00    -0.443 OA
BRANCH  58  59
ATOM     59  C   UNL     1      31.068  34.823  20.821  1.00  0.00     0.294 C 
BRANCH  59  60
ATOM     60  C   UNL     1      29.671  34.713  21.269  1.00  0.00     0.120 A 
ATOM     61  C   UNL     1      28.594  35.352  20.686  1.00  0.00     0.138 A 
ATOM     62  N   UNL     1      29.191  34.005  22.293  1.00  0.00    -0.132 NA
ATOM     63  N   UNL     1      27.495  35.014  21.371  1.00  0.00    -0.248 N 
ATOM     64  N   UNL     1      27.886  34.203  22.333  1.00  0.00    -0.067 NA
BRANCH  63  65
ATOM     65  C   UNL     1      26.122  35.413  21.130  1.00  0.00     0.181 C 
BRANCH  65  66
ATOM     66  C   UNL     1      25.163  34.285  21.132  1.00  0.00    -0.026 A 
ATOM     67  C   UNL     1      25.103  33.475  19.994  1.00  0.00     0.007 A 
ATOM     68  C   UNL     1      24.343  33.973  22.178  1.00  0.00     0.007 A 
ATOM     69  C   UNL     1      24.233  32.399  19.950  1.00  0.00     0.016 A 
ATOM     70  C   UNL     1      23.462  32.891  22.147  1.00  0.00     0.016 A 
ATOM     71  C   UNL     1      23.415  32.107  21.027  1.00  0.00     0.017 A 
ATOM     72  Br  UNL     1      22.222  30.600  20.931  1.00  0.00    -0.051 Br
ENDBRANCH  65  66
ENDBRANCH  63  65
ENDBRANCH  59  60
ENDBRANCH  58  59
ENDBRANCH  55  58
ENDBRANCH  53  54
ENDBRANCH  50  53
ENDBRANCH  47  50
ENDBRANCH   5  47
BRANCH   4  73
ATOM     73  N   UNL     1      26.722  34.376  14.435  1.00  0.00    -0.348 N 
ATOM     74  C   UNL     1      25.733  34.407  13.421  1.00  0.00     0.217 C 
ATOM     75  H   UNL     1      27.154  35.265  14.740  1.00  0.00     0.163 HD
ATOM     76  C   UNL     1      25.265  35.613  12.734  1.00  0.00     0.114 C 
ATOM     77  O   UNL     1      25.198  33.296  13.071  1.00  0.00    -0.275 OA
ENDBRANCH   4  73
TORSDOF 31
BEGIN_RES LYS A 131
REMARK  4 active torsions:
REMARK  status: ('A' for Active; 'I' for Inactive)
REMARK    1  A    between atoms: CA   and  CB  
REMARK    2  A    between atoms: CB   and  CG  
REMARK    3  A    between atoms: CG   and  CD  
REMARK    4  A    between atoms: CD   and  CE  
ROOT
ATOM      1  CA  LYS A 131      29.867  25.555  16.977  1.00 20.52     0.186 C 
ENDROOT
BRANCH   1   2
ATOM      2  CB  LYS A 131      28.345  25.722  17.026  1.00 20.94     0.034 C 
BRANCH   2   3
ATOM      3  CG  LYS A 131      27.599  24.487  16.543  1.00 22.96     0.005 C 
BRANCH   3   4
ATOM      4  CD  LYS A 131      27.157  23.611  17.683  1.00 24.33     0.041 C 
BRANCH   4   5
ATOM      5  CE  LYS A 131      25.650  23.391  17.601  1.00 26.91     0.338 C 
ATOM      6  NZ  LYS A 131      24.979  24.595  17.055  1.00 27.40     0.618 N 
ENDBRANCH   4   5
ENDBRANCH   3   4
ENDBRANCH   2   3
ENDBRANCH   1   2
END_RES LYS A 131
BEGIN_RES LYS A 135
REMARK  4 active torsions:
REMARK  status: ('A' for Active; 'I' for Inactive)
REMARK    5  A    between atoms: CA   and  CB  
REMARK    6  A    between atoms: CB   and  CG  
REMARK    7  A    between atoms: CG   and  CD  
REMARK    8  A    between atoms: CD   and  CE  
ROOT
ATOM      7  CA  LYS A 135      33.193  34.663   9.290  1.00 25.02     0.186 C 
ENDROOT
BRANCH   7   8
ATOM      8  CB  LYS A 135      32.060  35.360  10.034  1.00 26.63     0.034 C 
BRANCH   8   9
ATOM      9  CG  LYS A 135      30.708  34.743   9.787  1.00 29.45     0.005 C 
BRANCH   9  10
ATOM     10  CD  LYS A 135      30.502  34.475   8.304  1.00 32.00     0.041 C 
BRANCH  10  11
ATOM     11  CE  LYS A 135      29.359  35.313   7.765  1.00 34.25     0.338 C 
ATOM     12  NZ  LYS A 135      28.298  35.497   8.793  1.00 35.99     0.618 N 
ENDBRANCH  10  11
ENDBRANCH   9  10
ENDBRANCH   8   9
ENDBRANCH   7   8
END_RES LYS A 135
