REMARK VINA RESULT:    -4.829      3.814     10.751
REMARK INTER + INTRA:         -24.611
REMARK INTER:                 -12.415
REMARK INTRA:                 -12.196
REMARK UNBOUND:                -9.760
REMARK SMILES CC(=O)N[C@@H]1[C@@H](O)C[C@](OC[C@H]2O[C@@H](O[C@H]3[C@H](O)[C@@H](O)[C@H](OCCN=[N+]=[N-])O[C@@H]3CO)[C@H](O)[C@@H](O)[C@H]2O)(C(=O)O)O[C@H]1C(O)[C@H](O)CNC(=O)OCc1cn(CCCCCCCCCCC(=O)O)nn1
REMARK SMILES IDX 51 1 49 2 48 3 50 5 47 6 45 7 43 8 42 9 9 10 8 11 41 12 6 13
REMARK SMILES IDX 5 14 10 15 11 16 12 17 14 18 13 19 32 20 34 21 36 22 15 23
REMARK SMILES IDX 16 24 29 25 28 26 21 27 17 28 19 29 30 30 31 31 22 33 23 34
REMARK SMILES IDX 24 35 25 36 26 37 27 38 18 39 20 41 33 43 35 45 37 47 38 49
REMARK SMILES IDX 39 50 40 51 7 53 4 55 2 56 1 58 3 59 44 60 46 62 52 64 53 65
REMARK SMILES IDX 54 66 70 67 55 68 69 69 56 70 57 71 58 72 59 73 60 74 61 75
REMARK SMILES IDX 62 76 63 77 64 78 65 79 66 80 67 81 68 82
REMARK H PARENT 48 4 31 32 18 40 20 42 33 44 35 46 37 48 40 52 7 54 4 57 44 61
REMARK H PARENT 46 63 68 83
REMARK Flexibility Score: inf
ROOT
ATOM      1  O   UNL     1      33.736  35.805  15.250  1.00  0.00    -0.443 OA
ENDROOT
BRANCH   1   2
ATOM      2  C   UNL     1      32.816  34.991  14.554  1.00  0.00     0.407 C 
ATOM      3  N   UNL     1      32.103  35.493  13.437  1.00  0.00    -0.319 N 
ATOM      4  H   UNL     1      32.269  36.492  13.144  1.00  0.00     0.167 HD
ATOM      5  O   UNL     1      32.610  33.806  14.902  1.00  0.00    -0.225 OA
BRANCH   3   6
ATOM      6  C   UNL     1      31.168  34.700  12.697  1.00  0.00     0.154 C 
BRANCH   6   7
ATOM      7  C   UNL     1      29.717  34.862  13.138  1.00  0.00     0.165 C 
BRANCH   7   8
ATOM      8  C   UNL     1      29.490  36.327  13.273  1.00  0.00     0.176 C 
BRANCH   8   9
ATOM      9  C   UNL     1      28.207  36.741  13.955  1.00  0.00     0.178 C 
ATOM     10  C   UNL     1      27.308  36.908  16.093  1.00  0.00     0.272 C 
ATOM     11  C   UNL     1      25.990  36.489  15.476  1.00  0.00     0.113 C 
ATOM     12  O   UNL     1      28.316  36.425  15.280  1.00  0.00    -0.332 OA
ATOM     13  C   UNL     1      26.136  35.553  14.319  1.00  0.00     0.145 C 
ATOM     14  C   UNL     1      26.987  36.222  13.260  1.00  0.00     0.142 C 
BRANCH  10  15
ATOM     15  O   UNL     1      27.435  36.385  17.391  1.00  0.00    -0.338 OA
BRANCH  15  16
ATOM     16  C   UNL     1      26.293  35.999  18.007  1.00  0.00     0.199 C 
BRANCH  16  17
ATOM     17  C   UNL     1      26.719  35.084  19.175  1.00  0.00     0.179 C 
ATOM     18  C   UNL     1      28.246  33.491  18.320  1.00  0.00     0.282 C 
ATOM     19  O   UNL     1      27.025  33.838  18.793  1.00  0.00    -0.341 OA
ATOM     20  C   UNL     1      29.307  34.491  18.586  1.00  0.00     0.202 C 
ATOM     21  C   UNL     1      29.084  35.090  19.969  1.00  0.00     0.179 C 
ATOM     22  C   UNL     1      27.742  35.791  20.036  1.00  0.00     0.177 C 
BRANCH  18  23
ATOM     23  O   UNL     1      28.076  33.193  16.944  1.00  0.00    -0.341 OA
BRANCH  23  24
ATOM     24  C   UNL     1      27.832  31.829  16.845  1.00  0.00     0.184 C 
ATOM     25  C   UNL     1      28.792  31.072  15.988  1.00  0.00     0.178 C 
ATOM     26  O   UNL     1      28.374  29.786  15.812  1.00  0.00    -0.341 OA
ATOM     27  C   UNL     1      27.339  29.290  16.512  1.00  0.00     0.281 C 
ATOM     28  C   UNL     1      26.440  31.598  16.234  1.00  0.00     0.180 C 
ATOM     29  C   UNL     1      26.099  30.153  16.516  1.00  0.00     0.202 C 
BRANCH  25  30
ATOM     30  C   UNL     1      30.216  31.083  16.513  1.00  0.00     0.191 C 
BRANCH  30  31
ATOM     31  O   UNL     1      30.883  32.257  16.278  1.00  0.00    -0.394 OA
ATOM     32  H   UNL     1      30.691  32.548  15.349  1.00  0.00     0.210 HD
ENDBRANCH  30  31
ENDBRANCH  25  30
BRANCH  27  33
ATOM     33  O   UNL     1      27.712  29.067  17.831  1.00  0.00    -0.350 OA
BRANCH  33  34
ATOM     34  C   UNL     1      27.190  27.874  18.330  1.00  0.00     0.169 C 
BRANCH  34  35
ATOM     35  C   UNL     1      26.304  28.099  19.522  1.00  0.00     0.119 C 
BRANCH  35  36
ATOM     36  N   UNL     1      25.128  27.235  19.399  1.00  0.00    -0.092 NA
ATOM     37  N   UNL     1      24.385  27.309  18.396  1.00  0.00     0.001 N 
ATOM     38  N   UNL     1      23.826  27.606  17.318  1.00  0.00    -0.003 NA
ENDBRANCH  35  36
ENDBRANCH  34  35
ENDBRANCH  33  34
ENDBRANCH  27  33
BRANCH  28  39
ATOM     39  O   UNL     1      25.478  32.421  16.779  1.00  0.00    -0.387 OA
ATOM     40  H   UNL     1      25.850  33.214  17.241  1.00  0.00     0.211 HD
ENDBRANCH  28  39
BRANCH  29  41
ATOM     41  O   UNL     1      25.276  29.711  15.484  1.00  0.00    -0.385 OA
ATOM     42  H   UNL     1      24.947  28.794  15.738  1.00  0.00     0.211 HD
ENDBRANCH  29  41
ENDBRANCH  23  24
ENDBRANCH  18  23
BRANCH  20  43
ATOM     43  O   UNL     1      30.585  33.920  18.647  1.00  0.00    -0.385 OA
ATOM     44  H   UNL     1      30.446  32.936  18.513  1.00  0.00     0.211 HD
ENDBRANCH  20  43
BRANCH  21  45
ATOM     45  O   UNL     1      30.097  35.994  20.282  1.00  0.00    -0.387 OA
ATOM     46  H   UNL     1      30.933  35.618  19.905  1.00  0.00     0.211 HD
ENDBRANCH  21  45
BRANCH  22  47
ATOM     47  O   UNL     1      27.919  37.083  19.606  1.00  0.00    -0.387 OA
ATOM     48  H   UNL     1      27.149  37.625  19.914  1.00  0.00     0.211 HD
ENDBRANCH  22  47
ENDBRANCH  16  17
ENDBRANCH  15  16
ENDBRANCH  10  15
BRANCH  10  49
ATOM     49  C   UNL     1      27.401  38.360  16.263  1.00  0.00     0.364 C 
ATOM     50  O   UNL     1      28.120  38.894  17.123  1.00  0.00    -0.246 OA
BRANCH  49  51
ATOM     51  O   UNL     1      26.672  39.211  15.448  1.00  0.00    -0.477 OA
ATOM     52  H   UNL     1      26.119  39.986  15.823  1.00  0.00     0.296 HD
ENDBRANCH  49  51
ENDBRANCH  10  49
BRANCH  13  53
ATOM     53  O   UNL     1      26.576  34.285  14.629  1.00  0.00    -0.391 OA
ATOM     54  H   UNL     1      25.886  33.574  14.495  1.00  0.00     0.211 HD
ENDBRANCH  13  53
BRANCH  14  55
ATOM     55  N   UNL     1      26.180  37.212  12.627  1.00  0.00    -0.348 N 
ATOM     56  C   UNL     1      25.490  37.021  11.397  1.00  0.00     0.217 C 
ATOM     57  H   UNL     1      26.061  38.159  13.063  1.00  0.00     0.163 HD
ATOM     58  C   UNL     1      24.673  38.095  10.804  1.00  0.00     0.114 C 
ATOM     59  O   UNL     1      25.599  35.914  10.839  1.00  0.00    -0.275 OA
ENDBRANCH  14  55
ENDBRANCH   8   9
BRANCH   8  60
ATOM     60  O   UNL     1      29.709  36.927  12.063  1.00  0.00    -0.388 OA
ATOM     61  H   UNL     1      29.845  37.887  12.091  1.00  0.00     0.211 HD
ENDBRANCH   8  60
ENDBRANCH   7   8
BRANCH   7  62
ATOM     62  O   UNL     1      29.570  34.138  14.316  1.00  0.00    -0.388 OA
ATOM     63  H   UNL     1      28.635  34.133  14.636  1.00  0.00     0.211 HD
ENDBRANCH   7  62
ENDBRANCH   6   7
ENDBRANCH   3   6
ENDBRANCH   1   2
BRANCH   1  64
ATOM     64  C   UNL     1      33.176  36.795  16.124  1.00  0.00     0.294 C 
BRANCH  64  65
ATOM     65  C   UNL     1      33.381  36.318  17.508  1.00  0.00     0.120 A 
ATOM     66  C   UNL     1      34.611  36.035  18.075  1.00  0.00     0.138 A 
ATOM     67  N   UNL     1      32.456  36.086  18.449  1.00  0.00    -0.132 NA
ATOM     68  N   UNL     1      34.365  35.643  19.339  1.00  0.00    -0.252 N 
ATOM     69  N   UNL     1      33.034  35.682  19.545  1.00  0.00    -0.067 NA
BRANCH  68  70
ATOM     70  C   UNL     1      35.292  35.243  20.351  1.00  0.00     0.146 C 
BRANCH  70  71
ATOM     71  C   UNL     1      36.716  35.606  20.112  1.00  0.00     0.024 C 
BRANCH  71  72
ATOM     72  C   UNL     1      37.733  34.619  20.566  1.00  0.00     0.002 C 
BRANCH  72  73
ATOM     73  C   UNL     1      37.500  33.208  20.152  1.00  0.00     0.000 C 
BRANCH  73  74
ATOM     74  C   UNL     1      38.636  32.542  19.456  1.00  0.00     0.000 C 
BRANCH  74  75
ATOM     75  C   UNL     1      39.270  33.488  18.474  1.00  0.00     0.000 C 
BRANCH  75  76
ATOM     76  C   UNL     1      38.621  33.449  17.107  1.00  0.00     0.000 C 
BRANCH  76  77
ATOM     77  C   UNL     1      38.101  34.775  16.658  1.00  0.00     0.001 C 
BRANCH  77  78
ATOM     78  C   UNL     1      38.295  35.065  15.202  1.00  0.00     0.012 C 
BRANCH  78  79
ATOM     79  C   UNL     1      37.199  34.358  14.425  1.00  0.00     0.122 C 
BRANCH  79  80
ATOM     80  C   UNL     1      37.817  33.479  13.417  1.00  0.00     0.303 C 
ATOM     81  O   UNL     1      38.366  33.960  12.404  1.00  0.00    -0.252 OA
BRANCH  80  82
ATOM     82  O   UNL     1      37.809  32.099  13.558  1.00  0.00    -0.481 OA
ATOM     83  H   UNL     1      38.137  31.484  12.836  1.00  0.00     0.296 HD
ENDBRANCH  80  82
ENDBRANCH  79  80
ENDBRANCH  78  79
ENDBRANCH  77  78
ENDBRANCH  76  77
ENDBRANCH  75  76
ENDBRANCH  74  75
ENDBRANCH  73  74
ENDBRANCH  72  73
ENDBRANCH  71  72
ENDBRANCH  70  71
ENDBRANCH  68  70
ENDBRANCH  64  65
ENDBRANCH   1  64
TORSDOF 41
BEGIN_RES LYS A 131
REMARK  4 active torsions:
REMARK  status: ('A' for Active; 'I' for Inactive)
REMARK    1  A    between atoms: CA   and  CB  
REMARK    2  A    between atoms: CB   and  CG  
REMARK    3  A    between atoms: CG   and  CD  
REMARK    4  A    between atoms: CD   and  CE  
ROOT
ATOM      1  CA  LYS A 131      29.867  25.555  16.977  1.00 20.52     0.186 C 
ENDROOT
BRANCH   1   2
ATOM      2  CB  LYS A 131      28.345  25.722  17.026  1.00 20.94     0.034 C 
BRANCH   2   3
ATOM      3  CG  LYS A 131      27.601  24.403  16.886  1.00 22.96     0.005 C 
BRANCH   3   4
ATOM      4  CD  LYS A 131      26.566  24.220  17.962  1.00 24.33     0.041 C 
BRANCH   4   5
ATOM      5  CE  LYS A 131      25.211  23.939  17.321  1.00 26.91     0.338 C 
ATOM      6  NZ  LYS A 131      24.850  22.510  17.475  1.00 27.40     0.618 N 
ENDBRANCH   4   5
ENDBRANCH   3   4
ENDBRANCH   2   3
ENDBRANCH   1   2
END_RES LYS A 131
BEGIN_RES LYS A 135
REMARK  4 active torsions:
REMARK  status: ('A' for Active; 'I' for Inactive)
REMARK    5  A    between atoms: CA   and  CB  
REMARK    6  A    between atoms: CB   and  CG  
REMARK    7  A    between atoms: CG   and  CD  
REMARK    8  A    between atoms: CD   and  CE  
ROOT
ATOM      7  CA  LYS A 135      33.193  34.663   9.290  1.00 25.02     0.186 C 
ENDROOT
BRANCH   7   8
ATOM      8  CB  LYS A 135      32.060  35.360  10.034  1.00 26.63     0.034 C 
BRANCH   8   9
ATOM      9  CG  LYS A 135      30.797  35.490   9.223  1.00 29.45     0.005 C 
BRANCH   9  10
ATOM     10  CD  LYS A 135      30.137  34.132   9.037  1.00 32.00     0.041 C 
BRANCH  10  11
ATOM     11  CE  LYS A 135      28.714  34.155   9.561  1.00 34.25     0.338 C 
ATOM     12  NZ  LYS A 135      27.752  34.525   8.485  1.00 35.99     0.618 N 
ENDBRANCH  10  11
ENDBRANCH   9  10
ENDBRANCH   8   9
ENDBRANCH   7   8
END_RES LYS A 135
