REMARK VINA RESULT:    -5.662      2.996      6.317
REMARK INTER + INTRA:         -21.845
REMARK INTER:                 -13.012
REMARK INTRA:                  -8.832
REMARK UNBOUND:                -7.575
REMARK SMILES CC(=O)N[C@@H]1[C@@H](O)C[C@](OC[C@H]2O[C@@H](O[C@H]3[C@H](O)[C@@H](O)[C@H](OCCN=[N+]=[N-])O[C@@H]3CO)[C@H](O)[C@@H](O)[C@H]2O)(C(=O)O)O[C@H]1C(O)[C@H](O)CNC(=O)OCc1cn(Cc2ccccc2Br)nn1
REMARK SMILES IDX 9 1 8 2 6 3 5 4 42 5 41 6 10 7 11 8 12 9 14 10 13 11 32 12
REMARK SMILES IDX 34 13 36 14 15 15 16 16 29 17 28 18 21 19 17 20 19 21 30 22
REMARK SMILES IDX 31 23 22 25 23 26 24 27 25 28 26 29 27 30 18 31 20 33 33 35
REMARK SMILES IDX 35 37 37 39 38 41 39 42 40 43 7 45 43 47 44 48 45 50 46 51
REMARK SMILES IDX 47 53 48 54 49 55 50 57 51 58 52 59 53 60 54 61 65 62 55 63
REMARK SMILES IDX 64 64 56 65 57 66 58 67 62 68 59 69 61 70 63 71 60 72 4 73
REMARK SMILES IDX 2 74 1 76 3 77
REMARK H PARENT 31 24 18 32 20 34 33 36 35 38 37 40 40 44 7 46 44 49 46 52
REMARK H PARENT 48 56 4 75
REMARK Flexibility Score: inf
ROOT
ATOM      1  C   UNL     1      28.817  34.749  13.682  1.00  0.00     0.272 C 
ATOM      2  C   UNL     1      29.898  34.896  12.685  1.00  0.00     0.113 C 
ATOM      3  C   UNL     1      31.180  35.297  13.322  1.00  0.00     0.145 C 
ATOM      4  C   UNL     1      31.550  34.288  14.372  1.00  0.00     0.142 C 
ATOM      5  C   UNL     1      30.395  33.710  15.094  1.00  0.00     0.178 C 
ATOM      6  O   UNL     1      29.230  33.548  14.431  1.00  0.00    -0.332 OA
ENDROOT
BRANCH   1   7
ATOM      7  O   UNL     1      27.609  34.414  13.193  1.00  0.00    -0.338 OA
BRANCH   7   8
ATOM      8  C   UNL     1      26.431  34.882  13.455  1.00  0.00     0.199 C 
BRANCH   8   9
ATOM      9  C   UNL     1      25.355  35.313  12.560  1.00  0.00     0.179 C 
ATOM     10  C   UNL     1      24.580  35.805  10.458  1.00  0.00     0.282 C 
ATOM     11  O   UNL     1      25.491  35.015  11.200  1.00  0.00    -0.341 OA
ATOM     12  C   UNL     1      23.234  35.155  10.619  1.00  0.00     0.202 C 
ATOM     13  C   UNL     1      22.917  34.900  12.052  1.00  0.00     0.179 C 
ATOM     14  C   UNL     1      23.956  35.312  13.057  1.00  0.00     0.177 C 
BRANCH  10  15
ATOM     15  O   UNL     1      25.030  35.813   9.173  1.00  0.00    -0.341 OA
BRANCH  15  16
ATOM     16  C   UNL     1      25.689  36.919   8.727  1.00  0.00     0.184 C 
ATOM     17  C   UNL     1      25.810  38.048   9.690  1.00  0.00     0.178 C 
ATOM     18  O   UNL     1      25.414  39.217   9.046  1.00  0.00    -0.341 OA
ATOM     19  C   UNL     1      24.035  39.050   8.759  1.00  0.00     0.281 C 
ATOM     20  C   UNL     1      25.178  37.418   7.384  1.00  0.00     0.180 C 
ATOM     21  C   UNL     1      23.875  38.175   7.545  1.00  0.00     0.202 C 
BRANCH  17  22
ATOM     22  C   UNL     1      27.253  38.274  10.138  1.00  0.00     0.191 C 
BRANCH  22  23
ATOM     23  O   UNL     1      27.836  37.070  10.536  1.00  0.00    -0.394 OA
ATOM     24  H   UNL     1      27.604  36.323   9.939  1.00  0.00     0.210 HD
ENDBRANCH  22  23
ENDBRANCH  17  22
BRANCH  19  25
ATOM     25  O   UNL     1      23.529  40.335   8.583  1.00  0.00    -0.350 OA
BRANCH  25  26
ATOM     26  C   UNL     1      22.835  40.777   9.710  1.00  0.00     0.169 C 
BRANCH  26  27
ATOM     27  C   UNL     1      21.508  41.348   9.241  1.00  0.00     0.119 C 
BRANCH  27  28
ATOM     28  N   UNL     1      20.924  40.415   8.311  1.00  0.00    -0.092 NA
ATOM     29  N   UNL     1      20.370  39.379   8.691  1.00  0.00     0.001 N 
ATOM     30  N   UNL     1      20.248  38.222   9.143  1.00  0.00    -0.003 NA
ENDBRANCH  27  28
ENDBRANCH  26  27
ENDBRANCH  25  26
ENDBRANCH  19  25
BRANCH  20  31
ATOM     31  O   UNL     1      26.082  38.316   6.813  1.00  0.00    -0.387 OA
ATOM     32  H   UNL     1      25.532  39.024   6.373  1.00  0.00     0.211 HD
ENDBRANCH  20  31
BRANCH  21  33
ATOM     33  O   UNL     1      22.775  37.358   7.579  1.00  0.00    -0.385 OA
ATOM     34  H   UNL     1      21.969  37.879   7.352  1.00  0.00     0.211 HD
ENDBRANCH  21  33
ENDBRANCH  15  16
ENDBRANCH  10  15
BRANCH  12  35
ATOM     35  O   UNL     1      22.209  35.980  10.129  1.00  0.00    -0.385 OA
ATOM     36  H   UNL     1      22.583  36.465   9.358  1.00  0.00     0.211 HD
ENDBRANCH  12  35
BRANCH  13  37
ATOM     37  O   UNL     1      22.667  33.531  12.225  1.00  0.00    -0.387 OA
ATOM     38  H   UNL     1      23.453  33.048  12.549  1.00  0.00     0.211 HD
ENDBRANCH  13  37
BRANCH  14  39
ATOM     39  O   UNL     1      23.773  34.506  14.171  1.00  0.00    -0.387 OA
ATOM     40  H   UNL     1      24.492  33.893  14.378  1.00  0.00     0.211 HD
ENDBRANCH  14  39
ENDBRANCH   8   9
ENDBRANCH   7   8
ENDBRANCH   1   7
BRANCH   1  41
ATOM     41  C   UNL     1      28.754  35.732  14.783  1.00  0.00     0.364 C 
ATOM     42  O   UNL     1      28.436  35.498  15.971  1.00  0.00    -0.246 OA
BRANCH  41  43
ATOM     43  O   UNL     1      29.063  37.054  14.509  1.00  0.00    -0.477 OA
ATOM     44  H   UNL     1      29.823  37.540  14.986  1.00  0.00     0.296 HD
ENDBRANCH  41  43
ENDBRANCH   1  41
BRANCH   3  45
ATOM     45  O   UNL     1      32.157  35.222  12.276  1.00  0.00    -0.391 OA
ATOM     46  H   UNL     1      32.138  36.031  11.728  1.00  0.00     0.211 HD
ENDBRANCH   3  45
BRANCH   5  47
ATOM     47  C   UNL     1      30.777  32.331  15.642  1.00  0.00     0.176 C 
BRANCH  47  48
ATOM     48  O   UNL     1      29.927  31.405  15.056  1.00  0.00    -0.388 OA
ATOM     49  H   UNL     1      30.029  30.503  15.406  1.00  0.00     0.211 HD
ENDBRANCH  47  48
BRANCH  47  50
ATOM     50  C   UNL     1      30.657  32.247  17.123  1.00  0.00     0.165 C 
BRANCH  50  51
ATOM     51  O   UNL     1      30.467  30.925  17.562  1.00  0.00    -0.388 OA
ATOM     52  H   UNL     1      29.615  30.566  17.206  1.00  0.00     0.211 HD
ENDBRANCH  50  51
BRANCH  50  53
ATOM     53  C   UNL     1      29.449  33.009  17.602  1.00  0.00     0.154 C 
BRANCH  53  54
ATOM     54  N   UNL     1      28.261  32.482  17.031  1.00  0.00    -0.319 N 
ATOM     55  C   UNL     1      27.441  31.518  17.652  1.00  0.00     0.407 C 
ATOM     56  H   UNL     1      27.977  32.840  16.072  1.00  0.00     0.167 HD
ATOM     57  O   UNL     1      27.718  31.054  18.786  1.00  0.00    -0.225 OA
BRANCH  55  58
ATOM     58  O   UNL     1      26.281  31.036  17.031  1.00  0.00    -0.443 OA
BRANCH  58  59
ATOM     59  C   UNL     1      25.396  31.890  16.356  1.00  0.00     0.294 C 
BRANCH  59  60
ATOM     60  C   UNL     1      24.876  31.344  15.082  1.00  0.00     0.120 A 
ATOM     61  C   UNL     1      24.336  30.055  14.947  1.00  0.00     0.138 A 
ATOM     62  N   UNL     1      24.803  31.892  13.866  1.00  0.00    -0.132 NA
ATOM     63  N   UNL     1      23.970  29.892  13.680  1.00  0.00    -0.248 N 
ATOM     64  N   UNL     1      24.264  31.026  13.035  1.00  0.00    -0.067 NA
BRANCH  63  65
ATOM     65  C   UNL     1      23.346  28.736  13.037  1.00  0.00     0.182 C 
BRANCH  65  66
ATOM     66  C   UNL     1      21.870  28.751  13.101  1.00  0.00    -0.012 A 
ATOM     67  C   UNL     1      21.192  29.462  12.097  1.00  0.00     0.007 A 
ATOM     68  C   UNL     1      21.132  28.145  14.081  1.00  0.00     0.023 A 
ATOM     69  C   UNL     1      19.833  29.526  12.134  1.00  0.00     0.000 A 
ATOM     70  C   UNL     1      19.749  28.220  14.106  1.00  0.00     0.016 A 
ATOM     71  Br  UNL     1      21.983  27.117  15.433  1.00  0.00    -0.050 Br
ATOM     72  C   UNL     1      19.104  28.918  13.120  1.00  0.00     0.001 A 
ENDBRANCH  65  66
ENDBRANCH  63  65
ENDBRANCH  59  60
ENDBRANCH  58  59
ENDBRANCH  55  58
ENDBRANCH  53  54
ENDBRANCH  50  53
ENDBRANCH  47  50
ENDBRANCH   5  47
BRANCH   4  73
ATOM     73  N   UNL     1      32.467  34.895  15.301  1.00  0.00    -0.348 N 
ATOM     74  C   UNL     1      33.867  35.022  15.054  1.00  0.00     0.217 C 
ATOM     75  H   UNL     1      32.150  35.278  16.217  1.00  0.00     0.163 HD
ATOM     76  C   UNL     1      34.763  35.663  16.067  1.00  0.00     0.114 C 
ATOM     77  O   UNL     1      34.314  34.587  13.984  1.00  0.00    -0.275 OA
ENDBRANCH   4  73
TORSDOF 31
BEGIN_RES LYS A 131
REMARK  4 active torsions:
REMARK  status: ('A' for Active; 'I' for Inactive)
REMARK    1  A    between atoms: CA   and  CB  
REMARK    2  A    between atoms: CB   and  CG  
REMARK    3  A    between atoms: CG   and  CD  
REMARK    4  A    between atoms: CD   and  CE  
ROOT
ATOM      1  CA  LYS A 131      29.867  25.555  16.977  1.00 20.52     0.186 C 
ENDROOT
BRANCH   1   2
ATOM      2  CB  LYS A 131      28.345  25.722  17.026  1.00 20.94     0.034 C 
BRANCH   2   3
ATOM      3  CG  LYS A 131      27.599  24.456  16.633  1.00 22.96     0.005 C 
BRANCH   3   4
ATOM      4  CD  LYS A 131      27.121  23.685  17.832  1.00 24.33     0.041 C 
BRANCH   4   5
ATOM      5  CE  LYS A 131      25.659  23.297  17.637  1.00 26.91     0.338 C 
ATOM      6  NZ  LYS A 131      24.924  24.377  16.937  1.00 27.40     0.618 N 
ENDBRANCH   4   5
ENDBRANCH   3   4
ENDBRANCH   2   3
ENDBRANCH   1   2
END_RES LYS A 131
BEGIN_RES LYS A 135
REMARK  4 active torsions:
REMARK  status: ('A' for Active; 'I' for Inactive)
REMARK    5  A    between atoms: CA   and  CB  
REMARK    6  A    between atoms: CB   and  CG  
REMARK    7  A    between atoms: CG   and  CD  
REMARK    8  A    between atoms: CD   and  CE  
ROOT
ATOM      7  CA  LYS A 135      33.193  34.663   9.290  1.00 25.02     0.186 C 
ENDROOT
BRANCH   7   8
ATOM      8  CB  LYS A 135      32.060  35.360  10.034  1.00 26.63     0.034 C 
BRANCH   8   9
ATOM      9  CG  LYS A 135      30.875  35.682   9.161  1.00 29.45     0.005 C 
BRANCH   9  10
ATOM     10  CD  LYS A 135      30.358  34.428   8.473  1.00 32.00     0.041 C 
BRANCH  10  11
ATOM     11  CE  LYS A 135      28.844  34.453   8.386  1.00 34.25     0.338 C 
ATOM     12  NZ  LYS A 135      28.228  33.789   9.567  1.00 35.99     0.618 N 
ENDBRANCH  10  11
ENDBRANCH   9  10
ENDBRANCH   8   9
ENDBRANCH   7   8
END_RES LYS A 135
