REMARK VINA RESULT:    -6.516      2.441      3.600
REMARK INTER + INTRA:         -19.346
REMARK INTER:                 -10.411
REMARK INTRA:                  -8.935
REMARK UNBOUND:                -1.022
REMARK SMILES CC(=O)N[C@@H]1[C@@H](O)C[C@](OC[C@H]2O[C@@H](O[C@H]3[C@H](O)[C@@H](O)[C@H](OCCN=[N+]=[N-])O[C@@H]3CO)[C@H](O)[C@@H](O)[C@H]2O)(C(=O)O)O[C@H]1C(O)[C@H](O)CNC(=O)OCc1cn(C2CC(O)C=C[C@@H](O)C2)nn1
REMARK SMILES IDX 43 1 42 2 9 3 8 4 41 5 6 6 5 7 10 8 11 9 12 10 14 11 13 12
REMARK SMILES IDX 32 13 34 14 36 15 15 16 16 17 29 18 28 19 21 20 17 21 19 22
REMARK SMILES IDX 30 23 31 24 22 26 23 27 24 28 25 29 26 30 27 31 18 32 20 34
REMARK SMILES IDX 33 36 35 38 37 40 38 42 39 43 40 44 7 46 4 48 2 49 1 51 3 52
REMARK SMILES IDX 44 53 45 55 46 56 47 58 48 59 49 60 50 62 51 63 52 64 53 65
REMARK SMILES IDX 54 66 66 67 55 68 65 69 56 70 57 71 58 72 59 74 64 76 62 77
REMARK SMILES IDX 61 78 60 79 63 81
REMARK H PARENT 31 25 18 33 20 35 33 37 35 39 37 41 40 45 7 47 4 50 44 54
REMARK H PARENT 46 57 48 61 59 75 63 82
REMARK Flexibility Score: 90.00
ROOT
ATOM      1  C   UNL     1      22.362  37.477   9.267  1.00  0.00     0.176 C 
ENDROOT
BRANCH   1   2
ATOM      2  C   UNL     1      23.715  38.155   9.389  1.00  0.00     0.178 C 
ATOM      3  C   UNL     1      25.968  37.505   9.195  1.00  0.00     0.272 C 
ATOM      4  C   UNL     1      26.424  38.713   9.929  1.00  0.00     0.113 C 
ATOM      5  O   UNL     1      24.686  37.117   9.291  1.00  0.00    -0.332 OA
ATOM      6  C   UNL     1      25.341  39.648  10.327  1.00  0.00     0.145 C 
ATOM      7  C   UNL     1      24.031  38.858  10.637  1.00  0.00     0.142 C 
BRANCH   3   8
ATOM      8  O   UNL     1      26.854  36.452   9.501  1.00  0.00    -0.338 OA
BRANCH   8   9
ATOM      9  C   UNL     1      26.257  35.248   9.733  1.00  0.00     0.199 C 
BRANCH   9  10
ATOM     10  C   UNL     1      26.780  34.617  11.024  1.00  0.00     0.179 C 
ATOM     11  C   UNL     1      27.942  35.492  12.818  1.00  0.00     0.282 C 
ATOM     12  O   UNL     1      27.858  35.336  11.433  1.00  0.00    -0.341 OA
ATOM     13  C   UNL     1      26.738  36.344  13.176  1.00  0.00     0.202 C 
ATOM     14  C   UNL     1      25.535  35.435  13.060  1.00  0.00     0.179 C 
ATOM     15  C   UNL     1      25.693  34.379  12.014  1.00  0.00     0.177 C 
BRANCH  11  16
ATOM     16  O   UNL     1      29.148  36.071  13.131  1.00  0.00    -0.341 OA
BRANCH  16  17
ATOM     17  C   UNL     1      29.994  35.116  13.702  1.00  0.00     0.184 C 
ATOM     18  C   UNL     1      29.440  34.654  15.026  1.00  0.00     0.178 C 
ATOM     19  O   UNL     1      29.601  35.544  16.057  1.00  0.00    -0.341 OA
ATOM     20  C   UNL     1      30.378  36.655  15.735  1.00  0.00     0.281 C 
ATOM     21  C   UNL     1      31.419  35.588  13.805  1.00  0.00     0.180 C 
ATOM     22  C   UNL     1      31.709  36.199  15.149  1.00  0.00     0.202 C 
BRANCH  18  23
ATOM     23  C   UNL     1      30.023  33.301  15.411  1.00  0.00     0.191 C 
BRANCH  23  24
ATOM     24  O   UNL     1      30.489  32.602  14.314  1.00  0.00    -0.394 OA
ATOM     25  H   UNL     1      30.092  31.721  14.224  1.00  0.00     0.210 HD
ENDBRANCH  23  24
ENDBRANCH  18  23
BRANCH  20  26
ATOM     26  O   UNL     1      30.587  37.337  16.929  1.00  0.00    -0.350 OA
BRANCH  26  27
ATOM     27  C   UNL     1      29.628  38.337  17.042  1.00  0.00     0.169 C 
BRANCH  27  28
ATOM     28  C   UNL     1      29.289  38.933  15.687  1.00  0.00     0.119 C 
BRANCH  28  29
ATOM     29  N   UNL     1      30.431  39.629  15.130  1.00  0.00    -0.092 NA
ATOM     30  N   UNL     1      30.756  39.402  13.953  1.00  0.00     0.001 N 
ATOM     31  N   UNL     1      31.036  39.014  12.810  1.00  0.00    -0.003 NA
ENDBRANCH  28  29
ENDBRANCH  27  28
ENDBRANCH  26  27
ENDBRANCH  20  26
BRANCH  21  32
ATOM     32  O   UNL     1      32.297  34.531  13.566  1.00  0.00    -0.387 OA
ATOM     33  H   UNL     1      31.819  33.703  13.317  1.00  0.00     0.211 HD
ENDBRANCH  21  32
BRANCH  22  34
ATOM     34  O   UNL     1      32.561  37.291  15.028  1.00  0.00    -0.385 OA
ATOM     35  H   UNL     1      32.976  37.512  15.902  1.00  0.00     0.211 HD
ENDBRANCH  22  34
ENDBRANCH  16  17
ENDBRANCH  11  16
BRANCH  13  36
ATOM     36  O   UNL     1      26.794  36.905  14.423  1.00  0.00    -0.385 OA
ATOM     37  H   UNL     1      27.199  36.354  15.111  1.00  0.00     0.211 HD
ENDBRANCH  13  36
BRANCH  14  38
ATOM     38  O   UNL     1      24.432  36.259  12.837  1.00  0.00    -0.387 OA
ATOM     39  H   UNL     1      24.575  36.837  12.037  1.00  0.00     0.211 HD
ENDBRANCH  14  38
BRANCH  15  40
ATOM     40  O   UNL     1      24.495  34.241  11.285  1.00  0.00    -0.387 OA
ATOM     41  H   UNL     1      24.267  33.322  11.083  1.00  0.00     0.211 HD
ENDBRANCH  15  40
ENDBRANCH   9  10
ENDBRANCH   8   9
ENDBRANCH   3   8
BRANCH   3  42
ATOM     42  C   UNL     1      26.212  37.799   7.730  1.00  0.00     0.364 C 
ATOM     43  O   UNL     1      26.935  38.756   7.345  1.00  0.00    -0.246 OA
BRANCH  42  44
ATOM     44  O   UNL     1      25.606  36.970   6.801  1.00  0.00    -0.477 OA
ATOM     45  H   UNL     1      25.841  35.979   6.746  1.00  0.00     0.296 HD
ENDBRANCH  42  44
ENDBRANCH   3  42
BRANCH   6  46
ATOM     46  O   UNL     1      25.697  40.412  11.411  1.00  0.00    -0.391 OA
ATOM     47  H   UNL     1      26.219  39.876  12.046  1.00  0.00     0.211 HD
ENDBRANCH   6  46
BRANCH   7  48
ATOM     48  N   UNL     1      23.108  39.736  11.246  1.00  0.00    -0.348 N 
ATOM     49  C   UNL     1      22.439  39.354  12.437  1.00  0.00     0.217 C 
ATOM     50  H   UNL     1      22.926  40.679  10.858  1.00  0.00     0.163 HD
ATOM     51  C   UNL     1      21.464  40.261  13.096  1.00  0.00     0.114 C 
ATOM     52  O   UNL     1      22.672  38.231  12.945  1.00  0.00    -0.275 OA
ENDBRANCH   7  48
ENDBRANCH   1   2
BRANCH   1  53
ATOM     53  O   UNL     1      22.440  36.535  10.386  1.00  0.00    -0.388 OA
ATOM     54  H   UNL     1      21.767  35.807  10.206  1.00  0.00     0.211 HD
ENDBRANCH   1  53
BRANCH   1  55
ATOM     55  C   UNL     1      22.246  36.536   8.102  1.00  0.00     0.165 C 
BRANCH  55  56
ATOM     56  O   UNL     1      22.708  37.093   6.934  1.00  0.00    -0.388 OA
ATOM     57  H   UNL     1      23.199  37.936   7.058  1.00  0.00     0.211 HD
ENDBRANCH  55  56
BRANCH  55  58
ATOM     58  C   UNL     1      20.789  36.159   7.855  1.00  0.00     0.154 C 
BRANCH  58  59
ATOM     59  N   UNL     1      20.207  35.367   8.890  1.00  0.00    -0.319 N 
ATOM     60  C   UNL     1      19.106  34.494   8.671  1.00  0.00     0.407 C 
ATOM     61  H   UNL     1      20.601  35.419   9.877  1.00  0.00     0.167 HD
ATOM     62  O   UNL     1      18.644  34.443   7.495  1.00  0.00    -0.225 OA
BRANCH  60  63
ATOM     63  O   UNL     1      18.588  33.752   9.707  1.00  0.00    -0.443 OA
BRANCH  63  64
ATOM     64  C   UNL     1      18.404  34.334  10.995  1.00  0.00     0.294 C 
BRANCH  64  65
ATOM     65  C   UNL     1      19.083  33.468  11.984  1.00  0.00     0.120 A 
ATOM     66  C   UNL     1      20.428  33.276  12.166  1.00  0.00     0.138 A 
ATOM     67  N   UNL     1      18.465  32.695  12.895  1.00  0.00    -0.132 NA
ATOM     68  N   UNL     1      20.580  32.389  13.182  1.00  0.00    -0.249 N 
ATOM     69  N   UNL     1      19.376  32.058  13.599  1.00  0.00    -0.067 NA
BRANCH  68  70
ATOM     70  C   UNL     1      21.852  31.883  13.718  1.00  0.00     0.115 C 
BRANCH  70  71
ATOM     71  C   UNL     1      22.457  30.959  12.716  1.00  0.00     0.063 C 
BRANCH  71  72
ATOM     72  C   UNL     1      23.377  29.972  13.442  1.00  0.00     0.139 CG0
ATOM     73  G   UNL     1      24.614  30.667  13.831  1.00  0.00     0.000 G0
BRANCH  72  74
ATOM     74  O   UNL     1      23.644  28.880  12.619  1.00  0.00    -0.389 OA
ATOM     75  H   UNL     1      23.885  29.231  11.715  1.00  0.00     0.211 HD
ENDBRANCH  72  74
ENDBRANCH  71  72
ENDBRANCH  70  71
BRANCH  70  76
ATOM     76  C   UNL     1      22.747  33.050  13.995  1.00  0.00     0.063 C 
BRANCH  76  77
ATOM     77  C   UNL     1      23.702  32.613  15.111  1.00  0.00     0.139 C 
BRANCH  77  78
ATOM     78  C   UNL     1      24.791  31.777  14.537  1.00  0.00     0.002 C 
ATOM     79  C   UNL     1      24.633  30.665  13.834  1.00  0.00     0.002 CG0
ATOM     80  G   UNL     1      23.397  29.971  13.436  1.00  0.00     0.000 G0
ENDBRANCH  77  78
BRANCH  77  81
ATOM     81  O   UNL     1      24.210  33.701  15.806  1.00  0.00    -0.389 OA
ATOM     82  H   UNL     1      24.145  33.490  16.779  1.00  0.00     0.211 HD
ENDBRANCH  77  81
ENDBRANCH  76  77
ENDBRANCH  70  76
ENDBRANCH  68  70
ENDBRANCH  64  65
ENDBRANCH  63  64
ENDBRANCH  60  63
ENDBRANCH  58  59
ENDBRANCH  55  58
ENDBRANCH   1  55
TORSDOF 32
BEGIN_RES LYS A 131
REMARK  4 active torsions:
REMARK  status: ('A' for Active; 'I' for Inactive)
REMARK    1  A    between atoms: CA   and  CB  
REMARK    2  A    between atoms: CB   and  CG  
REMARK    3  A    between atoms: CG   and  CD  
REMARK    4  A    between atoms: CD   and  CE  
ROOT
ATOM      1  CA  LYS A 131      29.867  25.555  16.977  1.00 20.52     0.186 C 
ENDROOT
BRANCH   1   2
ATOM      2  CB  LYS A 131      28.345  25.722  17.026  1.00 20.94     0.034 C 
BRANCH   2   3
ATOM      3  CG  LYS A 131      27.603  24.395  16.990  1.00 22.96     0.005 C 
BRANCH   3   4
ATOM      4  CD  LYS A 131      26.200  24.515  17.517  1.00 24.33     0.041 C 
BRANCH   4   5
ATOM      5  CE  LYS A 131      25.814  23.225  18.234  1.00 26.91     0.338 C 
ATOM      6  NZ  LYS A 131      25.054  22.334  17.325  1.00 27.40     0.618 N 
ENDBRANCH   4   5
ENDBRANCH   3   4
ENDBRANCH   2   3
ENDBRANCH   1   2
END_RES LYS A 131
BEGIN_RES LYS A 135
REMARK  4 active torsions:
REMARK  status: ('A' for Active; 'I' for Inactive)
REMARK    5  A    between atoms: CA   and  CB  
REMARK    6  A    between atoms: CB   and  CG  
REMARK    7  A    between atoms: CG   and  CD  
REMARK    8  A    between atoms: CD   and  CE  
ROOT
ATOM      7  CA  LYS A 135      33.193  34.663   9.290  1.00 25.02     0.186 C 
ENDROOT
BRANCH   7   8
ATOM      8  CB  LYS A 135      32.060  35.360  10.034  1.00 26.63     0.034 C 
BRANCH   8   9
ATOM      9  CG  LYS A 135      30.694  34.829   9.685  1.00 29.45     0.005 C 
BRANCH   9  10
ATOM     10  CD  LYS A 135      30.025  35.713   8.643  1.00 32.00     0.041 C 
BRANCH  10  11
ATOM     11  CE  LYS A 135      29.509  34.877   7.488  1.00 34.25     0.338 C 
ATOM     12  NZ  LYS A 135      28.807  35.724   6.484  1.00 35.99     0.618 N 
ENDBRANCH  10  11
ENDBRANCH   9  10
ENDBRANCH   8   9
ENDBRANCH   7   8
END_RES LYS A 135
