REMARK VINA RESULT:    -3.443      0.000      0.000
REMARK INTER + INTRA:         -23.412
REMARK INTER:                 -10.369
REMARK INTRA:                 -13.042
REMARK UNBOUND:               -13.729
REMARK SMILES CCOC(CCn1cc(COC(=O)NC[C@@H](O)C(O)[C@@H]2O[C@@](OC[C@H]3O[C@@H](O[C@H]4[C@H](O)[C@@H](O)[C@H](OCCN=[N+]=[N-])O[C@@H]4CO)[C@H](O)[C@@H](O)[C@H]3O)(C(=O)O)C[C@H](O)[C@H]2NC(C)=O)nn1)OCC
REMARK SMILES IDX 18 1 20 2 22 3 54 4 21 5 55 6 57 7 23 8 24 9 25 10 27 11
REMARK SMILES IDX 26 12 45 13 47 14 49 15 28 16 29 17 42 18 41 19 34 20 30 21
REMARK SMILES IDX 32 22 43 23 44 24 35 26 36 27 37 28 38 29 39 30 40 31 31 32
REMARK SMILES IDX 33 34 46 36 48 38 50 40 51 42 52 43 53 44 56 46 58 48 59 49
REMARK SMILES IDX 60 51 61 52 19 53 16 55 17 56 15 58 14 59 12 60 13 62 11 63
REMARK SMILES IDX 10 64 9 65 8 66 62 67 7 68 63 69 6 70 5 71 4 72 3 73 2 74
REMARK SMILES IDX 1 75 64 76 65 77 66 78
REMARK H PARENT 44 25 31 33 33 35 46 37 48 39 50 41 53 45 56 47 58 50 19 54
REMARK H PARENT 17 57 14 61
REMARK Flexibility Score: inf
ROOT
ATOM      1  C   UNL     1      26.235  32.657  14.954  1.00  0.00     0.176 C 
ENDROOT
BRANCH   1   2
ATOM      2  C   UNL     1      26.388  34.132  14.731  1.00  0.00     0.178 C 
ATOM      3  C   UNL     1      25.650  35.926  13.471  1.00  0.00     0.272 C 
ATOM      4  C   UNL     1      26.539  36.624  14.438  1.00  0.00     0.113 C 
ATOM      5  O   UNL     1      25.602  34.526  13.660  1.00  0.00    -0.332 OA
ATOM      6  C   UNL     1      27.873  36.004  14.669  1.00  0.00     0.145 C 
ATOM      7  C   UNL     1      27.817  34.509  14.327  1.00  0.00     0.142 C 
BRANCH   3   8
ATOM      8  O   UNL     1      25.813  36.158  12.165  1.00  0.00    -0.338 OA
BRANCH   8   9
ATOM      9  C   UNL     1      25.550  35.223  11.235  1.00  0.00     0.199 C 
BRANCH   9  10
ATOM     10  C   UNL     1      24.879  35.828  10.023  1.00  0.00     0.179 C 
ATOM     11  C   UNL     1      23.006  36.715   9.157  1.00  0.00     0.282 C 
ATOM     12  O   UNL     1      23.806  36.645  10.329  1.00  0.00    -0.341 OA
ATOM     13  C   UNL     1      23.730  37.534   8.155  1.00  0.00     0.202 C 
ATOM     14  C   UNL     1      25.089  36.930   7.889  1.00  0.00     0.179 C 
ATOM     15  C   UNL     1      25.862  36.584   9.135  1.00  0.00     0.177 C 
BRANCH  11  16
ATOM     16  O   UNL     1      21.737  37.187   9.508  1.00  0.00    -0.341 OA
BRANCH  16  17
ATOM     17  C   UNL     1      21.053  36.196  10.138  1.00  0.00     0.184 C 
ATOM     18  C   UNL     1      19.884  35.591   9.461  1.00  0.00     0.178 C 
ATOM     19  O   UNL     1      19.601  34.372  10.093  1.00  0.00    -0.341 OA
ATOM     20  C   UNL     1      19.135  34.595  11.397  1.00  0.00     0.281 C 
ATOM     21  C   UNL     1      20.485  36.704  11.501  1.00  0.00     0.180 C 
ATOM     22  C   UNL     1      20.110  35.404  12.226  1.00  0.00     0.202 C 
BRANCH  18  23
ATOM     23  C   UNL     1      20.167  35.314   8.015  1.00  0.00     0.191 C 
BRANCH  23  24
ATOM     24  O   UNL     1      20.194  36.477   7.247  1.00  0.00    -0.394 OA
ATOM     25  H   UNL     1      20.743  36.393   6.448  1.00  0.00     0.210 HD
ENDBRANCH  23  24
ENDBRANCH  18  23
BRANCH  20  26
ATOM     26  O   UNL     1      19.004  33.351  11.987  1.00  0.00    -0.350 OA
BRANCH  26  27
ATOM     27  C   UNL     1      20.136  32.601  12.089  1.00  0.00     0.169 C 
BRANCH  27  28
ATOM     28  C   UNL     1      20.039  31.661  13.262  1.00  0.00     0.119 C 
BRANCH  28  29
ATOM     29  N   UNL     1      21.109  31.965  14.210  1.00  0.00    -0.092 NA
ATOM     30  N   UNL     1      20.870  32.921  14.976  1.00  0.00     0.001 N 
ATOM     31  N   UNL     1      21.007  34.014  15.530  1.00  0.00    -0.003 NA
ENDBRANCH  28  29
ENDBRANCH  27  28
ENDBRANCH  26  27
ENDBRANCH  20  26
BRANCH  21  32
ATOM     32  O   UNL     1      21.432  37.397  12.206  1.00  0.00    -0.387 OA
ATOM     33  H   UNL     1      22.127  37.799  11.630  1.00  0.00     0.211 HD
ENDBRANCH  21  32
BRANCH  22  34
ATOM     34  O   UNL     1      19.555  35.662  13.451  1.00  0.00    -0.385 OA
ATOM     35  H   UNL     1      18.562  35.751  13.309  1.00  0.00     0.211 HD
ENDBRANCH  22  34
ENDBRANCH  16  17
ENDBRANCH  11  16
BRANCH  13  36
ATOM     36  O   UNL     1      23.067  37.537   6.919  1.00  0.00    -0.385 OA
ATOM     37  H   UNL     1      22.097  37.658   7.026  1.00  0.00     0.211 HD
ENDBRANCH  13  36
BRANCH  14  38
ATOM     38  O   UNL     1      25.833  37.695   6.998  1.00  0.00    -0.387 OA
ATOM     39  H   UNL     1      26.307  37.122   6.338  1.00  0.00     0.211 HD
ENDBRANCH  14  38
BRANCH  15  40
ATOM     40  O   UNL     1      26.320  37.707   9.807  1.00  0.00    -0.387 OA
ATOM     41  H   UNL     1      25.985  38.531   9.389  1.00  0.00     0.211 HD
ENDBRANCH  15  40
ENDBRANCH   9  10
ENDBRANCH   8   9
ENDBRANCH   3   8
BRANCH   3  42
ATOM     42  C   UNL     1      24.253  36.355  13.803  1.00  0.00     0.364 C 
ATOM     43  O   UNL     1      23.955  37.553  13.958  1.00  0.00    -0.246 OA
BRANCH  42  44
ATOM     44  O   UNL     1      23.228  35.426  13.951  1.00  0.00    -0.477 OA
ATOM     45  H   UNL     1      23.129  34.703  13.247  1.00  0.00     0.296 HD
ENDBRANCH  42  44
ENDBRANCH   3  42
BRANCH   6  46
ATOM     46  O   UNL     1      28.919  36.616  14.024  1.00  0.00    -0.391 OA
ATOM     47  H   UNL     1      29.760  36.640  14.543  1.00  0.00     0.211 HD
ENDBRANCH   6  46
BRANCH   7  48
ATOM     48  N   UNL     1      28.818  33.756  15.009  1.00  0.00    -0.348 N 
ATOM     49  C   UNL     1      30.084  33.592  14.378  1.00  0.00     0.217 C 
ATOM     50  H   UNL     1      28.673  33.324  15.941  1.00  0.00     0.163 HD
ATOM     51  C   UNL     1      31.148  32.812  15.062  1.00  0.00     0.114 C 
ATOM     52  O   UNL     1      30.325  34.103  13.232  1.00  0.00    -0.275 OA
ENDBRANCH   7  48
ENDBRANCH   1   2
BRANCH   1  53
ATOM     53  O   UNL     1      26.314  32.453  16.344  1.00  0.00    -0.388 OA
ATOM     54  H   UNL     1      26.514  31.493  16.544  1.00  0.00     0.211 HD
ENDBRANCH   1  53
BRANCH   1  55
ATOM     55  C   UNL     1      24.831  32.267  14.535  1.00  0.00     0.165 C 
BRANCH  55  56
ATOM     56  O   UNL     1      23.903  32.734  15.419  1.00  0.00    -0.388 OA
ATOM     57  H   UNL     1      23.050  32.230  15.429  1.00  0.00     0.211 HD
ENDBRANCH  55  56
BRANCH  55  58
ATOM     58  C   UNL     1      24.725  30.774  14.390  1.00  0.00     0.154 C 
BRANCH  58  59
ATOM     59  N   UNL     1      25.265  30.004  15.472  1.00  0.00    -0.319 N 
ATOM     60  C   UNL     1      24.512  29.402  16.493  1.00  0.00     0.407 C 
ATOM     61  H   UNL     1      26.326  29.898  15.474  1.00  0.00     0.167 HD
ATOM     62  O   UNL     1      23.273  29.472  16.556  1.00  0.00    -0.225 OA
BRANCH  60  63
ATOM     63  O   UNL     1      25.153  28.671  17.518  1.00  0.00    -0.443 OA
BRANCH  63  64
ATOM     64  C   UNL     1      26.477  28.167  17.286  1.00  0.00     0.294 C 
BRANCH  64  65
ATOM     65  C   UNL     1      27.438  29.293  17.416  1.00  0.00     0.120 A 
ATOM     66  C   UNL     1      27.807  29.948  18.566  1.00  0.00     0.138 A 
ATOM     67  N   UNL     1      28.109  29.871  16.417  1.00  0.00    -0.132 NA
ATOM     68  N   UNL     1      28.692  30.902  18.207  1.00  0.00    -0.252 N 
ATOM     69  N   UNL     1      28.852  30.827  16.898  1.00  0.00    -0.067 NA
BRANCH  68  70
ATOM     70  C   UNL     1      29.317  31.807  19.126  1.00  0.00     0.151 C 
BRANCH  70  71
ATOM     71  C   UNL     1      30.351  32.709  18.516  1.00  0.00     0.086 C 
BRANCH  71  72
ATOM     72  C   UNL     1      29.807  34.137  18.478  1.00  0.00     0.251 C 
BRANCH  72  73
ATOM     73  O   UNL     1      28.569  34.070  17.868  1.00  0.00    -0.353 OA
BRANCH  73  74
ATOM     74  C   UNL     1      27.708  35.068  18.306  1.00  0.00     0.160 C 
ATOM     75  C   UNL     1      27.700  35.171  19.818  1.00  0.00     0.035 C 
ENDBRANCH  73  74
ENDBRANCH  72  73
BRANCH  72  76
ATOM     76  O   UNL     1      30.696  35.014  17.934  1.00  0.00    -0.353 OA
BRANCH  76  77
ATOM     77  C   UNL     1      32.026  34.782  18.158  1.00  0.00     0.160 C 
ATOM     78  C   UNL     1      32.753  36.104  18.245  1.00  0.00     0.035 C 
ENDBRANCH  76  77
ENDBRANCH  72  76
ENDBRANCH  71  72
ENDBRANCH  70  71
ENDBRANCH  68  70
ENDBRANCH  64  65
ENDBRANCH  63  64
ENDBRANCH  60  63
ENDBRANCH  58  59
ENDBRANCH  55  58
ENDBRANCH   1  55
TORSDOF 36
BEGIN_RES LYS A 131
REMARK  4 active torsions:
REMARK  status: ('A' for Active; 'I' for Inactive)
REMARK    1  A    between atoms: CA   and  CB  
REMARK    2  A    between atoms: CB   and  CG  
REMARK    3  A    between atoms: CG   and  CD  
REMARK    4  A    between atoms: CD   and  CE  
ROOT
ATOM      1  CA  LYS A 131      29.867  25.555  16.977  1.00 20.52     0.186 C 
ENDROOT
BRANCH   1   2
ATOM      2  CB  LYS A 131      28.345  25.722  17.026  1.00 20.94     0.034 C 
BRANCH   2   3
ATOM      3  CG  LYS A 131      27.602  24.400  16.913  1.00 22.96     0.005 C 
BRANCH   3   4
ATOM      4  CD  LYS A 131      26.524  24.266  17.953  1.00 24.33     0.041 C 
BRANCH   4   5
ATOM      5  CE  LYS A 131      25.157  24.287  17.275  1.00 26.91     0.338 C 
ATOM      6  NZ  LYS A 131      24.564  22.929  17.261  1.00 27.40     0.618 N 
ENDBRANCH   4   5
ENDBRANCH   3   4
ENDBRANCH   2   3
ENDBRANCH   1   2
END_RES LYS A 131
BEGIN_RES LYS A 135
REMARK  4 active torsions:
REMARK  status: ('A' for Active; 'I' for Inactive)
REMARK    5  A    between atoms: CA   and  CB  
REMARK    6  A    between atoms: CB   and  CG  
REMARK    7  A    between atoms: CG   and  CD  
REMARK    8  A    between atoms: CD   and  CE  
ROOT
ATOM      7  CA  LYS A 135      33.193  34.663   9.290  1.00 25.02     0.186 C 
ENDROOT
BRANCH   7   8
ATOM      8  CB  LYS A 135      32.060  35.360  10.034  1.00 26.63     0.034 C 
BRANCH   8   9
ATOM      9  CG  LYS A 135      30.698  34.794   9.725  1.00 29.45     0.005 C 
BRANCH   9  10
ATOM     10  CD  LYS A 135      30.577  34.465   8.245  1.00 32.00     0.041 C 
BRANCH  10  11
ATOM     11  CE  LYS A 135      29.281  35.015   7.681  1.00 34.25     0.338 C 
ATOM     12  NZ  LYS A 135      28.101  34.405   8.355  1.00 35.99     0.618 N 
ENDBRANCH  10  11
ENDBRANCH   9  10
ENDBRANCH   8   9
ENDBRANCH   7   8
END_RES LYS A 135
