REMARK VINA RESULT:    -4.949      1.622      2.836
REMARK INTER + INTRA:         -24.591
REMARK INTER:                 -14.163
REMARK INTRA:                 -10.429
REMARK UNBOUND:               -12.409
REMARK SMILES CC(=O)N[C@@H]1[C@@H](O)C[C@](OC[C@H]2O[C@@H](O[C@H]3[C@H](O)[C@@H](O)[C@H](OCCN=[N+]=[N-])O[C@@H]3CO)[C@H](O)[C@@H](O)[C@H]2O)(C(=O)O)O[C@H]1C(O)[C@H](O)CNC(=O)OCc1cn(C2c3ccccc3-c3ccccc32)nn1
REMARK SMILES IDX 9 1 8 2 6 3 5 4 42 5 41 6 10 7 11 8 12 9 14 10 13 11 32 12
REMARK SMILES IDX 34 13 36 14 15 15 16 16 29 17 28 18 21 19 17 20 19 21 30 22
REMARK SMILES IDX 31 23 22 25 23 26 24 27 25 28 26 29 27 30 18 31 20 33 33 35
REMARK SMILES IDX 35 37 37 39 38 41 39 42 40 43 7 45 43 47 44 48 45 50 46 51
REMARK SMILES IDX 47 53 48 54 49 55 50 57 51 58 52 59 53 60 54 61 70 62 55 63
REMARK SMILES IDX 69 64 56 65 57 66 68 67 58 68 62 69 63 70 67 71 59 72 61 73
REMARK SMILES IDX 64 74 66 75 60 76 65 77 4 78 2 79 1 81 3 82
REMARK H PARENT 31 24 18 32 20 34 33 36 35 38 37 40 40 44 7 46 44 49 46 52
REMARK H PARENT 48 56 4 80
REMARK Flexibility Score: inf
ROOT
ATOM      1  C   UNL     1      24.442  35.427  10.661  1.00  0.00     0.272 C 
ATOM      2  C   UNL     1      22.984  35.286  10.496  1.00  0.00     0.113 C 
ATOM      3  C   UNL     1      22.408  36.264   9.544  1.00  0.00     0.145 C 
ATOM      4  C   UNL     1      23.262  37.482   9.325  1.00  0.00     0.142 C 
ATOM      5  C   UNL     1      24.065  37.736  10.554  1.00  0.00     0.178 C 
ATOM      6  O   UNL     1      24.851  36.725  11.004  1.00  0.00    -0.332 OA
ENDROOT
BRANCH   1   7
ATOM      7  O   UNL     1      25.157  35.032   9.561  1.00  0.00    -0.338 OA
BRANCH   7   8
ATOM      8  C   UNL     1      26.445  35.483   9.465  1.00  0.00     0.199 C 
BRANCH   8   9
ATOM      9  C   UNL     1      27.266  34.531   8.624  1.00  0.00     0.179 C 
ATOM     10  C   UNL     1      28.576  36.248   7.711  1.00  0.00     0.282 C 
ATOM     11  O   UNL     1      27.706  35.213   7.513  1.00  0.00    -0.341 OA
ATOM     12  C   UNL     1      29.645  35.881   8.666  1.00  0.00     0.202 C 
ATOM     13  C   UNL     1      29.710  34.342   8.644  1.00  0.00     0.179 C 
ATOM     14  C   UNL     1      28.418  33.932   9.383  1.00  0.00     0.177 C 
BRANCH  10  15
ATOM     15  O   UNL     1      27.925  37.438   7.902  1.00  0.00    -0.341 OA
BRANCH  15  16
ATOM     16  C   UNL     1      28.260  38.468   7.066  1.00  0.00     0.184 C 
ATOM     17  C   UNL     1      28.368  39.745   7.810  1.00  0.00     0.178 C 
ATOM     18  O   UNL     1      27.860  40.837   7.114  1.00  0.00    -0.341 OA
ATOM     19  C   UNL     1      28.022  40.760   5.769  1.00  0.00     0.281 C 
ATOM     20  C   UNL     1      27.149  38.489   6.019  1.00  0.00     0.180 C 
ATOM     21  C   UNL     1      27.031  39.731   5.238  1.00  0.00     0.202 C 
BRANCH  17  22
ATOM     22  C   UNL     1      29.801  40.077   8.167  1.00  0.00     0.191 C 
BRANCH  22  23
ATOM     23  O   UNL     1      30.262  39.224   9.199  1.00  0.00    -0.394 OA
ATOM     24  H   UNL     1      30.889  39.733   9.797  1.00  0.00     0.210 HD
ENDBRANCH  22  23
ENDBRANCH  17  22
BRANCH  19  25
ATOM     25  O   UNL     1      29.269  40.377   5.314  1.00  0.00    -0.350 OA
BRANCH  25  26
ATOM     26  C   UNL     1      29.986  41.375   4.717  1.00  0.00     0.169 C 
BRANCH  26  27
ATOM     27  C   UNL     1      31.468  41.226   4.713  1.00  0.00     0.119 C 
BRANCH  27  28
ATOM     28  N   UNL     1      31.914  39.918   5.146  1.00  0.00    -0.092 NA
ATOM     29  N   UNL     1      32.651  39.891   6.140  1.00  0.00     0.001 N 
ATOM     30  N   UNL     1      33.471  39.789   7.060  1.00  0.00    -0.003 NA
ENDBRANCH  27  28
ENDBRANCH  26  27
ENDBRANCH  25  26
ENDBRANCH  19  25
BRANCH  20  31
ATOM     31  O   UNL     1      27.358  37.419   5.108  1.00  0.00    -0.387 OA
ATOM     32  H   UNL     1      28.126  37.620   4.515  1.00  0.00     0.211 HD
ENDBRANCH  20  31
BRANCH  21  33
ATOM     33  O   UNL     1      25.753  40.286   5.394  1.00  0.00    -0.385 OA
ATOM     34  H   UNL     1      25.270  40.379   4.532  1.00  0.00     0.211 HD
ENDBRANCH  21  33
ENDBRANCH  15  16
ENDBRANCH  10  15
BRANCH  12  35
ATOM     35  O   UNL     1      30.915  36.298   8.270  1.00  0.00    -0.385 OA
ATOM     36  H   UNL     1      31.545  36.126   9.009  1.00  0.00     0.211 HD
ENDBRANCH  12  35
BRANCH  13  37
ATOM     37  O   UNL     1      30.764  33.867   9.388  1.00  0.00    -0.387 OA
ATOM     38  H   UNL     1      31.597  34.000   8.874  1.00  0.00     0.211 HD
ENDBRANCH  13  37
BRANCH  14  39
ATOM     39  O   UNL     1      28.502  34.523  10.630  1.00  0.00    -0.387 OA
ATOM     40  H   UNL     1      27.867  35.272  10.746  1.00  0.00     0.211 HD
ENDBRANCH  14  39
ENDBRANCH   8   9
ENDBRANCH   7   8
ENDBRANCH   1   7
BRANCH   1  41
ATOM     41  C   UNL     1      24.910  34.625  11.875  1.00  0.00     0.364 C 
ATOM     42  O   UNL     1      24.109  33.832  12.380  1.00  0.00    -0.246 OA
BRANCH  41  43
ATOM     43  O   UNL     1      26.173  34.773  12.394  1.00  0.00    -0.477 OA
ATOM     44  H   UNL     1      26.981  34.965  11.789  1.00  0.00     0.296 HD
ENDBRANCH  41  43
ENDBRANCH   1  41
BRANCH   3  45
ATOM     45  O   UNL     1      22.048  35.737   8.303  1.00  0.00    -0.391 OA
ATOM     46  H   UNL     1      22.791  35.352   7.818  1.00  0.00     0.211 HD
ENDBRANCH   3  45
BRANCH   5  47
ATOM     47  C   UNL     1      24.939  38.966  10.317  1.00  0.00     0.176 C 
BRANCH  47  48
ATOM     48  O   UNL     1      25.466  38.914   9.052  1.00  0.00    -0.388 OA
ATOM     49  H   UNL     1      25.570  37.966   8.737  1.00  0.00     0.211 HD
ENDBRANCH  47  48
BRANCH  47  50
ATOM     50  C   UNL     1      26.003  38.995  11.373  1.00  0.00     0.165 C 
BRANCH  50  51
ATOM     51  O   UNL     1      25.405  39.119  12.639  1.00  0.00    -0.388 OA
ATOM     52  H   UNL     1      24.699  39.803  12.623  1.00  0.00     0.211 HD
ENDBRANCH  50  51
BRANCH  50  53
ATOM     53  C   UNL     1      26.787  40.298  11.175  1.00  0.00     0.154 C 
BRANCH  53  54
ATOM     54  N   UNL     1      28.150  40.051  11.534  1.00  0.00    -0.319 N 
ATOM     55  C   UNL     1      28.616  40.337  12.833  1.00  0.00     0.407 C 
ATOM     56  H   UNL     1      28.810  39.651  10.824  1.00  0.00     0.167 HD
ATOM     57  O   UNL     1      27.856  40.826  13.708  1.00  0.00    -0.225 OA
BRANCH  55  58
ATOM     58  O   UNL     1      29.922  40.096  13.210  1.00  0.00    -0.443 OA
BRANCH  58  59
ATOM     59  C   UNL     1      30.633  38.927  12.831  1.00  0.00     0.294 C 
BRANCH  59  60
ATOM     60  C   UNL     1      29.877  37.760  13.352  1.00  0.00     0.120 A 
ATOM     61  C   UNL     1      29.853  37.263  14.648  1.00  0.00     0.139 A 
ATOM     62  N   UNL     1      29.060  36.960  12.650  1.00  0.00    -0.132 NA
ATOM     63  N   UNL     1      29.038  36.198  14.694  1.00  0.00    -0.240 N 
ATOM     64  N   UNL     1      28.572  36.040  13.465  1.00  0.00    -0.066 NA
BRANCH  63  65
ATOM     65  C   UNL     1      28.728  35.380  15.868  1.00  0.00     0.170 C 
ATOM     66  C   UNL     1      29.562  34.176  15.819  1.00  0.00    -0.011 A 
ATOM     67  C   UNL     1      27.350  34.864  15.788  1.00  0.00    -0.011 A 
ATOM     68  C   UNL     1      30.939  33.998  15.858  1.00  0.00     0.007 A 
ATOM     69  C   UNL     1      28.789  33.051  15.718  1.00  0.00    -0.012 A 
ATOM     70  C   UNL     1      27.396  33.494  15.698  1.00  0.00    -0.012 A 
ATOM     71  C   UNL     1      26.114  35.484  15.791  1.00  0.00     0.007 A 
ATOM     72  C   UNL     1      31.489  32.737  15.796  1.00  0.00     0.000 A 
ATOM     73  C   UNL     1      29.344  31.781  15.655  1.00  0.00     0.009 A 
ATOM     74  C   UNL     1      26.243  32.747  15.613  1.00  0.00     0.009 A 
ATOM     75  C   UNL     1      24.949  34.757  15.706  1.00  0.00     0.000 A 
ATOM     76  C   UNL     1      30.706  31.597  15.692  1.00  0.00     0.001 A 
ATOM     77  C   UNL     1      25.014  33.382  15.617  1.00  0.00     0.001 A 
ENDBRANCH  63  65
ENDBRANCH  59  60
ENDBRANCH  58  59
ENDBRANCH  55  58
ENDBRANCH  53  54
ENDBRANCH  50  53
ENDBRANCH  47  50
ENDBRANCH   5  47
BRANCH   4  78
ATOM     78  N   UNL     1      22.331  38.620   9.203  1.00  0.00    -0.348 N 
ATOM     79  C   UNL     1      22.391  39.516   8.104  1.00  0.00     0.217 C 
ATOM     80  H   UNL     1      21.632  38.747   9.947  1.00  0.00     0.163 HD
ATOM     81  C   UNL     1      21.439  40.666   7.994  1.00  0.00     0.114 C 
ATOM     82  O   UNL     1      23.270  39.312   7.221  1.00  0.00    -0.275 OA
ENDBRANCH   4  78
TORSDOF 30
BEGIN_RES LYS A 131
REMARK  4 active torsions:
REMARK  status: ('A' for Active; 'I' for Inactive)
REMARK    1  A    between atoms: CA   and  CB  
REMARK    2  A    between atoms: CB   and  CG  
REMARK    3  A    between atoms: CG   and  CD  
REMARK    4  A    between atoms: CD   and  CE  
ROOT
ATOM      1  CA  LYS A 131      29.867  25.555  16.977  1.00 20.52     0.186 C 
ENDROOT
BRANCH   1   2
ATOM      2  CB  LYS A 131      28.345  25.722  17.026  1.00 20.94     0.034 C 
BRANCH   2   3
ATOM      3  CG  LYS A 131      27.601  24.402  16.889  1.00 22.96     0.005 C 
BRANCH   3   4
ATOM      4  CD  LYS A 131      26.518  24.253  17.921  1.00 24.33     0.041 C 
BRANCH   4   5
ATOM      5  CE  LYS A 131      25.159  24.204  17.230  1.00 26.91     0.338 C 
ATOM      6  NZ  LYS A 131      24.148  24.947  18.018  1.00 27.40     0.618 N 
ENDBRANCH   4   5
ENDBRANCH   3   4
ENDBRANCH   2   3
ENDBRANCH   1   2
END_RES LYS A 131
BEGIN_RES LYS A 135
REMARK  4 active torsions:
REMARK  status: ('A' for Active; 'I' for Inactive)
REMARK    5  A    between atoms: CA   and  CB  
REMARK    6  A    between atoms: CB   and  CG  
REMARK    7  A    between atoms: CG   and  CD  
REMARK    8  A    between atoms: CD   and  CE  
ROOT
ATOM      7  CA  LYS A 135      33.193  34.663   9.290  1.00 25.02     0.186 C 
ENDROOT
BRANCH   7   8
ATOM      8  CB  LYS A 135      32.060  35.360  10.034  1.00 26.63     0.034 C 
BRANCH   8   9
ATOM      9  CG  LYS A 135      32.501  36.038  11.305  1.00 29.45     0.005 C 
BRANCH   9  10
ATOM     10  CD  LYS A 135      32.108  35.211  12.519  1.00 32.00     0.041 C 
BRANCH  10  11
ATOM     11  CE  LYS A 135      33.062  35.468  13.670  1.00 34.25     0.338 C 
ATOM     12  NZ  LYS A 135      34.219  34.532  13.627  1.00 35.99     0.618 N 
ENDBRANCH  10  11
ENDBRANCH   9  10
ENDBRANCH   8   9
ENDBRANCH   7   8
END_RES LYS A 135
