REMARK VINA RESULT:    -3.982      5.680     10.466
REMARK INTER + INTRA:         -21.884
REMARK INTER:                  -9.378
REMARK INTRA:                 -12.506
REMARK UNBOUND:               -11.851
REMARK SMILES CC(=O)N[C@@H]1[C@@H](O)C[C@](OC[C@H]2O[C@@H](O[C@H]3[C@H](O)[C@@H](O)[C@H](OCCN=[N+]=[N-])O[C@@H]3CO)[C@H](O)[C@@H](O)[C@H]2O)(C(=O)O)O[C@H]1C(O)[C@H](O)CNC(=O)OCc1cn(Cc2ccccc2)nn1
REMARK SMILES IDX 9 1 8 2 6 3 5 4 42 5 41 6 10 7 11 8 12 9 14 10 13 11 32 12
REMARK SMILES IDX 34 13 36 14 15 15 16 16 29 17 28 18 21 19 17 20 19 21 30 22
REMARK SMILES IDX 31 23 22 25 23 26 24 27 25 28 26 29 27 30 18 31 20 33 33 35
REMARK SMILES IDX 35 37 37 39 38 41 39 42 40 43 7 45 43 47 44 48 45 50 46 51
REMARK SMILES IDX 47 53 48 54 49 55 50 57 51 58 52 59 53 60 54 61 64 62 55 63
REMARK SMILES IDX 63 64 56 65 57 66 58 67 62 68 59 69 61 70 60 71 4 72 2 73
REMARK SMILES IDX 1 75 3 76
REMARK H PARENT 31 24 18 32 20 34 33 36 35 38 37 40 40 44 7 46 44 49 46 52
REMARK H PARENT 48 56 4 74
REMARK Flexibility Score: inf
ROOT
ATOM      1  C   UNL     1      31.572  40.389   5.952  1.00  0.00     0.272 C 
ATOM      2  C   UNL     1      31.654  41.179   4.698  1.00  0.00     0.113 C 
ATOM      3  C   UNL     1      30.293  41.588   4.283  1.00  0.00     0.145 C 
ATOM      4  C   UNL     1      29.169  41.009   5.156  1.00  0.00     0.142 C 
ATOM      5  C   UNL     1      29.421  39.599   5.484  1.00  0.00     0.178 C 
ATOM      6  O   UNL     1      30.775  39.264   5.673  1.00  0.00    -0.332 OA
ENDROOT
BRANCH   1   7
ATOM      7  O   UNL     1      31.123  41.062   7.069  1.00  0.00    -0.338 OA
BRANCH   7   8
ATOM      8  C   UNL     1      31.960  42.128   7.352  1.00  0.00     0.199 C 
BRANCH   8   9
ATOM      9  C   UNL     1      31.884  42.551   8.802  1.00  0.00     0.179 C 
ATOM     10  C   UNL     1      30.283  43.129  10.399  1.00  0.00     0.282 C 
ATOM     11  O   UNL     1      30.742  43.266   9.087  1.00  0.00    -0.341 OA
ATOM     12  C   UNL     1      31.379  43.085  11.398  1.00  0.00     0.202 C 
ATOM     13  C   UNL     1      32.256  41.897  11.164  1.00  0.00     0.179 C 
ATOM     14  C   UNL     1      32.105  41.399   9.746  1.00  0.00     0.177 C 
BRANCH  10  15
ATOM     15  O   UNL     1      29.454  42.027  10.527  1.00  0.00    -0.341 OA
BRANCH  15  16
ATOM     16  C   UNL     1      28.110  42.351  10.667  1.00  0.00     0.184 C 
ATOM     17  C   UNL     1      27.518  41.633  11.822  1.00  0.00     0.178 C 
ATOM     18  O   UNL     1      26.149  41.973  11.870  1.00  0.00    -0.341 OA
ATOM     19  C   UNL     1      25.545  41.198  10.860  1.00  0.00     0.281 C 
ATOM     20  C   UNL     1      27.444  41.820   9.387  1.00  0.00     0.180 C 
ATOM     21  C   UNL     1      25.958  41.740   9.500  1.00  0.00     0.202 C 
BRANCH  17  22
ATOM     22  C   UNL     1      28.177  42.012  13.144  1.00  0.00     0.191 C 
BRANCH  22  23
ATOM     23  O   UNL     1      29.269  41.133  13.319  1.00  0.00    -0.394 OA
ATOM     24  H   UNL     1      28.979  40.386  13.894  1.00  0.00     0.210 HD
ENDBRANCH  22  23
ENDBRANCH  17  22
BRANCH  19  25
ATOM     25  O   UNL     1      24.181  41.261  10.998  1.00  0.00    -0.350 OA
BRANCH  25  26
ATOM     26  C   UNL     1      23.847  42.189  11.966  1.00  0.00     0.169 C 
BRANCH  26  27
ATOM     27  C   UNL     1      22.842  41.720  12.974  1.00  0.00     0.119 C 
BRANCH  27  28
ATOM     28  N   UNL     1      23.549  41.653  14.262  1.00  0.00    -0.092 NA
ATOM     29  N   UNL     1      24.374  40.751  14.395  1.00  0.00     0.001 N 
ATOM     30  N   UNL     1      25.349  40.091  14.779  1.00  0.00    -0.003 NA
ENDBRANCH  27  28
ENDBRANCH  26  27
ENDBRANCH  25  26
ENDBRANCH  19  25
BRANCH  20  31
ATOM     31  O   UNL     1      27.769  42.772   8.399  1.00  0.00    -0.387 OA
ATOM     32  H   UNL     1      27.578  43.701   8.698  1.00  0.00     0.211 HD
ENDBRANCH  20  31
BRANCH  21  33
ATOM     33  O   UNL     1      25.468  40.862   8.534  1.00  0.00    -0.385 OA
ATOM     34  H   UNL     1      25.963  40.925   7.673  1.00  0.00     0.211 HD
ENDBRANCH  21  33
ENDBRANCH  15  16
ENDBRANCH  10  15
BRANCH  12  35
ATOM     35  O   UNL     1      32.121  44.279  11.429  1.00  0.00    -0.385 OA
ATOM     36  H   UNL     1      32.055  44.664  10.519  1.00  0.00     0.211 HD
ENDBRANCH  12  35
BRANCH  13  37
ATOM     37  O   UNL     1      31.912  40.899  12.068  1.00  0.00    -0.387 OA
ATOM     38  H   UNL     1      30.941  40.681  12.041  1.00  0.00     0.211 HD
ENDBRANCH  13  37
BRANCH  14  39
ATOM     39  O   UNL     1      31.231  40.356   9.609  1.00  0.00    -0.387 OA
ATOM     40  H   UNL     1      31.594  39.504   9.295  1.00  0.00     0.211 HD
ENDBRANCH  14  39
ENDBRANCH   8   9
ENDBRANCH   7   8
ENDBRANCH   1   7
BRANCH   1  41
ATOM     41  C   UNL     1      32.890  39.762   6.314  1.00  0.00     0.364 C 
ATOM     42  O   UNL     1      33.876  39.968   5.605  1.00  0.00    -0.246 OA
BRANCH  41  43
ATOM     43  O   UNL     1      32.987  38.965   7.433  1.00  0.00    -0.477 OA
ATOM     44  H   UNL     1      32.477  39.165   8.295  1.00  0.00     0.296 HD
ENDBRANCH  41  43
ENDBRANCH   1  41
BRANCH   3  45
ATOM     45  O   UNL     1      30.085  42.981   4.281  1.00  0.00    -0.391 OA
ATOM     46  H   UNL     1      29.965  43.351   3.394  1.00  0.00     0.211 HD
ENDBRANCH   3  45
BRANCH   5  47
ATOM     47  C   UNL     1      28.700  38.962   6.596  1.00  0.00     0.176 C 
BRANCH  47  48
ATOM     48  O   UNL     1      28.295  39.807   7.606  1.00  0.00    -0.388 OA
ATOM     49  H   UNL     1      28.616  40.732   7.530  1.00  0.00     0.211 HD
ENDBRANCH  47  48
BRANCH  47  50
ATOM     50  C   UNL     1      27.586  38.010   6.270  1.00  0.00     0.165 C 
BRANCH  50  51
ATOM     51  O   UNL     1      27.307  37.909   4.942  1.00  0.00    -0.388 OA
ATOM     52  H   UNL     1      26.502  38.384   4.655  1.00  0.00     0.211 HD
ENDBRANCH  50  51
BRANCH  50  53
ATOM     53  C   UNL     1      26.429  38.125   7.218  1.00  0.00     0.154 C 
BRANCH  53  54
ATOM     54  N   UNL     1      26.717  37.710   8.566  1.00  0.00    -0.319 N 
ATOM     55  C   UNL     1      25.769  37.712   9.641  1.00  0.00     0.407 C 
ATOM     56  H   UNL     1      27.680  37.365   8.857  1.00  0.00     0.167 HD
ATOM     57  O   UNL     1      24.599  38.101   9.429  1.00  0.00    -0.225 OA
BRANCH  55  58
ATOM     58  O   UNL     1      26.118  37.295  10.913  1.00  0.00    -0.443 OA
BRANCH  58  59
ATOM     59  C   UNL     1      27.254  36.485  11.088  1.00  0.00     0.294 C 
BRANCH  59  60
ATOM     60  C   UNL     1      28.420  37.282  11.526  1.00  0.00     0.120 A 
ATOM     61  C   UNL     1      29.055  37.121  12.765  1.00  0.00     0.138 A 
ATOM     62  N   UNL     1      29.100  38.257  10.914  1.00  0.00    -0.132 NA
ATOM     63  N   UNL     1      30.072  37.995  12.837  1.00  0.00    -0.248 N 
ATOM     64  N   UNL     1      30.087  38.667  11.724  1.00  0.00    -0.067 NA
BRANCH  63  65
ATOM     65  C   UNL     1      30.973  38.134  13.959  1.00  0.00     0.181 C 
BRANCH  65  66
ATOM     66  C   UNL     1      31.865  36.950  14.024  1.00  0.00    -0.026 A 
ATOM     67  C   UNL     1      32.246  36.385  15.229  1.00  0.00     0.005 A 
ATOM     68  C   UNL     1      32.326  36.398  12.839  1.00  0.00     0.005 A 
ATOM     69  C   UNL     1      33.081  35.281  15.237  1.00  0.00     0.000 A 
ATOM     70  C   UNL     1      33.158  35.295  12.860  1.00  0.00     0.000 A 
ATOM     71  C   UNL     1      33.531  34.742  14.058  1.00  0.00     0.000 A 
ENDBRANCH  65  66
ENDBRANCH  63  65
ENDBRANCH  59  60
ENDBRANCH  58  59
ENDBRANCH  55  58
ENDBRANCH  53  54
ENDBRANCH  50  53
ENDBRANCH  47  50
ENDBRANCH   5  47
BRANCH   4  72
ATOM     72  N   UNL     1      28.019  41.120   4.236  1.00  0.00    -0.348 N 
ATOM     73  C   UNL     1      26.710  41.429   4.668  1.00  0.00     0.217 C 
ATOM     74  H   UNL     1      28.172  40.961   3.216  1.00  0.00     0.163 HD
ATOM     75  C   UNL     1      25.565  41.528   3.714  1.00  0.00     0.114 C 
ATOM     76  O   UNL     1      26.515  41.624   5.892  1.00  0.00    -0.275 OA
ENDBRANCH   4  72
TORSDOF 31
BEGIN_RES LYS A 131
REMARK  4 active torsions:
REMARK  status: ('A' for Active; 'I' for Inactive)
REMARK    1  A    between atoms: CA   and  CB  
REMARK    2  A    between atoms: CB   and  CG  
REMARK    3  A    between atoms: CG   and  CD  
REMARK    4  A    between atoms: CD   and  CE  
ROOT
ATOM      1  CA  LYS A 131      29.867  25.555  16.977  1.00 20.52     0.186 C 
ENDROOT
BRANCH   1   2
ATOM      2  CB  LYS A 131      28.345  25.722  17.026  1.00 20.94     0.034 C 
BRANCH   2   3
ATOM      3  CG  LYS A 131      27.601  24.401  16.900  1.00 22.96     0.005 C 
BRANCH   3   4
ATOM      4  CD  LYS A 131      26.148  24.532  17.263  1.00 24.33     0.041 C 
BRANCH   4   5
ATOM      5  CE  LYS A 131      26.007  24.604  18.780  1.00 26.91     0.338 C 
ATOM      6  NZ  LYS A 131      24.791  23.882  19.223  1.00 27.40     0.618 N 
ENDBRANCH   4   5
ENDBRANCH   3   4
ENDBRANCH   2   3
ENDBRANCH   1   2
END_RES LYS A 131
BEGIN_RES LYS A 135
REMARK  4 active torsions:
REMARK  status: ('A' for Active; 'I' for Inactive)
REMARK    5  A    between atoms: CA   and  CB  
REMARK    6  A    between atoms: CB   and  CG  
REMARK    7  A    between atoms: CG   and  CD  
REMARK    8  A    between atoms: CD   and  CE  
ROOT
ATOM      7  CA  LYS A 135      33.193  34.663   9.290  1.00 25.02     0.186 C 
ENDROOT
BRANCH   7   8
ATOM      8  CB  LYS A 135      32.060  35.360  10.034  1.00 26.63     0.034 C 
BRANCH   8   9
ATOM      9  CG  LYS A 135      30.694  34.821   9.693  1.00 29.45     0.005 C 
BRANCH   9  10
ATOM     10  CD  LYS A 135      30.604  34.486   8.213  1.00 32.00     0.041 C 
BRANCH  10  11
ATOM     11  CE  LYS A 135      29.351  35.089   7.606  1.00 34.25     0.338 C 
ATOM     12  NZ  LYS A 135      28.126  34.558   8.265  1.00 35.99     0.618 N 
ENDBRANCH  10  11
ENDBRANCH   9  10
ENDBRANCH   8   9
ENDBRANCH   7   8
END_RES LYS A 135
