REMARK VINA RESULT:    -4.812      4.876     10.916
REMARK INTER + INTRA:         -25.438
REMARK INTER:                 -13.597
REMARK INTRA:                 -11.840
REMARK UNBOUND:               -12.046
REMARK SMILES CC(=O)N[C@@H]1[C@@H](O)C[C@](OC[C@H]2O[C@@H](O[C@H]3[C@H](O)[C@@H](O)[C@H](OCCN=[N+]=[N-])O[C@@H]3CO)[C@H](O)[C@@H](O)[C@H]2O)(C(=O)O)O[C@H]1C(O)[C@H](O)CNC(=O)OCc1cn(C[C@@H](C(=O)O)C(c2ccccc2)c2ccccc2)nn1
REMARK SMILES IDX 43 1 42 2 9 3 8 4 41 5 6 6 5 7 10 8 11 9 12 10 14 11 13 12
REMARK SMILES IDX 32 13 34 14 36 15 15 16 16 17 29 18 28 19 21 20 17 21 19 22
REMARK SMILES IDX 30 23 31 24 22 26 23 27 24 28 25 29 26 30 27 31 18 32 20 34
REMARK SMILES IDX 33 36 35 38 37 40 38 42 39 43 40 44 7 46 4 48 2 49 1 51 3 52
REMARK SMILES IDX 44 53 45 55 46 56 47 58 48 59 49 60 50 62 51 63 52 64 53 65
REMARK SMILES IDX 54 66 75 67 55 68 74 69 56 70 57 71 58 72 59 73 60 74 61 76
REMARK SMILES IDX 62 77 63 78 67 79 64 80 66 81 65 82 68 83 69 84 73 85 70 86
REMARK SMILES IDX 72 87 71 88
REMARK H PARENT 31 25 18 33 20 35 33 37 35 39 37 41 40 45 7 47 4 50 44 54
REMARK H PARENT 46 57 48 61 60 75
REMARK Flexibility Score: inf
ROOT
ATOM      1  C   UNL     1      26.106  38.114  14.424  1.00  0.00     0.176 C 
ENDROOT
BRANCH   1   2
ATOM      2  C   UNL     1      26.160  36.645  13.955  1.00  0.00     0.178 C 
ATOM      3  C   UNL     1      27.201  35.022  12.681  1.00  0.00     0.272 C 
ATOM      4  C   UNL     1      26.129  34.234  13.505  1.00  0.00     0.113 C 
ATOM      5  O   UNL     1      27.104  36.381  13.033  1.00  0.00    -0.332 OA
ATOM      6  C   UNL     1      24.761  34.792  13.318  1.00  0.00     0.145 C 
ATOM      7  C   UNL     1      24.748  36.264  13.578  1.00  0.00     0.142 C 
BRANCH   3   8
ATOM      8  O   UNL     1      27.039  34.729  11.434  1.00  0.00    -0.338 OA
BRANCH   8   9
ATOM      9  C   UNL     1      27.400  33.876  10.558  1.00  0.00     0.199 C 
BRANCH   9  10
ATOM     10  C   UNL     1      27.955  34.208   9.198  1.00  0.00     0.179 C 
ATOM     11  C   UNL     1      27.476  35.912   7.619  1.00  0.00     0.282 C 
ATOM     12  O   UNL     1      27.079  34.980   8.499  1.00  0.00    -0.341 OA
ATOM     13  C   UNL     1      28.906  36.043   7.267  1.00  0.00     0.202 C 
ATOM     14  C   UNL     1      29.854  35.233   8.104  1.00  0.00     0.179 C 
ATOM     15  C   UNL     1      29.209  35.079   9.444  1.00  0.00     0.177 C 
BRANCH  11  16
ATOM     16  O   UNL     1      27.095  37.155   8.206  1.00  0.00    -0.341 OA
BRANCH  16  17
ATOM     17  C   UNL     1      26.130  37.818   7.502  1.00  0.00     0.184 C 
ATOM     18  C   UNL     1      26.130  39.260   7.923  1.00  0.00     0.178 C 
ATOM     19  O   UNL     1      25.348  39.491   9.048  1.00  0.00    -0.341 OA
ATOM     20  C   UNL     1      25.226  38.371   9.884  1.00  0.00     0.281 C 
ATOM     21  C   UNL     1      24.735  37.265   7.764  1.00  0.00     0.180 C 
ATOM     22  C   UNL     1      24.441  37.274   9.250  1.00  0.00     0.202 C 
BRANCH  18  23
ATOM     23  C   UNL     1      25.726  40.221   6.841  1.00  0.00     0.191 C 
BRANCH  23  24
ATOM     24  O   UNL     1      25.993  39.752   5.571  1.00  0.00    -0.394 OA
ATOM     25  H   UNL     1      26.353  40.529   5.046  1.00  0.00     0.210 HD
ENDBRANCH  23  24
ENDBRANCH  18  23
BRANCH  20  26
ATOM     26  O   UNL     1      24.575  38.761  11.032  1.00  0.00    -0.350 OA
BRANCH  26  27
ATOM     27  C   UNL     1      23.282  39.161  10.905  1.00  0.00     0.169 C 
BRANCH  27  28
ATOM     28  C   UNL     1      22.534  39.277  12.193  1.00  0.00     0.119 C 
BRANCH  28  29
ATOM     29  N   UNL     1      23.401  40.054  13.101  1.00  0.00    -0.092 NA
ATOM     30  N   UNL     1      23.102  40.041  14.298  1.00  0.00     0.001 N 
ATOM     31  N   UNL     1      22.738  40.157  15.466  1.00  0.00    -0.003 NA
ENDBRANCH  28  29
ENDBRANCH  27  28
ENDBRANCH  26  27
ENDBRANCH  20  26
BRANCH  21  32
ATOM     32  O   UNL     1      23.832  38.130   7.152  1.00  0.00    -0.387 OA
ATOM     33  H   UNL     1      23.907  39.057   7.474  1.00  0.00     0.211 HD
ENDBRANCH  21  32
BRANCH  22  34
ATOM     34  O   UNL     1      24.804  36.059   9.817  1.00  0.00    -0.385 OA
ATOM     35  H   UNL     1      24.646  35.354   9.112  1.00  0.00     0.211 HD
ENDBRANCH  22  34
ENDBRANCH  16  17
ENDBRANCH  11  16
BRANCH  13  36
ATOM     36  O   UNL     1      29.121  35.625   5.932  1.00  0.00    -0.385 OA
ATOM     37  H   UNL     1      29.565  36.352   5.410  1.00  0.00     0.211 HD
ENDBRANCH  13  36
BRANCH  14  38
ATOM     38  O   UNL     1      31.068  35.882   8.211  1.00  0.00    -0.387 OA
ATOM     39  H   UNL     1      31.772  35.323   7.789  1.00  0.00     0.211 HD
ENDBRANCH  14  38
BRANCH  15  40
ATOM     40  O   UNL     1      28.852  36.333   9.920  1.00  0.00    -0.387 OA
ATOM     41  H   UNL     1      29.671  36.860  10.030  1.00  0.00     0.211 HD
ENDBRANCH  15  40
ENDBRANCH   9  10
ENDBRANCH   8   9
ENDBRANCH   3   8
BRANCH   3  42
ATOM     42  C   UNL     1      28.462  34.564  13.298  1.00  0.00     0.364 C 
ATOM     43  O   UNL     1      29.560  34.470  12.711  1.00  0.00    -0.246 OA
BRANCH  42  44
ATOM     44  O   UNL     1      28.468  34.192  14.659  1.00  0.00    -0.477 OA
ATOM     45  H   UNL     1      27.586  33.996  15.083  1.00  0.00     0.296 HD
ENDBRANCH  42  44
ENDBRANCH   3  42
BRANCH   6  46
ATOM     46  O   UNL     1      24.234  34.498  12.052  1.00  0.00    -0.391 OA
ATOM     47  H   UNL     1      24.799  33.860  11.555  1.00  0.00     0.211 HD
ENDBRANCH   6  46
BRANCH   7  48
ATOM     48  N   UNL     1      23.891  36.541  14.708  1.00  0.00    -0.348 N 
ATOM     49  C   UNL     1      22.481  36.449  14.604  1.00  0.00     0.217 C 
ATOM     50  H   UNL     1      24.340  36.817  15.627  1.00  0.00     0.163 HD
ATOM     51  C   UNL     1      21.585  36.736  15.776  1.00  0.00     0.114 C 
ATOM     52  O   UNL     1      22.005  36.117  13.488  1.00  0.00    -0.275 OA
ENDBRANCH   7  48
ENDBRANCH   1   2
BRANCH   1  53
ATOM     53  O   UNL     1      26.200  38.972  13.363  1.00  0.00    -0.388 OA
ATOM     54  H   UNL     1      27.120  39.236  13.135  1.00  0.00     0.211 HD
ENDBRANCH   1  53
BRANCH   1  55
ATOM     55  C   UNL     1      27.178  38.389  15.406  1.00  0.00     0.165 C 
BRANCH  55  56
ATOM     56  O   UNL     1      27.966  37.258  15.703  1.00  0.00    -0.388 OA
ATOM     57  H   UNL     1      28.852  37.454  15.263  1.00  0.00     0.211 HD
ENDBRANCH  55  56
BRANCH  55  58
ATOM     58  C   UNL     1      26.887  39.122  16.662  1.00  0.00     0.154 C 
BRANCH  58  59
ATOM     59  N   UNL     1      26.627  38.342  17.815  1.00  0.00    -0.319 N 
ATOM     60  C   UNL     1      25.405  37.723  18.155  1.00  0.00     0.407 C 
ATOM     61  H   UNL     1      27.453  38.196  18.516  1.00  0.00     0.167 HD
ATOM     62  O   UNL     1      24.374  37.838  17.469  1.00  0.00    -0.225 OA
BRANCH  60  63
ATOM     63  O   UNL     1      25.365  36.955  19.299  1.00  0.00    -0.443 OA
BRANCH  63  64
ATOM     64  C   UNL     1      26.467  36.258  19.763  1.00  0.00     0.294 C 
BRANCH  64  65
ATOM     65  C   UNL     1      26.540  34.857  19.324  1.00  0.00     0.120 A 
ATOM     66  C   UNL     1      27.212  34.307  18.259  1.00  0.00     0.138 A 
ATOM     67  N   UNL     1      25.893  33.799  19.905  1.00  0.00    -0.132 NA
ATOM     68  N   UNL     1      26.974  32.992  18.213  1.00  0.00    -0.251 N 
ATOM     69  N   UNL     1      26.171  32.712  19.222  1.00  0.00    -0.067 NA
BRANCH  68  70
ATOM     70  C   UNL     1      27.485  32.002  17.245  1.00  0.00     0.162 C 
BRANCH  70  71
ATOM     71  C   UNL     1      28.156  30.883  17.971  1.00  0.00     0.132 C 
BRANCH  71  72
ATOM     72  C   UNL     1      27.740  29.561  17.414  1.00  0.00     0.309 C 
ATOM     73  O   UNL     1      27.365  29.411  16.240  1.00  0.00    -0.252 OA
BRANCH  72  74
ATOM     74  O   UNL     1      27.769  28.443  18.229  1.00  0.00    -0.481 OA
ATOM     75  H   UNL     1      26.888  28.021  18.537  1.00  0.00     0.296 HD
ENDBRANCH  72  74
ENDBRANCH  71  72
BRANCH  71  76
ATOM     76  C   UNL     1      29.619  30.975  18.200  1.00  0.00     0.065 C 
BRANCH  76  77
ATOM     77  C   UNL     1      30.381  31.920  17.382  1.00  0.00    -0.040 A 
ATOM     78  C   UNL     1      30.699  31.628  16.048  1.00  0.00     0.004 A 
ATOM     79  C   UNL     1      30.847  33.151  17.850  1.00  0.00     0.004 A 
ATOM     80  C   UNL     1      31.409  32.472  15.253  1.00  0.00     0.000 A 
ATOM     81  C   UNL     1      31.563  33.996  17.038  1.00  0.00     0.000 A 
ATOM     82  C   UNL     1      31.853  33.666  15.729  1.00  0.00     0.000 A 
ENDBRANCH  76  77
BRANCH  76  83
ATOM     83  C   UNL     1      30.002  30.940  19.637  1.00  0.00    -0.040 A 
ATOM     84  C   UNL     1      31.065  30.130  19.976  1.00  0.00     0.004 A 
ATOM     85  C   UNL     1      29.357  31.674  20.595  1.00  0.00     0.004 A 
ATOM     86  C   UNL     1      31.495  30.044  21.270  1.00  0.00     0.000 A 
ATOM     87  C   UNL     1      29.805  31.577  21.909  1.00  0.00     0.000 A 
ATOM     88  C   UNL     1      30.866  30.770  22.254  1.00  0.00     0.000 A 
ENDBRANCH  76  83
ENDBRANCH  71  76
ENDBRANCH  70  71
ENDBRANCH  68  70
ENDBRANCH  64  65
ENDBRANCH  63  64
ENDBRANCH  60  63
ENDBRANCH  58  59
ENDBRANCH  55  58
ENDBRANCH   1  55
TORSDOF 36
BEGIN_RES LYS A 131
REMARK  4 active torsions:
REMARK  status: ('A' for Active; 'I' for Inactive)
REMARK    1  A    between atoms: CA   and  CB  
REMARK    2  A    between atoms: CB   and  CG  
REMARK    3  A    between atoms: CG   and  CD  
REMARK    4  A    between atoms: CD   and  CE  
ROOT
ATOM      1  CA  LYS A 131      29.867  25.555  16.977  1.00 20.52     0.186 C 
ENDROOT
BRANCH   1   2
ATOM      2  CB  LYS A 131      28.345  25.722  17.026  1.00 20.94     0.034 C 
BRANCH   2   3
ATOM      3  CG  LYS A 131      27.601  24.402  16.892  1.00 22.96     0.005 C 
BRANCH   3   4
ATOM      4  CD  LYS A 131      26.151  24.528  17.270  1.00 24.33     0.041 C 
BRANCH   4   5
ATOM      5  CE  LYS A 131      25.618  23.166  17.701  1.00 26.91     0.338 C 
ATOM      6  NZ  LYS A 131      24.256  22.947  17.158  1.00 27.40     0.618 N 
ENDBRANCH   4   5
ENDBRANCH   3   4
ENDBRANCH   2   3
ENDBRANCH   1   2
END_RES LYS A 131
BEGIN_RES LYS A 135
REMARK  4 active torsions:
REMARK  status: ('A' for Active; 'I' for Inactive)
REMARK    5  A    between atoms: CA   and  CB  
REMARK    6  A    between atoms: CB   and  CG  
REMARK    7  A    between atoms: CG   and  CD  
REMARK    8  A    between atoms: CD   and  CE  
ROOT
ATOM      7  CA  LYS A 135      33.193  34.663   9.290  1.00 25.02     0.186 C 
ENDROOT
BRANCH   7   8
ATOM      8  CB  LYS A 135      32.060  35.360  10.034  1.00 26.63     0.034 C 
BRANCH   8   9
ATOM      9  CG  LYS A 135      32.495  36.011  11.321  1.00 29.45     0.005 C 
BRANCH   9  10
ATOM     10  CD  LYS A 135      31.959  37.431  11.413  1.00 32.00     0.041 C 
BRANCH  10  11
ATOM     11  CE  LYS A 135      31.194  37.630  12.707  1.00 34.25     0.338 C 
ATOM     12  NZ  LYS A 135      31.895  36.980  13.849  1.00 35.99     0.618 N 
ENDBRANCH  10  11
ENDBRANCH   9  10
ENDBRANCH   8   9
ENDBRANCH   7   8
END_RES LYS A 135
