REMARK VINA RESULT:    -5.535      2.506      7.216
REMARK INTER + INTRA:         -23.919
REMARK INTER:                 -14.559
REMARK INTRA:                  -9.361
REMARK UNBOUND:                -9.487
REMARK SMILES CC(=O)N[C@@H]1[C@@H](O)C[C@](OC[C@H]2O[C@@H](O[C@H]3[C@H](O)[C@@H](O)[C@H](OCCN=[N+]=[N-])O[C@@H]3CO)[C@H](O)[C@@H](O)[C@H]2O)(C(=O)O)O[C@H]1C(O)[C@H](O)CNC(=O)OCc1cn(Cc2ccc(C(=O)O)cc2)nn1
REMARK SMILES IDX 43 1 42 2 9 3 8 4 41 5 6 6 5 7 10 8 11 9 12 10 14 11 13 12
REMARK SMILES IDX 32 13 34 14 36 15 15 16 16 17 29 18 28 19 21 20 17 21 19 22
REMARK SMILES IDX 30 23 31 24 22 26 23 27 24 28 25 29 26 30 27 31 18 32 20 34
REMARK SMILES IDX 33 36 35 38 37 40 38 42 39 43 40 44 7 46 4 48 2 49 1 51 3 52
REMARK SMILES IDX 44 53 45 55 46 56 47 58 48 59 49 60 50 62 51 63 52 64 53 65
REMARK SMILES IDX 54 66 67 67 55 68 66 69 56 70 57 71 58 72 65 73 59 74 64 75
REMARK SMILES IDX 60 76 61 77 62 78 63 79
REMARK H PARENT 31 25 18 33 20 35 33 37 35 39 37 41 40 45 7 47 4 50 44 54
REMARK H PARENT 46 57 48 61 63 80
REMARK Flexibility Score: inf
ROOT
ATOM      1  C   UNL     1      30.460  38.748   8.293  1.00  0.00     0.176 C 
ENDROOT
BRANCH   1   2
ATOM      2  C   UNL     1      29.316  39.297   7.414  1.00  0.00     0.178 C 
ATOM      3  C   UNL     1      27.117  38.503   7.045  1.00  0.00     0.272 C 
ATOM      4  C   UNL     1      27.425  38.435   5.603  1.00  0.00     0.113 C 
ATOM      5  O   UNL     1      28.202  38.698   7.861  1.00  0.00    -0.332 OA
ATOM      6  C   UNL     1      28.869  38.081   5.313  1.00  0.00     0.145 C 
ATOM      7  C   UNL     1      29.713  39.110   6.006  1.00  0.00     0.142 C 
BRANCH   3   8
ATOM      8  O   UNL     1      26.529  37.348   7.490  1.00  0.00    -0.338 OA
BRANCH   8   9
ATOM      9  C   UNL     1      26.496  37.069   8.810  1.00  0.00     0.199 C 
BRANCH   9  10
ATOM     10  C   UNL     1      25.099  36.530   9.204  1.00  0.00     0.179 C 
ATOM     11  C   UNL     1      24.063  35.215  10.824  1.00  0.00     0.282 C 
ATOM     12  O   UNL     1      25.248  35.638  10.225  1.00  0.00    -0.341 OA
ATOM     13  C   UNL     1      22.831  35.630  10.101  1.00  0.00     0.202 C 
ATOM     14  C   UNL     1      22.853  37.137   9.956  1.00  0.00     0.179 C 
ATOM     15  C   UNL     1      24.189  37.679   9.554  1.00  0.00     0.177 C 
BRANCH  11  16
ATOM     16  O   UNL     1      24.056  35.684  12.137  1.00  0.00    -0.341 OA
BRANCH  16  17
ATOM     17  C   UNL     1      24.350  34.700  13.035  1.00  0.00     0.184 C 
ATOM     18  C   UNL     1      23.395  34.648  14.170  1.00  0.00     0.178 C 
ATOM     19  O   UNL     1      23.565  33.473  14.917  1.00  0.00    -0.341 OA
ATOM     20  C   UNL     1      24.920  33.189  15.101  1.00  0.00     0.281 C 
ATOM     21  C   UNL     1      25.761  35.011  13.572  1.00  0.00     0.180 C 
ATOM     22  C   UNL     1      25.819  34.380  14.947  1.00  0.00     0.202 C 
BRANCH  18  23
ATOM     23  C   UNL     1      21.977  34.677  13.676  1.00  0.00     0.191 C 
BRANCH  23  24
ATOM     24  O   UNL     1      21.663  36.043  13.489  1.00  0.00    -0.394 OA
ATOM     25  H   UNL     1      21.799  36.538  14.319  1.00  0.00     0.210 HD
ENDBRANCH  23  24
ENDBRANCH  18  23
BRANCH  20  26
ATOM     26  O   UNL     1      25.278  32.152  14.272  1.00  0.00    -0.350 OA
BRANCH  26  27
ATOM     27  C   UNL     1      24.723  30.932  14.587  1.00  0.00     0.169 C 
BRANCH  27  28
ATOM     28  C   UNL     1      25.032  30.418  15.953  1.00  0.00     0.119 C 
BRANCH  28  29
ATOM     29  N   UNL     1      26.482  30.171  15.990  1.00  0.00    -0.092 NA
ATOM     30  N   UNL     1      26.969  29.176  16.516  1.00  0.00     0.001 N 
ATOM     31  N   UNL     1      27.217  28.191  17.202  1.00  0.00    -0.003 NA
ENDBRANCH  28  29
ENDBRANCH  27  28
ENDBRANCH  26  27
ENDBRANCH  20  26
BRANCH  21  32
ATOM     32  O   UNL     1      26.719  34.493  12.729  1.00  0.00    -0.387 OA
ATOM     33  H   UNL     1      26.320  33.832  12.075  1.00  0.00     0.211 HD
ENDBRANCH  21  32
BRANCH  22  34
ATOM     34  O   UNL     1      25.584  35.337  15.906  1.00  0.00    -0.385 OA
ATOM     35  H   UNL     1      26.217  36.075  15.868  1.00  0.00     0.211 HD
ENDBRANCH  22  34
ENDBRANCH  16  17
ENDBRANCH  11  16
BRANCH  13  36
ATOM     36  O   UNL     1      22.736  35.025   8.839  1.00  0.00    -0.385 OA
ATOM     37  H   UNL     1      23.561  35.287   8.347  1.00  0.00     0.211 HD
ENDBRANCH  13  36
BRANCH  14  38
ATOM     38  O   UNL     1      22.432  37.767  11.128  1.00  0.00    -0.387 OA
ATOM     39  H   UNL     1      22.049  38.654  10.879  1.00  0.00     0.211 HD
ENDBRANCH  14  38
BRANCH  15  40
ATOM     40  O   UNL     1      24.749  38.497  10.545  1.00  0.00    -0.387 OA
ATOM     41  H   UNL     1      25.534  38.947  10.138  1.00  0.00     0.211 HD
ENDBRANCH  15  40
ENDBRANCH   9  10
ENDBRANCH   8   9
ENDBRANCH   3   8
BRANCH   3  42
ATOM     42  C   UNL     1      26.215  39.689   7.281  1.00  0.00     0.364 C 
ATOM     43  O   UNL     1      25.461  40.113   6.370  1.00  0.00    -0.246 OA
BRANCH  42  44
ATOM     44  O   UNL     1      26.184  40.348   8.500  1.00  0.00    -0.477 OA
ATOM     45  H   UNL     1      27.077  40.430   9.011  1.00  0.00     0.296 HD
ENDBRANCH  42  44
ENDBRANCH   3  42
BRANCH   6  46
ATOM     46  O   UNL     1      29.077  36.791   5.750  1.00  0.00    -0.391 OA
ATOM     47  H   UNL     1      29.796  36.366   5.212  1.00  0.00     0.211 HD
ENDBRANCH   6  46
BRANCH   7  48
ATOM     48  N   UNL     1      29.573  40.372   5.290  1.00  0.00    -0.348 N 
ATOM     49  C   UNL     1      30.719  41.056   4.753  1.00  0.00     0.217 C 
ATOM     50  H   UNL     1      28.664  40.855   5.123  1.00  0.00     0.163 HD
ATOM     51  C   UNL     1      30.534  42.350   4.024  1.00  0.00     0.114 C 
ATOM     52  O   UNL     1      31.841  40.549   4.910  1.00  0.00    -0.275 OA
ENDBRANCH   7  48
ENDBRANCH   1   2
BRANCH   1  53
ATOM     53  O   UNL     1      30.702  37.424   8.120  1.00  0.00    -0.388 OA
ATOM     54  H   UNL     1      30.506  37.051   7.232  1.00  0.00     0.211 HD
ENDBRANCH   1  53
BRANCH   1  55
ATOM     55  C   UNL     1      31.695  39.609   8.183  1.00  0.00     0.165 C 
BRANCH  55  56
ATOM     56  O   UNL     1      32.615  38.986   7.401  1.00  0.00    -0.388 OA
ATOM     57  H   UNL     1      32.270  38.333   6.761  1.00  0.00     0.211 HD
ENDBRANCH  55  56
BRANCH  55  58
ATOM     58  C   UNL     1      32.109  40.082   9.523  1.00  0.00     0.154 C 
BRANCH  58  59
ATOM     59  N   UNL     1      31.541  39.294  10.582  1.00  0.00    -0.319 N 
ATOM     60  C   UNL     1      31.206  39.798  11.858  1.00  0.00     0.407 C 
ATOM     61  H   UNL     1      31.351  38.266  10.423  1.00  0.00     0.167 HD
ATOM     62  O   UNL     1      31.381  40.987  12.164  1.00  0.00    -0.225 OA
BRANCH  60  63
ATOM     63  O   UNL     1      30.649  38.994  12.872  1.00  0.00    -0.443 OA
BRANCH  63  64
ATOM     64  C   UNL     1      29.731  37.970  12.533  1.00  0.00     0.294 C 
BRANCH  64  65
ATOM     65  C   UNL     1      30.085  36.668  13.123  1.00  0.00     0.120 A 
ATOM     66  C   UNL     1      31.270  36.242  13.657  1.00  0.00     0.138 A 
ATOM     67  N   UNL     1      29.233  35.628  13.210  1.00  0.00    -0.132 NA
ATOM     68  N   UNL     1      31.106  34.959  14.050  1.00  0.00    -0.248 N 
ATOM     69  N   UNL     1      29.864  34.612  13.768  1.00  0.00    -0.067 NA
BRANCH  68  70
ATOM     70  C   UNL     1      32.128  34.148  14.659  1.00  0.00     0.181 C 
BRANCH  70  71
ATOM     71  C   UNL     1      31.569  33.352  15.770  1.00  0.00    -0.026 A 
ATOM     72  C   UNL     1      31.113  32.073  15.539  1.00  0.00     0.006 A 
ATOM     73  C   UNL     1      31.483  33.895  17.050  1.00  0.00     0.006 A 
ATOM     74  C   UNL     1      30.584  31.389  16.620  1.00  0.00     0.016 A 
ATOM     75  C   UNL     1      30.954  33.210  18.120  1.00  0.00     0.016 A 
ATOM     76  C   UNL     1      30.500  31.933  17.886  1.00  0.00     0.059 A 
BRANCH  76  77
ATOM     77  C   UNL     1      29.928  31.163  18.979  1.00  0.00     0.335 C 
ATOM     78  O   UNL     1      30.070  31.540  20.150  1.00  0.00    -0.246 OA
BRANCH  77  79
ATOM     79  O   UNL     1      29.227  30.009  18.709  1.00  0.00    -0.478 OA
ATOM     80  H   UNL     1      28.476  29.978  18.021  1.00  0.00     0.297 HD
ENDBRANCH  77  79
ENDBRANCH  76  77
ENDBRANCH  70  71
ENDBRANCH  68  70
ENDBRANCH  64  65
ENDBRANCH  63  64
ENDBRANCH  60  63
ENDBRANCH  58  59
ENDBRANCH  55  58
ENDBRANCH   1  55
TORSDOF 33
BEGIN_RES LYS A 131
REMARK  4 active torsions:
REMARK  status: ('A' for Active; 'I' for Inactive)
REMARK    1  A    between atoms: CA   and  CB  
REMARK    2  A    between atoms: CB   and  CG  
REMARK    3  A    between atoms: CG   and  CD  
REMARK    4  A    between atoms: CD   and  CE  
ROOT
ATOM      1  CA  LYS A 131      29.867  25.555  16.977  1.00 20.52     0.186 C 
ENDROOT
BRANCH   1   2
ATOM      2  CB  LYS A 131      28.345  25.722  17.026  1.00 20.94     0.034 C 
BRANCH   2   3
ATOM      3  CG  LYS A 131      27.601  24.401  16.903  1.00 22.96     0.005 C 
BRANCH   3   4
ATOM      4  CD  LYS A 131      26.556  24.238  17.972  1.00 24.33     0.041 C 
BRANCH   4   5
ATOM      5  CE  LYS A 131      25.219  23.889  17.326  1.00 26.91     0.338 C 
ATOM      6  NZ  LYS A 131      24.859  22.479  17.607  1.00 27.40     0.618 N 
ENDBRANCH   4   5
ENDBRANCH   3   4
ENDBRANCH   2   3
ENDBRANCH   1   2
END_RES LYS A 131
BEGIN_RES LYS A 135
REMARK  4 active torsions:
REMARK  status: ('A' for Active; 'I' for Inactive)
REMARK    5  A    between atoms: CA   and  CB  
REMARK    6  A    between atoms: CB   and  CG  
REMARK    7  A    between atoms: CG   and  CD  
REMARK    8  A    between atoms: CD   and  CE  
ROOT
ATOM      7  CA  LYS A 135      33.193  34.663   9.290  1.00 25.02     0.186 C 
ENDROOT
BRANCH   7   8
ATOM      8  CB  LYS A 135      32.060  35.360  10.034  1.00 26.63     0.034 C 
BRANCH   8   9
ATOM      9  CG  LYS A 135      30.791  34.549  10.096  1.00 29.45     0.005 C 
BRANCH   9  10
ATOM     10  CD  LYS A 135      30.370  34.105   8.703  1.00 32.00     0.041 C 
BRANCH  10  11
ATOM     11  CE  LYS A 135      28.913  34.444   8.454  1.00 34.25     0.338 C 
ATOM     12  NZ  LYS A 135      28.025  33.732   9.415  1.00 35.99     0.618 N 
ENDBRANCH  10  11
ENDBRANCH   9  10
ENDBRANCH   8   9
ENDBRANCH   7   8
END_RES LYS A 135
