REMARK VINA RESULT:    -6.857      2.747      6.582
REMARK INTER + INTRA:         -20.305
REMARK INTER:                 -10.457
REMARK INTRA:                  -9.848
REMARK UNBOUND:                -1.022
REMARK SMILES CC(=O)N[C@@H]1[C@@H](O)C[C@](OC[C@H]2O[C@@H](O[C@H]3[C@H](O)[C@@H](O)[C@H](OCCN=[N+]=[N-])O[C@@H]3CO)[C@H](O)[C@@H](O)[C@H]2O)(C(=O)O)O[C@H]1C(O)[C@H](O)CNC(=O)OCc1cn(C2CC(O)C=C[C@@H](O)C2)nn1
REMARK SMILES IDX 43 1 42 2 9 3 8 4 41 5 6 6 5 7 10 8 11 9 12 10 14 11 13 12
REMARK SMILES IDX 32 13 34 14 36 15 15 16 16 17 29 18 28 19 21 20 17 21 19 22
REMARK SMILES IDX 30 23 31 24 22 26 23 27 24 28 25 29 26 30 27 31 18 32 20 34
REMARK SMILES IDX 33 36 35 38 37 40 38 42 39 43 40 44 7 46 4 48 2 49 1 51 3 52
REMARK SMILES IDX 44 53 45 55 46 56 47 58 48 59 49 60 50 62 51 63 52 64 53 65
REMARK SMILES IDX 54 66 66 67 55 68 65 69 56 70 57 71 58 72 59 74 64 76 62 77
REMARK SMILES IDX 61 78 60 79 63 81
REMARK H PARENT 31 25 18 33 20 35 33 37 35 39 37 41 40 45 7 47 4 50 44 54
REMARK H PARENT 46 57 48 61 59 75 63 82
REMARK Flexibility Score: 90.00
ROOT
ATOM      1  C   UNL     1      28.259  39.778  10.029  1.00  0.00     0.176 C 
ENDROOT
BRANCH   1   2
ATOM      2  C   UNL     1      26.958  39.734   9.247  1.00  0.00     0.178 C 
ATOM      3  C   UNL     1      25.078  38.323   9.148  1.00  0.00     0.272 C 
ATOM      4  C   UNL     1      24.682  38.873   7.827  1.00  0.00     0.113 C 
ATOM      5  O   UNL     1      26.335  38.500   9.588  1.00  0.00    -0.332 OA
ATOM      6  C   UNL     1      25.555  39.960   7.314  1.00  0.00     0.145 C 
ATOM      7  C   UNL     1      27.027  39.735   7.782  1.00  0.00     0.142 C 
BRANCH   3   8
ATOM      8  O   UNL     1      24.701  36.965   9.183  1.00  0.00    -0.338 OA
BRANCH   8   9
ATOM      9  C   UNL     1      23.795  36.596   8.232  1.00  0.00     0.199 C 
BRANCH   9  10
ATOM     10  C   UNL     1      22.753  35.638   8.812  1.00  0.00     0.179 C 
ATOM     11  C   UNL     1      22.112  35.171  10.980  1.00  0.00     0.282 C 
ATOM     12  O   UNL     1      23.156  35.289  10.062  1.00  0.00    -0.341 OA
ATOM     13  C   UNL     1      21.569  36.581  11.119  1.00  0.00     0.202 C 
ATOM     14  C   UNL     1      20.803  36.860   9.846  1.00  0.00     0.179 C 
ATOM     15  C   UNL     1      21.365  36.154   8.653  1.00  0.00     0.177 C 
BRANCH  11  16
ATOM     16  O   UNL     1      22.603  34.646  12.152  1.00  0.00    -0.341 OA
BRANCH  16  17
ATOM     17  C   UNL     1      23.824  35.251  12.462  1.00  0.00     0.184 C 
ATOM     18  C   UNL     1      24.954  34.271  12.272  1.00  0.00     0.178 C 
ATOM     19  O   UNL     1      25.068  33.327  13.260  1.00  0.00    -0.341 OA
ATOM     20  C   UNL     1      24.212  33.528  14.341  1.00  0.00     0.281 C 
ATOM     21  C   UNL     1      23.830  35.882  13.828  1.00  0.00     0.180 C 
ATOM     22  C   UNL     1      24.379  34.948  14.873  1.00  0.00     0.202 C 
BRANCH  18  23
ATOM     23  C   UNL     1      26.278  35.003  12.098  1.00  0.00     0.191 C 
BRANCH  23  24
ATOM     24  O   UNL     1      26.114  36.249  11.523  1.00  0.00    -0.394 OA
ATOM     25  H   UNL     1      26.666  36.934  11.931  1.00  0.00     0.210 HD
ENDBRANCH  23  24
ENDBRANCH  18  23
BRANCH  20  26
ATOM     26  O   UNL     1      24.593  32.605  15.310  1.00  0.00    -0.350 OA
BRANCH  26  27
ATOM     27  C   UNL     1      25.246  31.550  14.685  1.00  0.00     0.169 C 
BRANCH  27  28
ATOM     28  C   UNL     1      25.047  30.249  15.443  1.00  0.00     0.119 C 
BRANCH  28  29
ATOM     29  N   UNL     1      23.792  29.625  15.075  1.00  0.00    -0.092 NA
ATOM     30  N   UNL     1      23.629  29.251  13.902  1.00  0.00     0.001 N 
ATOM     31  N   UNL     1      23.554  29.019  12.688  1.00  0.00    -0.003 NA
ENDBRANCH  28  29
ENDBRANCH  27  28
ENDBRANCH  26  27
ENDBRANCH  20  26
BRANCH  21  32
ATOM     32  O   UNL     1      24.574  37.062  13.812  1.00  0.00    -0.387 OA
ATOM     33  H   UNL     1      25.543  36.887  13.741  1.00  0.00     0.211 HD
ENDBRANCH  21  32
BRANCH  22  34
ATOM     34  O   UNL     1      23.689  35.078  16.072  1.00  0.00    -0.385 OA
ATOM     35  H   UNL     1      22.752  35.363  15.911  1.00  0.00     0.211 HD
ENDBRANCH  22  34
ENDBRANCH  16  17
ENDBRANCH  11  16
BRANCH  13  36
ATOM     36  O   UNL     1      20.767  36.774  12.211  1.00  0.00    -0.385 OA
ATOM     37  H   UNL     1      19.946  37.263  12.044  1.00  0.00     0.211 HD
ENDBRANCH  13  36
BRANCH  14  38
ATOM     38  O   UNL     1      20.773  38.245   9.692  1.00  0.00    -0.387 OA
ATOM     39  H   UNL     1      21.504  38.552   9.086  1.00  0.00     0.211 HD
ENDBRANCH  14  38
BRANCH  15  40
ATOM     40  O   UNL     1      21.373  37.020   7.542  1.00  0.00    -0.387 OA
ATOM     41  H   UNL     1      21.861  36.672   6.782  1.00  0.00     0.211 HD
ENDBRANCH  15  40
ENDBRANCH   9  10
ENDBRANCH   8   9
ENDBRANCH   3   8
BRANCH   3  42
ATOM     42  C   UNL     1      24.177  38.999  10.160  1.00  0.00     0.364 C 
ATOM     43  O   UNL     1      23.236  39.764   9.822  1.00  0.00    -0.246 OA
BRANCH  42  44
ATOM     44  O   UNL     1      24.419  38.747  11.501  1.00  0.00    -0.477 OA
ATOM     45  H   UNL     1      24.345  39.488  12.198  1.00  0.00     0.296 HD
ENDBRANCH  42  44
ENDBRANCH   3  42
BRANCH   6  46
ATOM     46  O   UNL     1      25.504  40.053   5.946  1.00  0.00    -0.391 OA
ATOM     47  H   UNL     1      24.659  39.684   5.611  1.00  0.00     0.211 HD
ENDBRANCH   6  46
BRANCH   7  48
ATOM     48  N   UNL     1      27.864  40.630   7.080  1.00  0.00    -0.348 N 
ATOM     49  C   UNL     1      28.586  40.189   5.942  1.00  0.00     0.217 C 
ATOM     50  H   UNL     1      27.943  41.625   7.360  1.00  0.00     0.163 HD
ATOM     51  C   UNL     1      29.473  41.113   5.188  1.00  0.00     0.114 C 
ATOM     52  O   UNL     1      28.478  38.999   5.563  1.00  0.00    -0.275 OA
ENDBRANCH   7  48
ENDBRANCH   1   2
BRANCH   1  53
ATOM     53  O   UNL     1      29.121  38.988   9.146  1.00  0.00    -0.388 OA
ATOM     54  H   UNL     1      28.686  38.983   8.237  1.00  0.00     0.211 HD
ENDBRANCH   1  53
BRANCH   1  55
ATOM     55  C   UNL     1      28.261  38.933  11.270  1.00  0.00     0.165 C 
BRANCH  55  56
ATOM     56  O   UNL     1      27.230  39.254  12.121  1.00  0.00    -0.388 OA
ATOM     57  H   UNL     1      26.658  38.492  12.363  1.00  0.00     0.211 HD
ENDBRANCH  55  56
BRANCH  55  58
ATOM     58  C   UNL     1      29.551  39.133  12.058  1.00  0.00     0.154 C 
BRANCH  58  59
ATOM     59  N   UNL     1      30.462  38.038  11.976  1.00  0.00    -0.319 N 
ATOM     60  C   UNL     1      31.207  37.564  13.092  1.00  0.00     0.407 C 
ATOM     61  H   UNL     1      30.605  37.541  11.046  1.00  0.00     0.167 HD
ATOM     62  O   UNL     1      31.032  38.165  14.190  1.00  0.00    -0.225 OA
BRANCH  60  63
ATOM     63  O   UNL     1      32.069  36.501  12.953  1.00  0.00    -0.443 OA
BRANCH  63  64
ATOM     64  C   UNL     1      32.561  35.811  14.099  1.00  0.00     0.294 C 
BRANCH  64  65
ATOM     65  C   UNL     1      31.523  34.848  14.528  1.00  0.00     0.120 A 
ATOM     66  C   UNL     1      31.115  34.549  15.802  1.00  0.00     0.138 A 
ATOM     67  N   UNL     1      30.789  34.078  13.706  1.00  0.00    -0.132 NA
ATOM     68  N   UNL     1      30.147  33.603  15.709  1.00  0.00    -0.249 N 
ATOM     69  N   UNL     1      29.974  33.342  14.430  1.00  0.00    -0.067 NA
BRANCH  68  70
ATOM     70  C   UNL     1      29.424  32.978  16.826  1.00  0.00     0.115 C 
BRANCH  70  71
ATOM     71  C   UNL     1      27.963  33.018  16.528  1.00  0.00     0.063 C 
BRANCH  71  72
ATOM     72  C   UNL     1      27.186  32.989  17.848  1.00  0.00     0.139 CG0
ATOM     73  G   UNL     1      27.191  31.617  18.379  1.00  0.00     0.000 G0
BRANCH  72  74
ATOM     74  O   UNL     1      25.887  33.451  17.644  1.00  0.00    -0.389 OA
ATOM     75  H   UNL     1      25.339  32.682  17.317  1.00  0.00     0.211 HD
ENDBRANCH  72  74
ENDBRANCH  71  72
ENDBRANCH  70  71
BRANCH  70  76
ATOM     76  C   UNL     1      29.913  31.572  16.979  1.00  0.00     0.063 C 
BRANCH  76  77
ATOM     77  C   UNL     1      29.677  31.184  18.443  1.00  0.00     0.139 C 
BRANCH  77  78
ATOM     78  C   UNL     1      28.248  30.821  18.638  1.00  0.00     0.002 C 
ATOM     79  C   UNL     1      27.203  31.595  18.384  1.00  0.00     0.002 CG0
ATOM     80  G   UNL     1      27.156  32.970  17.860  1.00  0.00     0.000 G0
ENDBRANCH  77  78
BRANCH  77  81
ATOM     81  O   UNL     1      30.521  30.160  18.844  1.00  0.00    -0.389 OA
ATOM     82  H   UNL     1      30.341  29.376  18.253  1.00  0.00     0.211 HD
ENDBRANCH  77  81
ENDBRANCH  76  77
ENDBRANCH  70  76
ENDBRANCH  68  70
ENDBRANCH  64  65
ENDBRANCH  63  64
ENDBRANCH  60  63
ENDBRANCH  58  59
ENDBRANCH  55  58
ENDBRANCH   1  55
TORSDOF 32
BEGIN_RES LYS A 131
REMARK  4 active torsions:
REMARK  status: ('A' for Active; 'I' for Inactive)
REMARK    1  A    between atoms: CA   and  CB  
REMARK    2  A    between atoms: CB   and  CG  
REMARK    3  A    between atoms: CG   and  CD  
REMARK    4  A    between atoms: CD   and  CE  
ROOT
ATOM      1  CA  LYS A 131      29.867  25.555  16.977  1.00 20.52     0.186 C 
ENDROOT
BRANCH   1   2
ATOM      2  CB  LYS A 131      28.345  25.722  17.026  1.00 20.94     0.034 C 
BRANCH   2   3
ATOM      3  CG  LYS A 131      27.609  24.397  17.149  1.00 22.96     0.005 C 
BRANCH   3   4
ATOM      4  CD  LYS A 131      26.132  24.586  17.355  1.00 24.33     0.041 C 
BRANCH   4   5
ATOM      5  CE  LYS A 131      25.838  24.713  18.847  1.00 26.91     0.338 C 
ATOM      6  NZ  LYS A 131      24.376  24.689  19.091  1.00 27.40     0.618 N 
ENDBRANCH   4   5
ENDBRANCH   3   4
ENDBRANCH   2   3
ENDBRANCH   1   2
END_RES LYS A 131
BEGIN_RES LYS A 135
REMARK  4 active torsions:
REMARK  status: ('A' for Active; 'I' for Inactive)
REMARK    5  A    between atoms: CA   and  CB  
REMARK    6  A    between atoms: CB   and  CG  
REMARK    7  A    between atoms: CG   and  CD  
REMARK    8  A    between atoms: CD   and  CE  
ROOT
ATOM      7  CA  LYS A 135      33.193  34.663   9.290  1.00 25.02     0.186 C 
ENDROOT
BRANCH   7   8
ATOM      8  CB  LYS A 135      32.060  35.360  10.034  1.00 26.63     0.034 C 
BRANCH   8   9
ATOM      9  CG  LYS A 135      30.885  35.705   9.156  1.00 29.45     0.005 C 
BRANCH   9  10
ATOM     10  CD  LYS A 135      30.265  34.447   8.569  1.00 32.00     0.041 C 
BRANCH  10  11
ATOM     11  CE  LYS A 135      28.762  34.603   8.442  1.00 34.25     0.338 C 
ATOM     12  NZ  LYS A 135      28.049  33.751   9.435  1.00 35.99     0.618 N 
ENDBRANCH  10  11
ENDBRANCH   9  10
ENDBRANCH   8   9
ENDBRANCH   7   8
END_RES LYS A 135
