REMARK VINA RESULT:    -4.307      4.974      9.762
REMARK INTER + INTRA:         -21.209
REMARK INTER:                 -10.980
REMARK INTRA:                 -10.230
REMARK UNBOUND:               -10.230
REMARK SMILES CC(=O)N[C@@H]1[C@@H](O)C[C@](OC[C@H]2O[C@@H](O[C@H]3[C@H](O)[C@@H](O)[C@H](OCCN=[N+]=[N-])O[C@@H]3CO)[C@H](O)[C@@H](O)[C@H]2O)(C(=O)O)O[C@H]1C(O)[C@H](O)CNC(=O)OCc1cn(C(C)(C)CO)nn1
REMARK SMILES IDX 9 1 8 2 6 3 5 4 42 5 41 6 10 7 11 8 12 9 14 10 13 11 32 12
REMARK SMILES IDX 34 13 36 14 15 15 16 16 29 17 28 18 21 19 17 20 19 21 30 22
REMARK SMILES IDX 31 23 22 25 23 26 24 27 25 28 26 29 27 30 18 31 20 33 33 35
REMARK SMILES IDX 35 37 37 39 38 41 39 42 40 43 7 45 43 47 44 48 45 50 46 51
REMARK SMILES IDX 47 53 48 54 49 55 50 57 51 58 52 59 53 60 54 61 62 62 55 63
REMARK SMILES IDX 61 64 56 65 57 66 58 67 59 68 60 69 4 71 2 72 1 74 3 75
REMARK H PARENT 31 24 18 32 20 34 33 36 35 38 37 40 40 44 7 46 44 49 46 52
REMARK H PARENT 48 56 60 70 4 73
REMARK Flexibility Score: inf
ROOT
ATOM      1  C   UNL     1      21.631  36.153  10.712  1.00  0.00     0.272 C 
ATOM      2  C   UNL     1      20.706  35.150  11.349  1.00  0.00     0.113 C 
ATOM      3  C   UNL     1      21.086  35.036  12.806  1.00  0.00     0.145 C 
ATOM      4  C   UNL     1      22.445  34.298  12.810  1.00  0.00     0.142 C 
ATOM      5  C   UNL     1      23.356  35.075  11.908  1.00  0.00     0.178 C 
ATOM      6  O   UNL     1      22.822  36.288  11.521  1.00  0.00    -0.332 OA
ENDROOT
BRANCH   1   7
ATOM      7  O   UNL     1      21.150  37.421  10.693  1.00  0.00    -0.338 OA
BRANCH   7   8
ATOM      8  C   UNL     1      21.842  38.486  11.060  1.00  0.00     0.199 C 
BRANCH   8   9
ATOM      9  C   UNL     1      22.445  39.472  10.146  1.00  0.00     0.179 C 
ATOM     10  C   UNL     1      24.380  39.822   8.941  1.00  0.00     0.282 C 
ATOM     11  O   UNL     1      23.602  38.870   9.546  1.00  0.00    -0.341 OA
ATOM     12  C   UNL     1      23.713  41.106   8.598  1.00  0.00     0.202 C 
ATOM     13  C   UNL     1      22.248  40.969   8.247  1.00  0.00     0.179 C 
ATOM     14  C   UNL     1      21.600  39.803   8.922  1.00  0.00     0.177 C 
BRANCH  10  15
ATOM     15  O   UNL     1      25.022  39.218   7.856  1.00  0.00    -0.341 OA
BRANCH  15  16
ATOM     16  C   UNL     1      26.393  39.304   7.902  1.00  0.00     0.184 C 
ATOM     17  C   UNL     1      27.046  39.331   6.538  1.00  0.00     0.178 C 
ATOM     18  O   UNL     1      28.131  38.487   6.429  1.00  0.00    -0.341 OA
ATOM     19  C   UNL     1      27.874  37.154   6.607  1.00  0.00     0.281 C 
ATOM     20  C   UNL     1      26.869  38.029   8.623  1.00  0.00     0.180 C 
ATOM     21  C   UNL     1      26.732  36.940   7.574  1.00  0.00     0.202 C 
BRANCH  17  22
ATOM     22  C   UNL     1      27.579  40.747   6.361  1.00  0.00     0.191 C 
BRANCH  22  23
ATOM     23  O   UNL     1      26.943  41.601   7.263  1.00  0.00    -0.394 OA
ATOM     24  H   UNL     1      26.407  42.295   6.836  1.00  0.00     0.210 HD
ENDBRANCH  22  23
ENDBRANCH  17  22
BRANCH  19  25
ATOM     25  O   UNL     1      29.048  36.556   7.031  1.00  0.00    -0.350 OA
BRANCH  25  26
ATOM     26  C   UNL     1      28.984  35.217   7.255  1.00  0.00     0.169 C 
BRANCH  26  27
ATOM     27  C   UNL     1      29.661  34.768   8.541  1.00  0.00     0.119 C 
BRANCH  27  28
ATOM     28  N   UNL     1      28.849  33.795   9.246  1.00  0.00    -0.092 NA
ATOM     29  N   UNL     1      27.810  34.204   9.785  1.00  0.00     0.001 N 
ATOM     30  N   UNL     1      26.605  34.421  10.037  1.00  0.00    -0.003 NA
ENDBRANCH  27  28
ENDBRANCH  26  27
ENDBRANCH  25  26
ENDBRANCH  19  25
BRANCH  20  31
ATOM     31  O   UNL     1      28.205  38.272   8.956  1.00  0.00    -0.387 OA
ATOM     32  H   UNL     1      28.561  38.842   8.223  1.00  0.00     0.211 HD
ENDBRANCH  20  31
BRANCH  21  33
ATOM     33  O   UNL     1      25.543  37.194   6.870  1.00  0.00    -0.385 OA
ATOM     34  H   UNL     1      25.653  36.931   5.907  1.00  0.00     0.211 HD
ENDBRANCH  21  33
ENDBRANCH  15  16
ENDBRANCH  10  15
BRANCH  12  35
ATOM     35  O   UNL     1      23.919  42.130   9.525  1.00  0.00    -0.385 OA
ATOM     36  H   UNL     1      24.862  42.382   9.461  1.00  0.00     0.211 HD
ENDBRANCH  12  35
BRANCH  13  37
ATOM     37  O   UNL     1      22.069  40.911   6.854  1.00  0.00    -0.387 OA
ATOM     38  H   UNL     1      22.203  39.986   6.517  1.00  0.00     0.211 HD
ENDBRANCH  13  37
BRANCH  14  39
ATOM     39  O   UNL     1      21.725  38.705   8.040  1.00  0.00    -0.387 OA
ATOM     40  H   UNL     1      21.131  38.828   7.270  1.00  0.00     0.211 HD
ENDBRANCH  14  39
ENDBRANCH   8   9
ENDBRANCH   7   8
ENDBRANCH   1   7
BRANCH   1  41
ATOM     41  C   UNL     1      22.169  35.696   9.431  1.00  0.00     0.364 C 
ATOM     42  O   UNL     1      21.578  34.887   8.712  1.00  0.00    -0.246 OA
BRANCH  41  43
ATOM     43  O   UNL     1      23.403  36.150   8.930  1.00  0.00    -0.477 OA
ATOM     44  H   UNL     1      24.236  35.861   9.431  1.00  0.00     0.296 HD
ENDBRANCH  41  43
ENDBRANCH   1  41
BRANCH   3  45
ATOM     45  O   UNL     1      21.381  36.322  13.262  1.00  0.00    -0.391 OA
ATOM     46  H   UNL     1      21.912  36.297  14.084  1.00  0.00     0.211 HD
ENDBRANCH   3  45
BRANCH   5  47
ATOM     47  C   UNL     1      24.566  35.469  12.776  1.00  0.00     0.176 C 
BRANCH  47  48
ATOM     48  O   UNL     1      24.141  35.520  14.126  1.00  0.00    -0.388 OA
ATOM     49  H   UNL     1      24.555  34.825  14.665  1.00  0.00     0.211 HD
ENDBRANCH  47  48
BRANCH  47  50
ATOM     50  C   UNL     1      25.034  36.885  12.485  1.00  0.00     0.165 C 
BRANCH  50  51
ATOM     51  O   UNL     1      25.381  37.083  11.189  1.00  0.00    -0.388 OA
ATOM     52  H   UNL     1      25.704  36.292  10.697  1.00  0.00     0.211 HD
ENDBRANCH  50  51
BRANCH  50  53
ATOM     53  C   UNL     1      26.170  37.256  13.417  1.00  0.00     0.154 C 
BRANCH  53  54
ATOM     54  N   UNL     1      27.200  36.294  13.555  1.00  0.00    -0.319 N 
ATOM     55  C   UNL     1      28.297  36.176  12.696  1.00  0.00     0.407 C 
ATOM     56  H   UNL     1      27.157  35.593  14.373  1.00  0.00     0.167 HD
ATOM     57  O   UNL     1      28.464  36.931  11.724  1.00  0.00    -0.225 OA
BRANCH  55  58
ATOM     58  O   UNL     1      29.282  35.179  12.891  1.00  0.00    -0.443 OA
BRANCH  58  59
ATOM     59  C   UNL     1      30.129  35.197  14.018  1.00  0.00     0.294 C 
BRANCH  59  60
ATOM     60  C   UNL     1      29.699  34.285  15.097  1.00  0.00     0.120 A 
ATOM     61  C   UNL     1      28.877  33.182  14.985  1.00  0.00     0.139 A 
ATOM     62  N   UNL     1      30.031  34.354  16.396  1.00  0.00    -0.132 NA
ATOM     63  N   UNL     1      28.730  32.614  16.208  1.00  0.00    -0.244 N 
ATOM     64  N   UNL     1      29.443  33.347  17.047  1.00  0.00    -0.066 NA
BRANCH  63  65
ATOM     65  C   UNL     1      27.947  31.440  16.499  1.00  0.00     0.082 C 
ATOM     66  C   UNL     1      28.090  31.082  17.949  1.00  0.00     0.039 C 
ATOM     67  C   UNL     1      28.471  30.244  15.692  1.00  0.00     0.039 C 
BRANCH  65  68
ATOM     68  C   UNL     1      26.490  31.585  16.169  1.00  0.00     0.186 C 
BRANCH  68  69
ATOM     69  O   UNL     1      26.072  30.768  15.144  1.00  0.00    -0.394 OA
ATOM     70  H   UNL     1      25.198  30.974  14.776  1.00  0.00     0.210 HD
ENDBRANCH  68  69
ENDBRANCH  65  68
ENDBRANCH  63  65
ENDBRANCH  59  60
ENDBRANCH  58  59
ENDBRANCH  55  58
ENDBRANCH  53  54
ENDBRANCH  50  53
ENDBRANCH  47  50
ENDBRANCH   5  47
BRANCH   4  71
ATOM     71  N   UNL     1      22.157  32.963  12.394  1.00  0.00    -0.348 N 
ATOM     72  C   UNL     1      22.698  31.778  12.947  1.00  0.00     0.217 C 
ATOM     73  H   UNL     1      21.479  32.798  11.591  1.00  0.00     0.163 HD
ATOM     74  C   UNL     1      22.337  30.426  12.441  1.00  0.00     0.114 C 
ATOM     75  O   UNL     1      23.503  31.860  13.889  1.00  0.00    -0.275 OA
ENDBRANCH   4  71
TORSDOF 32
BEGIN_RES LYS A 131
REMARK  4 active torsions:
REMARK  status: ('A' for Active; 'I' for Inactive)
REMARK    1  A    between atoms: CA   and  CB  
REMARK    2  A    between atoms: CB   and  CG  
REMARK    3  A    between atoms: CG   and  CD  
REMARK    4  A    between atoms: CD   and  CE  
ROOT
ATOM      1  CA  LYS A 131      29.867  25.555  16.977  1.00 20.52     0.186 C 
ENDROOT
BRANCH   1   2
ATOM      2  CB  LYS A 131      28.345  25.722  17.026  1.00 20.94     0.034 C 
BRANCH   2   3
ATOM      3  CG  LYS A 131      27.599  24.437  16.700  1.00 22.96     0.005 C 
BRANCH   3   4
ATOM      4  CD  LYS A 131      26.998  23.805  17.925  1.00 24.33     0.041 C 
BRANCH   4   5
ATOM      5  CE  LYS A 131      25.590  23.314  17.605  1.00 26.91     0.338 C 
ATOM      6  NZ  LYS A 131      24.819  24.368  16.905  1.00 27.40     0.618 N 
ENDBRANCH   4   5
ENDBRANCH   3   4
ENDBRANCH   2   3
ENDBRANCH   1   2
END_RES LYS A 131
BEGIN_RES LYS A 135
REMARK  4 active torsions:
REMARK  status: ('A' for Active; 'I' for Inactive)
REMARK    5  A    between atoms: CA   and  CB  
REMARK    6  A    between atoms: CB   and  CG  
REMARK    7  A    between atoms: CG   and  CD  
REMARK    8  A    between atoms: CD   and  CE  
ROOT
ATOM      7  CA  LYS A 135      33.193  34.663   9.290  1.00 25.02     0.186 C 
ENDROOT
BRANCH   7   8
ATOM      8  CB  LYS A 135      32.060  35.360  10.034  1.00 26.63     0.034 C 
BRANCH   8   9
ATOM      9  CG  LYS A 135      32.495  36.010  11.322  1.00 29.45     0.005 C 
BRANCH   9  10
ATOM     10  CD  LYS A 135      31.945  37.425  11.421  1.00 32.00     0.041 C 
BRANCH  10  11
ATOM     11  CE  LYS A 135      31.520  37.928  10.055  1.00 34.25     0.338 C 
ATOM     12  NZ  LYS A 135      31.950  39.339   9.846  1.00 35.99     0.618 N 
ENDBRANCH  10  11
ENDBRANCH   9  10
ENDBRANCH   8   9
ENDBRANCH   7   8
END_RES LYS A 135
