REMARK VINA RESULT:    -3.676      3.499      8.783
REMARK INTER + INTRA:         -21.591
REMARK INTER:                 -11.365
REMARK INTRA:                 -10.226
REMARK UNBOUND:               -12.543
REMARK SMILES CC(=O)N[C@@H]1[C@@H](O)C[C@](OC[C@H]2O[C@@H](O[C@H]3[C@H](O)[C@@H](O)[C@H](OCCN=[N+]=[N-])O[C@@H]3CO)[C@H](O)[C@@H](O)[C@H]2O)(C(=O)O)O[C@H]1C(O)[C@H](O)CNC(=O)OCc1cn(-c2ccncc2)nn1
REMARK SMILES IDX 9 1 8 2 6 3 5 4 42 5 41 6 10 7 11 8 12 9 14 10 13 11 32 12
REMARK SMILES IDX 34 13 36 14 15 15 16 16 29 17 28 18 21 19 17 20 19 21 30 22
REMARK SMILES IDX 31 23 22 25 23 26 24 27 25 28 26 29 27 30 18 31 20 33 33 35
REMARK SMILES IDX 35 37 37 39 38 41 39 42 40 43 7 45 43 47 44 48 45 50 46 51
REMARK SMILES IDX 47 53 48 54 49 55 50 57 51 58 52 59 53 60 54 61 63 62 55 63
REMARK SMILES IDX 62 64 56 65 57 66 61 67 58 68 60 69 59 70 4 71 2 72 1 74
REMARK SMILES IDX 3 75
REMARK H PARENT 31 24 18 32 20 34 33 36 35 38 37 40 40 44 7 46 44 49 46 52
REMARK H PARENT 48 56 4 73
REMARK Flexibility Score: inf
ROOT
ATOM      1  C   UNL     1      19.621  35.099  10.483  1.00  0.00     0.272 C 
ATOM      2  C   UNL     1      19.049  34.596   9.142  1.00  0.00     0.113 C 
ATOM      3  C   UNL     1      19.850  35.181   7.974  1.00  0.00     0.145 C 
ATOM      4  C   UNL     1      19.523  36.713   7.961  1.00  0.00     0.142 C 
ATOM      5  C   UNL     1      19.787  37.195   9.358  1.00  0.00     0.178 C 
ATOM      6  O   UNL     1      20.419  36.183  10.068  1.00  0.00    -0.332 OA
ENDROOT
BRANCH   1   7
ATOM      7  O   UNL     1      20.463  34.221  10.989  1.00  0.00    -0.338 OA
BRANCH   7   8
ATOM      8  C   UNL     1      20.751  33.574  12.030  1.00  0.00     0.199 C 
BRANCH   8   9
ATOM      9  C   UNL     1      21.927  33.939  12.884  1.00  0.00     0.179 C 
ATOM     10  C   UNL     1      23.995  32.964  13.425  1.00  0.00     0.282 C 
ATOM     11  O   UNL     1      22.826  32.839  12.713  1.00  0.00    -0.341 OA
ATOM     12  C   UNL     1      24.789  34.142  12.954  1.00  0.00     0.202 C 
ATOM     13  C   UNL     1      23.918  35.399  13.005  1.00  0.00     0.179 C 
ATOM     14  C   UNL     1      22.658  35.121  12.240  1.00  0.00     0.177 C 
BRANCH  10  15
ATOM     15  O   UNL     1      24.696  31.766  13.129  1.00  0.00    -0.341 OA
BRANCH  15  16
ATOM     16  C   UNL     1      24.758  30.906  14.172  1.00  0.00     0.184 C 
ATOM     17  C   UNL     1      23.590  30.013  14.301  1.00  0.00     0.178 C 
ATOM     18  O   UNL     1      23.797  29.082  15.340  1.00  0.00    -0.341 OA
ATOM     19  C   UNL     1      23.516  29.881  16.513  1.00  0.00     0.281 C 
ATOM     20  C   UNL     1      24.863  31.754  15.477  1.00  0.00     0.180 C 
ATOM     21  C   UNL     1      24.651  30.825  16.658  1.00  0.00     0.202 C 
BRANCH  17  22
ATOM     22  C   UNL     1      23.248  29.292  13.053  1.00  0.00     0.191 C 
BRANCH  22  23
ATOM     23  O   UNL     1      22.317  29.989  12.267  1.00  0.00    -0.394 OA
ATOM     24  H   UNL     1      22.311  30.932  12.606  1.00  0.00     0.210 HD
ENDBRANCH  22  23
ENDBRANCH  17  22
BRANCH  19  25
ATOM     25  O   UNL     1      23.467  28.980  17.540  1.00  0.00    -0.350 OA
BRANCH  25  26
ATOM     26  C   UNL     1      24.314  27.928  17.371  1.00  0.00     0.169 C 
BRANCH  26  27
ATOM     27  C   UNL     1      25.565  27.937  18.189  1.00  0.00     0.119 C 
BRANCH  27  28
ATOM     28  N   UNL     1      26.762  27.755  17.394  1.00  0.00    -0.092 NA
ATOM     29  N   UNL     1      27.387  28.667  16.871  1.00  0.00     0.001 N 
ATOM     30  N   UNL     1      27.787  29.606  16.176  1.00  0.00    -0.003 NA
ENDBRANCH  27  28
ENDBRANCH  26  27
ENDBRANCH  25  26
ENDBRANCH  19  25
BRANCH  20  31
ATOM     31  O   UNL     1      26.151  32.232  15.523  1.00  0.00    -0.387 OA
ATOM     32  H   UNL     1      26.486  32.294  16.473  1.00  0.00     0.211 HD
ENDBRANCH  20  31
BRANCH  21  33
ATOM     33  O   UNL     1      24.516  31.559  17.826  1.00  0.00    -0.385 OA
ATOM     34  H   UNL     1      23.550  31.681  18.019  1.00  0.00     0.211 HD
ENDBRANCH  21  33
ENDBRANCH  15  16
ENDBRANCH  10  15
BRANCH  12  35
ATOM     35  O   UNL     1      25.891  34.384  13.809  1.00  0.00    -0.385 OA
ATOM     36  H   UNL     1      26.341  33.512  13.907  1.00  0.00     0.211 HD
ENDBRANCH  12  35
BRANCH  13  37
ATOM     37  O   UNL     1      24.548  36.506  12.488  1.00  0.00    -0.387 OA
ATOM     38  H   UNL     1      25.193  36.241  11.760  1.00  0.00     0.211 HD
ENDBRANCH  13  37
BRANCH  14  39
ATOM     39  O   UNL     1      22.944  34.718  10.926  1.00  0.00    -0.387 OA
ATOM     40  H   UNL     1      23.331  35.495  10.419  1.00  0.00     0.211 HD
ENDBRANCH  14  39
ENDBRANCH   8   9
ENDBRANCH   7   8
ENDBRANCH   1   7
BRANCH   1  41
ATOM     41  C   UNL     1      18.544  35.518  11.386  1.00  0.00     0.364 C 
ATOM     42  O   UNL     1      17.326  35.217  11.167  1.00  0.00    -0.246 OA
BRANCH  41  43
ATOM     43  O   UNL     1      18.760  36.260  12.523  1.00  0.00    -0.477 OA
ATOM     44  H   UNL     1      18.921  37.243  12.573  1.00  0.00     0.296 HD
ENDBRANCH  41  43
ENDBRANCH   1  41
BRANCH   3  45
ATOM     45  O   UNL     1      21.189  35.055   8.224  1.00  0.00    -0.391 OA
ATOM     46  H   UNL     1      21.677  34.676   7.467  1.00  0.00     0.211 HD
ENDBRANCH   3  45
BRANCH   5  47
ATOM     47  C   UNL     1      20.819  38.328   9.427  1.00  0.00     0.176 C 
BRANCH  47  48
ATOM     48  O   UNL     1      21.067  38.545   8.001  1.00  0.00    -0.388 OA
ATOM     49  H   UNL     1      20.783  39.488   7.807  1.00  0.00     0.211 HD
ENDBRANCH  47  48
BRANCH  47  50
ATOM     50  C   UNL     1      22.114  38.024  10.043  1.00  0.00     0.165 C 
BRANCH  50  51
ATOM     51  O   UNL     1      22.282  38.296  11.380  1.00  0.00    -0.388 OA
ATOM     52  H   UNL     1      22.430  39.266  11.537  1.00  0.00     0.211 HD
ENDBRANCH  50  51
BRANCH  50  53
ATOM     53  C   UNL     1      23.301  38.168   9.173  1.00  0.00     0.154 C 
BRANCH  53  54
ATOM     54  N   UNL     1      24.521  38.558   9.829  1.00  0.00    -0.319 N 
ATOM     55  C   UNL     1      25.529  37.607  10.120  1.00  0.00     0.407 C 
ATOM     56  H   UNL     1      24.625  39.553  10.092  1.00  0.00     0.167 HD
ATOM     57  O   UNL     1      25.313  36.423   9.779  1.00  0.00    -0.225 OA
BRANCH  55  58
ATOM     58  O   UNL     1      26.709  37.903  10.742  1.00  0.00    -0.443 OA
BRANCH  58  59
ATOM     59  C   UNL     1      27.896  37.141  10.687  1.00  0.00     0.294 C 
BRANCH  59  60
ATOM     60  C   UNL     1      28.222  36.523  12.014  1.00  0.00     0.121 A 
ATOM     61  C   UNL     1      29.154  35.558  12.327  1.00  0.00     0.144 A 
ATOM     62  N   UNL     1      27.618  36.829  13.187  1.00  0.00    -0.131 NA
ATOM     63  N   UNL     1      29.094  35.309  13.647  1.00  0.00    -0.220 N 
ATOM     64  N   UNL     1      28.146  36.099  14.153  1.00  0.00    -0.062 NA
BRANCH  63  65
ATOM     65  C   UNL     1      29.902  34.370  14.344  1.00  0.00     0.069 A 
ATOM     66  C   UNL     1      29.486  33.108  14.707  1.00  0.00     0.048 A 
ATOM     67  C   UNL     1      31.186  34.744  14.675  1.00  0.00     0.048 A 
ATOM     68  C   UNL     1      30.310  32.223  15.382  1.00  0.00     0.113 A 
ATOM     69  C   UNL     1      32.003  33.853  15.350  1.00  0.00     0.113 A 
ATOM     70  N   UNL     1      31.564  32.633  15.685  1.00  0.00    -0.265 NA
ENDBRANCH  63  65
ENDBRANCH  59  60
ENDBRANCH  58  59
ENDBRANCH  55  58
ENDBRANCH  53  54
ENDBRANCH  50  53
ENDBRANCH  47  50
ENDBRANCH   5  47
BRANCH   4  71
ATOM     71  N   UNL     1      18.130  36.735   7.587  1.00  0.00    -0.348 N 
ATOM     72  C   UNL     1      17.401  37.899   7.261  1.00  0.00     0.217 C 
ATOM     73  H   UNL     1      17.610  35.839   7.552  1.00  0.00     0.163 HD
ATOM     74  C   UNL     1      15.981  37.798   6.894  1.00  0.00     0.114 C 
ATOM     75  O   UNL     1      17.959  39.014   7.281  1.00  0.00    -0.275 OA
ENDBRANCH   4  71
TORSDOF 30
BEGIN_RES LYS A 131
REMARK  4 active torsions:
REMARK  status: ('A' for Active; 'I' for Inactive)
REMARK    1  A    between atoms: CA   and  CB  
REMARK    2  A    between atoms: CB   and  CG  
REMARK    3  A    between atoms: CG   and  CD  
REMARK    4  A    between atoms: CD   and  CE  
ROOT
ATOM      1  CA  LYS A 131      29.867  25.555  16.977  1.00 20.52     0.186 C 
ENDROOT
BRANCH   1   2
ATOM      2  CB  LYS A 131      28.345  25.722  17.026  1.00 20.94     0.034 C 
BRANCH   2   3
ATOM      3  CG  LYS A 131      27.599  24.475  16.576  1.00 22.96     0.005 C 
BRANCH   3   4
ATOM      4  CD  LYS A 131      27.187  23.613  17.737  1.00 24.33     0.041 C 
BRANCH   4   5
ATOM      5  CE  LYS A 131      25.705  23.271  17.616  1.00 26.91     0.338 C 
ATOM      6  NZ  LYS A 131      24.970  24.376  16.955  1.00 27.40     0.618 N 
ENDBRANCH   4   5
ENDBRANCH   3   4
ENDBRANCH   2   3
ENDBRANCH   1   2
END_RES LYS A 131
BEGIN_RES LYS A 135
REMARK  4 active torsions:
REMARK  status: ('A' for Active; 'I' for Inactive)
REMARK    5  A    between atoms: CA   and  CB  
REMARK    6  A    between atoms: CB   and  CG  
REMARK    7  A    between atoms: CG   and  CD  
REMARK    8  A    between atoms: CD   and  CE  
ROOT
ATOM      7  CA  LYS A 135      33.193  34.663   9.290  1.00 25.02     0.186 C 
ENDROOT
BRANCH   7   8
ATOM      8  CB  LYS A 135      32.060  35.360  10.034  1.00 26.63     0.034 C 
BRANCH   8   9
ATOM      9  CG  LYS A 135      30.820  35.553   9.200  1.00 29.45     0.005 C 
BRANCH   9  10
ATOM     10  CD  LYS A 135      30.141  34.219   8.931  1.00 32.00     0.041 C 
BRANCH  10  11
ATOM     11  CE  LYS A 135      28.696  34.429   8.522  1.00 34.25     0.338 C 
ATOM     12  NZ  LYS A 135      27.768  33.715   9.442  1.00 35.99     0.618 N 
ENDBRANCH  10  11
ENDBRANCH   9  10
ENDBRANCH   8   9
ENDBRANCH   7   8
END_RES LYS A 135
