REMARK VINA RESULT:    -5.601      0.000      0.000
REMARK INTER + INTRA:         -26.196
REMARK INTER:                 -17.219
REMARK INTRA:                  -8.976
REMARK UNBOUND:               -12.409
REMARK SMILES CC(=O)N[C@@H]1[C@@H](O)C[C@](OC[C@H]2O[C@@H](O[C@H]3[C@H](O)[C@@H](O)[C@H](OCCN=[N+]=[N-])O[C@@H]3CO)[C@H](O)[C@@H](O)[C@H]2O)(C(=O)O)O[C@H]1C(O)[C@H](O)CNC(=O)OCc1cn(C2c3ccccc3-c3ccccc32)nn1
REMARK SMILES IDX 9 1 8 2 6 3 5 4 42 5 41 6 10 7 11 8 12 9 14 10 13 11 32 12
REMARK SMILES IDX 34 13 36 14 15 15 16 16 29 17 28 18 21 19 17 20 19 21 30 22
REMARK SMILES IDX 31 23 22 25 23 26 24 27 25 28 26 29 27 30 18 31 20 33 33 35
REMARK SMILES IDX 35 37 37 39 38 41 39 42 40 43 7 45 43 47 44 48 45 50 46 51
REMARK SMILES IDX 47 53 48 54 49 55 50 57 51 58 52 59 53 60 54 61 70 62 55 63
REMARK SMILES IDX 69 64 56 65 57 66 68 67 58 68 62 69 63 70 67 71 59 72 61 73
REMARK SMILES IDX 64 74 66 75 60 76 65 77 4 78 2 79 1 81 3 82
REMARK H PARENT 31 24 18 32 20 34 33 36 35 38 37 40 40 44 7 46 44 49 46 52
REMARK H PARENT 48 56 4 80
REMARK Flexibility Score: inf
ROOT
ATOM      1  C   UNL     1      23.907  36.167   9.435  1.00  0.00     0.272 C 
ATOM      2  C   UNL     1      22.542  36.212   8.878  1.00  0.00     0.113 C 
ATOM      3  C   UNL     1      22.345  37.314   7.907  1.00  0.00     0.145 C 
ATOM      4  C   UNL     1      23.341  38.433   8.038  1.00  0.00     0.142 C 
ATOM      5  C   UNL     1      23.799  38.507   9.454  1.00  0.00     0.178 C 
ATOM      6  O   UNL     1      24.331  37.381   9.996  1.00  0.00    -0.332 OA
ENDROOT
BRANCH   1   7
ATOM      7  O   UNL     1      24.853  35.763   8.530  1.00  0.00    -0.338 OA
BRANCH   7   8
ATOM      8  C   UNL     1      26.159  35.823   8.932  1.00  0.00     0.199 C 
BRANCH   8   9
ATOM      9  C   UNL     1      26.970  34.768   8.213  1.00  0.00     0.179 C 
ATOM     10  C   UNL     1      28.557  36.314   7.445  1.00  0.00     0.282 C 
ATOM     11  O   UNL     1      27.613  35.369   7.156  1.00  0.00    -0.341 OA
ATOM     12  C   UNL     1      29.457  35.863   8.531  1.00  0.00     0.202 C 
ATOM     13  C   UNL     1      29.359  34.326   8.539  1.00  0.00     0.179 C 
ATOM     14  C   UNL     1      27.950  34.073   9.118  1.00  0.00     0.177 C 
BRANCH  10  15
ATOM     15  O   UNL     1      28.019  37.569   7.538  1.00  0.00    -0.341 OA
BRANCH  15  16
ATOM     16  C   UNL     1      28.619  38.555   6.802  1.00  0.00     0.184 C 
ATOM     17  C   UNL     1      29.007  39.700   7.661  1.00  0.00     0.178 C 
ATOM     18  O   UNL     1      28.799  40.938   7.062  1.00  0.00    -0.341 OA
ATOM     19  C   UNL     1      28.982  40.939   5.718  1.00  0.00     0.281 C 
ATOM     20  C   UNL     1      27.581  38.935   5.749  1.00  0.00     0.180 C 
ATOM     21  C   UNL     1      27.790  40.230   5.083  1.00  0.00     0.202 C 
BRANCH  17  22
ATOM     22  C   UNL     1      30.465  39.641   8.063  1.00  0.00     0.191 C 
BRANCH  22  23
ATOM     23  O   UNL     1      31.140  38.639   7.326  1.00  0.00    -0.394 OA
ATOM     24  H   UNL     1      31.281  38.957   6.383  1.00  0.00     0.210 HD
ENDBRANCH  22  23
ENDBRANCH  17  22
BRANCH  19  25
ATOM     25  O   UNL     1      30.115  40.306   5.243  1.00  0.00    -0.350 OA
BRANCH  25  26
ATOM     26  C   UNL     1      31.029  41.138   4.664  1.00  0.00     0.169 C 
BRANCH  26  27
ATOM     27  C   UNL     1      32.414  41.099   5.212  1.00  0.00     0.119 C 
BRANCH  27  28
ATOM     28  N   UNL     1      33.021  39.785   5.141  1.00  0.00    -0.092 NA
ATOM     29  N   UNL     1      34.036  39.612   5.828  1.00  0.00     0.001 N 
ATOM     30  N   UNL     1      35.108  39.393   6.404  1.00  0.00    -0.003 NA
ENDBRANCH  27  28
ENDBRANCH  26  27
ENDBRANCH  25  26
ENDBRANCH  19  25
BRANCH  20  31
ATOM     31  O   UNL     1      27.556  37.928   4.747  1.00  0.00    -0.387 OA
ATOM     32  H   UNL     1      28.254  37.249   4.927  1.00  0.00     0.211 HD
ENDBRANCH  20  31
BRANCH  21  33
ATOM     33  O   UNL     1      26.680  41.064   5.276  1.00  0.00    -0.385 OA
ATOM     34  H   UNL     1      26.794  41.955   4.854  1.00  0.00     0.211 HD
ENDBRANCH  21  33
ENDBRANCH  15  16
ENDBRANCH  10  15
BRANCH  12  35
ATOM     35  O   UNL     1      30.802  36.135   8.290  1.00  0.00    -0.385 OA
ATOM     36  H   UNL     1      30.861  36.820   7.583  1.00  0.00     0.211 HD
ENDBRANCH  12  35
BRANCH  13  37
ATOM     37  O   UNL     1      30.258  33.764   9.415  1.00  0.00    -0.387 OA
ATOM     38  H   UNL     1      29.792  33.072   9.944  1.00  0.00     0.211 HD
ENDBRANCH  13  37
BRANCH  14  39
ATOM     39  O   UNL     1      27.944  34.686  10.357  1.00  0.00    -0.387 OA
ATOM     40  H   UNL     1      28.442  35.540  10.368  1.00  0.00     0.211 HD
ENDBRANCH  14  39
ENDBRANCH   8   9
ENDBRANCH   7   8
ENDBRANCH   1   7
BRANCH   1  41
ATOM     41  C   UNL     1      23.945  35.237  10.646  1.00  0.00     0.364 C 
ATOM     42  O   UNL     1      22.868  34.817  11.080  1.00  0.00    -0.246 OA
BRANCH  41  43
ATOM     43  O   UNL     1      25.129  34.874  11.240  1.00  0.00    -0.477 OA
ATOM     44  H   UNL     1      25.788  35.578  11.594  1.00  0.00     0.296 HD
ENDBRANCH  41  43
ENDBRANCH   1  41
BRANCH   3  45
ATOM     45  O   UNL     1      22.288  36.916   6.570  1.00  0.00    -0.391 OA
ATOM     46  H   UNL     1      23.158  36.848   6.150  1.00  0.00     0.211 HD
ENDBRANCH   3  45
BRANCH   5  47
ATOM     47  C   UNL     1      24.820  39.636   9.575  1.00  0.00     0.176 C 
BRANCH  47  48
ATOM     48  O   UNL     1      25.928  39.331   8.827  1.00  0.00    -0.388 OA
ATOM     49  H   UNL     1      26.414  38.535   9.200  1.00  0.00     0.211 HD
ENDBRANCH  47  48
BRANCH  47  50
ATOM     50  C   UNL     1      25.148  39.818  11.026  1.00  0.00     0.165 C 
BRANCH  50  51
ATOM     51  O   UNL     1      24.893  41.148  11.403  1.00  0.00    -0.388 OA
ATOM     52  H   UNL     1      25.536  41.758  10.977  1.00  0.00     0.211 HD
ENDBRANCH  50  51
BRANCH  50  53
ATOM     53  C   UNL     1      26.667  39.652  11.160  1.00  0.00     0.154 C 
BRANCH  53  54
ATOM     54  N   UNL     1      26.951  38.254  11.265  1.00  0.00    -0.319 N 
ATOM     55  C   UNL     1      26.921  37.603  12.516  1.00  0.00     0.407 C 
ATOM     56  H   UNL     1      27.181  37.704  10.403  1.00  0.00     0.167 HD
ATOM     57  O   UNL     1      26.657  38.232  13.573  1.00  0.00    -0.225 OA
BRANCH  55  58
ATOM     58  O   UNL     1      27.177  36.253  12.643  1.00  0.00    -0.443 OA
BRANCH  58  59
ATOM     59  C   UNL     1      27.323  35.609  13.900  1.00  0.00     0.294 C 
BRANCH  59  60
ATOM     60  C   UNL     1      28.661  34.966  13.916  1.00  0.00     0.120 A 
ATOM     61  C   UNL     1      29.477  34.711  15.010  1.00  0.00     0.139 A 
ATOM     62  N   UNL     1      29.338  34.503  12.854  1.00  0.00    -0.132 NA
ATOM     63  N   UNL     1      30.601  34.111  14.588  1.00  0.00    -0.240 N 
ATOM     64  N   UNL     1      30.485  33.999  13.274  1.00  0.00    -0.066 NA
BRANCH  63  65
ATOM     65  C   UNL     1      31.725  33.671  15.417  1.00  0.00     0.170 C 
ATOM     66  C   UNL     1      31.188  32.903  16.544  1.00  0.00    -0.011 A 
ATOM     67  C   UNL     1      32.381  34.827  16.052  1.00  0.00    -0.011 A 
ATOM     68  C   UNL     1      30.470  31.715  16.601  1.00  0.00     0.007 A 
ATOM     69  C   UNL     1      31.476  33.517  17.733  1.00  0.00    -0.012 A 
ATOM     70  C   UNL     1      32.228  34.728  17.414  1.00  0.00    -0.012 A 
ATOM     71  C   UNL     1      33.074  35.909  15.543  1.00  0.00     0.007 A 
ATOM     72  C   UNL     1      30.073  31.189  17.809  1.00  0.00     0.000 A 
ATOM     73  C   UNL     1      31.075  32.985  18.950  1.00  0.00     0.009 A 
ATOM     74  C   UNL     1      32.750  35.681  18.260  1.00  0.00     0.009 A 
ATOM     75  C   UNL     1      33.604  36.873  16.369  1.00  0.00     0.000 A 
ATOM     76  C   UNL     1      30.365  31.810  19.015  1.00  0.00     0.001 A 
ATOM     77  C   UNL     1      33.441  36.758  17.734  1.00  0.00     0.001 A 
ENDBRANCH  63  65
ENDBRANCH  59  60
ENDBRANCH  58  59
ENDBRANCH  55  58
ENDBRANCH  53  54
ENDBRANCH  50  53
ENDBRANCH  47  50
ENDBRANCH   5  47
BRANCH   4  78
ATOM     78  N   UNL     1      22.594  39.680   7.784  1.00  0.00    -0.348 N 
ATOM     79  C   UNL     1      23.109  40.697   6.941  1.00  0.00     0.217 C 
ATOM     80  H   UNL     1      21.680  39.790   8.244  1.00  0.00     0.163 HD
ATOM     81  C   UNL     1      22.339  41.956   6.693  1.00  0.00     0.114 C 
ATOM     82  O   UNL     1      24.236  40.507   6.404  1.00  0.00    -0.275 OA
ENDBRANCH   4  78
TORSDOF 30
BEGIN_RES LYS A 131
REMARK  4 active torsions:
REMARK  status: ('A' for Active; 'I' for Inactive)
REMARK    1  A    between atoms: CA   and  CB  
REMARK    2  A    between atoms: CB   and  CG  
REMARK    3  A    between atoms: CG   and  CD  
REMARK    4  A    between atoms: CD   and  CE  
ROOT
ATOM      1  CA  LYS A 131      29.867  25.555  16.977  1.00 20.52     0.186 C 
ENDROOT
BRANCH   1   2
ATOM      2  CB  LYS A 131      28.345  25.722  17.026  1.00 20.94     0.034 C 
BRANCH   2   3
ATOM      3  CG  LYS A 131      27.601  24.404  16.876  1.00 22.96     0.005 C 
BRANCH   3   4
ATOM      4  CD  LYS A 131      26.766  24.084  18.085  1.00 24.33     0.041 C 
BRANCH   4   5
ATOM      5  CE  LYS A 131      25.510  24.950  18.080  1.00 26.91     0.338 C 
ATOM      6  NZ  LYS A 131      24.646  24.603  16.927  1.00 27.40     0.618 N 
ENDBRANCH   4   5
ENDBRANCH   3   4
ENDBRANCH   2   3
ENDBRANCH   1   2
END_RES LYS A 131
BEGIN_RES LYS A 135
REMARK  4 active torsions:
REMARK  status: ('A' for Active; 'I' for Inactive)
REMARK    5  A    between atoms: CA   and  CB  
REMARK    6  A    between atoms: CB   and  CG  
REMARK    7  A    between atoms: CG   and  CD  
REMARK    8  A    between atoms: CD   and  CE  
ROOT
ATOM      7  CA  LYS A 135      33.193  34.663   9.290  1.00 25.02     0.186 C 
ENDROOT
BRANCH   7   8
ATOM      8  CB  LYS A 135      32.060  35.360  10.034  1.00 26.63     0.034 C 
BRANCH   8   9
ATOM      9  CG  LYS A 135      32.507  36.066  11.288  1.00 29.45     0.005 C 
BRANCH   9  10
ATOM     10  CD  LYS A 135      32.046  37.515  11.281  1.00 32.00     0.041 C 
BRANCH  10  11
ATOM     11  CE  LYS A 135      30.636  37.629  11.828  1.00 34.25     0.338 C 
ATOM     12  NZ  LYS A 135      30.648  37.829  13.304  1.00 35.99     0.618 N 
ENDBRANCH  10  11
ENDBRANCH   9  10
ENDBRANCH   8   9
ENDBRANCH   7   8
END_RES LYS A 135
