REMARK VINA RESULT:    -4.202      3.267      6.943
REMARK INTER + INTRA:         -24.399
REMARK INTER:                 -13.519
REMARK INTRA:                 -10.880
REMARK UNBOUND:               -13.073
REMARK SMILES CC(=O)N[C@@H]1[C@@H](O)C[C@](OC[C@H]2O[C@@H](O[C@H]3[C@H](O)[C@@H](O)[C@H](OCCN=[N+]=[N-])O[C@@H]3CO)[C@H](O)[C@@H](O)[C@H]2O)(C(=O)O)O[C@H]1C(O)[C@H](O)CNC(=O)OCc1cn(C[C@@H](C)CN2CCN(c3ccc(Cl)cc3)CC2)nn1
REMARK SMILES IDX 43 1 42 2 9 3 8 4 41 5 6 6 5 7 10 8 11 9 12 10 14 11 13 12
REMARK SMILES IDX 32 13 34 14 36 15 15 16 16 17 29 18 28 19 21 20 17 21 19 22
REMARK SMILES IDX 30 23 31 24 22 26 23 27 24 28 25 29 26 30 27 31 18 32 20 34
REMARK SMILES IDX 33 36 35 38 37 40 38 42 39 43 40 44 7 46 4 48 2 49 1 51 3 52
REMARK SMILES IDX 44 53 45 55 46 56 47 58 48 59 49 60 50 62 51 63 52 64 53 65
REMARK SMILES IDX 54 66 74 67 55 68 73 69 56 70 57 71 58 72 59 73 60 74 61 75
REMARK SMILES IDX 72 76 62 77 71 78 63 79 64 80 65 81 70 82 66 83 69 84 67 85
REMARK SMILES IDX 68 86
REMARK H PARENT 31 25 18 33 20 35 33 37 35 39 37 41 40 45 7 47 4 50 44 54
REMARK H PARENT 46 57 48 61
REMARK Flexibility Score: inf
ROOT
ATOM      1  C   UNL     1      28.870  38.831  13.424  1.00  0.00     0.176 C 
ENDROOT
BRANCH   1   2
ATOM      2  C   UNL     1      28.262  37.572  14.026  1.00  0.00     0.178 C 
ATOM      3  C   UNL     1      26.795  35.770  13.598  1.00  0.00     0.272 C 
ATOM      4  C   UNL     1      26.671  35.688  15.039  1.00  0.00     0.113 C 
ATOM      5  O   UNL     1      27.299  37.054  13.224  1.00  0.00    -0.332 OA
ATOM      6  C   UNL     1      26.578  37.046  15.711  1.00  0.00     0.145 C 
ATOM      7  C   UNL     1      27.920  37.749  15.466  1.00  0.00     0.142 C 
BRANCH   3   8
ATOM      8  O   UNL     1      25.750  35.594  12.794  1.00  0.00    -0.338 OA
BRANCH   8   9
ATOM      9  C   UNL     1      25.171  36.442  11.985  1.00  0.00     0.199 C 
BRANCH   9  10
ATOM     10  C   UNL     1      24.212  36.029  10.906  1.00  0.00     0.179 C 
ATOM     11  C   UNL     1      23.144  37.181   9.181  1.00  0.00     0.282 C 
ATOM     12  O   UNL     1      23.342  37.010  10.524  1.00  0.00    -0.341 OA
ATOM     13  C   UNL     1      24.443  37.635   8.543  1.00  0.00     0.202 C 
ATOM     14  C   UNL     1      25.483  36.594   8.803  1.00  0.00     0.179 C 
ATOM     15  C   UNL     1      25.028  35.506   9.715  1.00  0.00     0.177 C 
BRANCH  11  16
ATOM     16  O   UNL     1      22.219  38.246   9.056  1.00  0.00    -0.341 OA
BRANCH  16  17
ATOM     17  C   UNL     1      20.992  37.749   8.697  1.00  0.00     0.184 C 
ATOM     18  C   UNL     1      20.026  37.682   9.862  1.00  0.00     0.178 C 
ATOM     19  O   UNL     1      19.712  36.422  10.273  1.00  0.00    -0.341 OA
ATOM     20  C   UNL     1      19.212  35.565   9.309  1.00  0.00     0.281 C 
ATOM     21  C   UNL     1      21.107  36.392   8.011  1.00  0.00     0.180 C 
ATOM     22  C   UNL     1      19.706  35.835   7.914  1.00  0.00     0.202 C 
BRANCH  18  23
ATOM     23  C   UNL     1      18.808  38.567   9.644  1.00  0.00     0.191 C 
BRANCH  23  24
ATOM     24  O   UNL     1      18.895  39.750  10.336  1.00  0.00    -0.394 OA
ATOM     25  H   UNL     1      18.223  39.701  11.083  1.00  0.00     0.210 HD
ENDBRANCH  23  24
ENDBRANCH  18  23
BRANCH  20  26
ATOM     26  O   UNL     1      17.824  35.513   9.314  1.00  0.00    -0.350 OA
BRANCH  26  27
ATOM     27  C   UNL     1      17.269  34.544  10.100  1.00  0.00     0.169 C 
BRANCH  27  28
ATOM     28  C   UNL     1      18.100  33.293  10.122  1.00  0.00     0.119 C 
BRANCH  28  29
ATOM     29  N   UNL     1      17.457  32.278   9.303  1.00  0.00    -0.092 NA
ATOM     30  N   UNL     1      17.213  32.522   8.107  1.00  0.00     0.001 N 
ATOM     31  N   UNL     1      17.029  32.888   6.954  1.00  0.00    -0.003 NA
ENDBRANCH  28  29
ENDBRANCH  27  28
ENDBRANCH  26  27
ENDBRANCH  20  26
BRANCH  21  32
ATOM     32  O   UNL     1      21.592  36.536   6.713  1.00  0.00    -0.387 OA
ATOM     33  H   UNL     1      22.525  36.888   6.814  1.00  0.00     0.211 HD
ENDBRANCH  21  32
BRANCH  22  34
ATOM     34  O   UNL     1      19.774  34.595   7.233  1.00  0.00    -0.385 OA
ATOM     35  H   UNL     1      18.961  34.070   7.311  1.00  0.00     0.211 HD
ENDBRANCH  22  34
ENDBRANCH  16  17
ENDBRANCH  11  16
BRANCH  13  36
ATOM     36  O   UNL     1      24.207  37.856   7.197  1.00  0.00    -0.385 OA
ATOM     37  H   UNL     1      24.757  38.651   6.935  1.00  0.00     0.211 HD
ENDBRANCH  13  36
BRANCH  14  38
ATOM     38  O   UNL     1      26.700  37.134   9.240  1.00  0.00    -0.387 OA
ATOM     39  H   UNL     1      27.140  36.538   9.889  1.00  0.00     0.211 HD
ENDBRANCH  14  38
BRANCH  15  40
ATOM     40  O   UNL     1      26.091  34.781  10.193  1.00  0.00    -0.387 OA
ATOM     41  H   UNL     1      26.843  35.352  10.474  1.00  0.00     0.211 HD
ENDBRANCH  15  40
ENDBRANCH   9  10
ENDBRANCH   8   9
ENDBRANCH   3   8
BRANCH   3  42
ATOM     42  C   UNL     1      27.934  34.889  13.124  1.00  0.00     0.364 C 
ATOM     43  O   UNL     1      28.229  34.828  11.880  1.00  0.00    -0.246 OA
BRANCH  42  44
ATOM     44  O   UNL     1      28.705  34.112  13.951  1.00  0.00    -0.477 OA
ATOM     45  H   UNL     1      29.142  33.259  13.624  1.00  0.00     0.296 HD
ENDBRANCH  42  44
ENDBRANCH   3  42
BRANCH   6  46
ATOM     46  O   UNL     1      25.547  37.743  15.081  1.00  0.00    -0.391 OA
ATOM     47  H   UNL     1      25.619  37.688  14.097  1.00  0.00     0.211 HD
ENDBRANCH   6  46
BRANCH   7  48
ATOM     48  N   UNL     1      28.890  37.135  16.351  1.00  0.00    -0.348 N 
ATOM     49  C   UNL     1      29.329  37.821  17.511  1.00  0.00     0.217 C 
ATOM     50  H   UNL     1      29.299  36.177  16.170  1.00  0.00     0.163 HD
ATOM     51  C   UNL     1      30.337  37.148  18.405  1.00  0.00     0.114 C 
ATOM     52  O   UNL     1      28.915  38.971  17.833  1.00  0.00    -0.275 OA
ENDBRANCH   7  48
ENDBRANCH   1   2
BRANCH   1  53
ATOM     53  O   UNL     1      29.774  39.338  14.357  1.00  0.00    -0.388 OA
ATOM     54  H   UNL     1      30.468  39.886  13.922  1.00  0.00     0.211 HD
ENDBRANCH   1  53
BRANCH   1  55
ATOM     55  C   UNL     1      29.648  38.590  12.161  1.00  0.00     0.165 C 
BRANCH  55  56
ATOM     56  O   UNL     1      29.084  37.703  11.283  1.00  0.00    -0.388 OA
ATOM     57  H   UNL     1      28.364  38.092  10.757  1.00  0.00     0.211 HD
ENDBRANCH  55  56
BRANCH  55  58
ATOM     58  C   UNL     1      31.095  38.298  12.369  1.00  0.00     0.154 C 
BRANCH  58  59
ATOM     59  N   UNL     1      31.257  36.851  12.522  1.00  0.00    -0.319 N 
ATOM     60  C   UNL     1      31.535  36.269  13.781  1.00  0.00     0.407 C 
ATOM     61  H   UNL     1      31.166  36.243  11.683  1.00  0.00     0.167 HD
ATOM     62  O   UNL     1      31.644  37.032  14.772  1.00  0.00    -0.225 OA
BRANCH  60  63
ATOM     63  O   UNL     1      31.678  34.894  13.905  1.00  0.00    -0.443 OA
BRANCH  63  64
ATOM     64  C   UNL     1      32.453  34.400  14.997  1.00  0.00     0.294 C 
BRANCH  64  65
ATOM     65  C   UNL     1      31.725  33.381  15.787  1.00  0.00     0.120 A 
ATOM     66  C   UNL     1      31.357  33.462  17.111  1.00  0.00     0.138 A 
ATOM     67  N   UNL     1      31.283  32.172  15.366  1.00  0.00    -0.132 NA
ATOM     68  N   UNL     1      30.729  32.331  17.420  1.00  0.00    -0.252 N 
ATOM     69  N   UNL     1      30.686  31.554  16.361  1.00  0.00    -0.067 NA
BRANCH  68  70
ATOM     70  C   UNL     1      30.189  32.021  18.744  1.00  0.00     0.150 C 
BRANCH  70  71
ATOM     71  C   UNL     1      28.953  31.123  18.626  1.00  0.00     0.022 C 
ATOM     72  C   UNL     1      28.957  30.253  19.864  1.00  0.00     0.011 C 
BRANCH  71  73
ATOM     73  C   UNL     1      27.730  31.982  18.557  1.00  0.00     0.089 C 
BRANCH  73  74
ATOM     74  N   UNL     1      26.940  31.935  17.398  1.00  0.00    -0.299 NA
ATOM     75  C   UNL     1      25.711  32.604  17.325  1.00  0.00     0.106 C 
ATOM     76  C   UNL     1      27.077  30.747  16.618  1.00  0.00     0.106 C 
ATOM     77  C   UNL     1      24.571  31.693  16.868  1.00  0.00     0.132 C 
ATOM     78  C   UNL     1      26.349  30.924  15.297  1.00  0.00     0.132 C 
ATOM     79  N   UNL     1      24.950  31.052  15.610  1.00  0.00    -0.369 N 
BRANCH  79  80
ATOM     80  C   UNL     1      23.948  30.580  14.754  1.00  0.00     0.037 A 
ATOM     81  C   UNL     1      24.226  30.119  13.469  1.00  0.00     0.027 A 
ATOM     82  C   UNL     1      22.610  30.528  15.123  1.00  0.00     0.027 A 
ATOM     83  C   UNL     1      23.262  29.645  12.613  1.00  0.00     0.022 A 
ATOM     84  C   UNL     1      21.639  30.051  14.265  1.00  0.00     0.022 A 
ATOM     85  C   UNL     1      21.948  29.603  13.000  1.00  0.00     0.041 A 
ATOM     86  Cl  UNL     1      20.732  29.004  11.920  1.00  0.00    -0.084 Cl
ENDBRANCH  79  80
ENDBRANCH  73  74
ENDBRANCH  71  73
ENDBRANCH  70  71
ENDBRANCH  68  70
ENDBRANCH  64  65
ENDBRANCH  63  64
ENDBRANCH  60  63
ENDBRANCH  58  59
ENDBRANCH  55  58
ENDBRANCH   1  55
TORSDOF 34
BEGIN_RES LYS A 131
REMARK  4 active torsions:
REMARK  status: ('A' for Active; 'I' for Inactive)
REMARK    1  A    between atoms: CA   and  CB  
REMARK    2  A    between atoms: CB   and  CG  
REMARK    3  A    between atoms: CG   and  CD  
REMARK    4  A    between atoms: CD   and  CE  
ROOT
ATOM      1  CA  LYS A 131      29.867  25.555  16.977  1.00 20.52     0.186 C 
ENDROOT
BRANCH   1   2
ATOM      2  CB  LYS A 131      28.345  25.722  17.026  1.00 20.94     0.034 C 
BRANCH   2   3
ATOM      3  CG  LYS A 131      27.601  24.401  16.902  1.00 22.96     0.005 C 
BRANCH   3   4
ATOM      4  CD  LYS A 131      26.554  24.238  17.968  1.00 24.33     0.041 C 
BRANCH   4   5
ATOM      5  CE  LYS A 131      26.308  25.581  18.649  1.00 26.91     0.338 C 
ATOM      6  NZ  LYS A 131      24.854  25.829  18.796  1.00 27.40     0.618 N 
ENDBRANCH   4   5
ENDBRANCH   3   4
ENDBRANCH   2   3
ENDBRANCH   1   2
END_RES LYS A 131
BEGIN_RES LYS A 135
REMARK  4 active torsions:
REMARK  status: ('A' for Active; 'I' for Inactive)
REMARK    5  A    between atoms: CA   and  CB  
REMARK    6  A    between atoms: CB   and  CG  
REMARK    7  A    between atoms: CG   and  CD  
REMARK    8  A    between atoms: CD   and  CE  
ROOT
ATOM      7  CA  LYS A 135      33.193  34.663   9.290  1.00 25.02     0.186 C 
ENDROOT
BRANCH   7   8
ATOM      8  CB  LYS A 135      32.060  35.360  10.034  1.00 26.63     0.034 C 
BRANCH   8   9
ATOM      9  CG  LYS A 135      30.709  34.736   9.796  1.00 29.45     0.005 C 
BRANCH   9  10
ATOM     10  CD  LYS A 135      30.411  34.653   8.307  1.00 32.00     0.041 C 
BRANCH  10  11
ATOM     11  CE  LYS A 135      29.488  35.780   7.886  1.00 34.25     0.338 C 
ATOM     12  NZ  LYS A 135      28.891  35.513   6.548  1.00 35.99     0.618 N 
ENDBRANCH  10  11
ENDBRANCH   9  10
ENDBRANCH   8   9
ENDBRANCH   7   8
END_RES LYS A 135
