REMARK VINA RESULT:    -4.992      2.468      8.321
REMARK INTER + INTRA:         -25.113
REMARK INTER:                 -14.998
REMARK INTRA:                 -10.114
REMARK UNBOUND:                -9.760
REMARK SMILES CC(=O)N[C@@H]1[C@@H](O)C[C@](OC[C@H]2O[C@@H](O[C@H]3[C@H](O)[C@@H](O)[C@H](OCCN=[N+]=[N-])O[C@@H]3CO)[C@H](O)[C@@H](O)[C@H]2O)(C(=O)O)O[C@H]1C(O)[C@H](O)CNC(=O)OCc1cn(CCCCCCCCCCC(=O)O)nn1
REMARK SMILES IDX 51 1 49 2 48 3 50 5 47 6 45 7 43 8 42 9 9 10 8 11 41 12 6 13
REMARK SMILES IDX 5 14 10 15 11 16 12 17 14 18 13 19 32 20 34 21 36 22 15 23
REMARK SMILES IDX 16 24 29 25 28 26 21 27 17 28 19 29 30 30 31 31 22 33 23 34
REMARK SMILES IDX 24 35 25 36 26 37 27 38 18 39 20 41 33 43 35 45 37 47 38 49
REMARK SMILES IDX 39 50 40 51 7 53 4 55 2 56 1 58 3 59 44 60 46 62 52 64 53 65
REMARK SMILES IDX 54 66 70 67 55 68 69 69 56 70 57 71 58 72 59 73 60 74 61 75
REMARK SMILES IDX 62 76 63 77 64 78 65 79 66 80 67 81 68 82
REMARK H PARENT 48 4 31 32 18 40 20 42 33 44 35 46 37 48 40 52 7 54 4 57 44 61
REMARK H PARENT 46 63 68 83
REMARK Flexibility Score: inf
ROOT
ATOM      1  O   UNL     1      28.327  34.141   8.856  1.00  0.00    -0.443 OA
ENDROOT
BRANCH   1   2
ATOM      2  C   UNL     1      27.577  34.940   7.965  1.00  0.00     0.407 C 
ATOM      3  N   UNL     1      28.213  35.653   6.918  1.00  0.00    -0.319 N 
ATOM      4  H   UNL     1      29.260  35.579   6.825  1.00  0.00     0.167 HD
ATOM      5  O   UNL     1      26.334  35.036   8.076  1.00  0.00    -0.225 OA
BRANCH   3   6
ATOM      6  C   UNL     1      27.491  36.466   5.987  1.00  0.00     0.154 C 
BRANCH   6   7
ATOM      7  C   UNL     1      28.343  37.506   5.267  1.00  0.00     0.165 C 
BRANCH   7   8
ATOM      8  C   UNL     1      29.102  38.221   6.329  1.00  0.00     0.176 C 
BRANCH   8   9
ATOM      9  C   UNL     1      28.340  39.276   7.096  1.00  0.00     0.178 C 
ATOM     10  C   UNL     1      26.825  39.445   8.853  1.00  0.00     0.272 C 
ATOM     11  C   UNL     1      26.199  40.590   8.086  1.00  0.00     0.113 C 
ATOM     12  O   UNL     1      27.470  38.637   7.935  1.00  0.00    -0.332 OA
ATOM     13  C   UNL     1      26.282  40.438   6.601  1.00  0.00     0.145 C 
ATOM     14  C   UNL     1      27.740  40.321   6.208  1.00  0.00     0.142 C 
BRANCH  10  15
ATOM     15  O   UNL     1      25.843  38.713   9.540  1.00  0.00    -0.338 OA
BRANCH  15  16
ATOM     16  C   UNL     1      24.571  38.831   9.094  1.00  0.00     0.199 C 
BRANCH  16  17
ATOM     17  C   UNL     1      24.082  37.398   8.793  1.00  0.00     0.179 C 
ATOM     18  C   UNL     1      22.634  36.750  10.548  1.00  0.00     0.282 C 
ATOM     19  O   UNL     1      23.817  36.682   9.893  1.00  0.00    -0.341 OA
ATOM     20  C   UNL     1      21.546  37.389   9.773  1.00  0.00     0.202 C 
ATOM     21  C   UNL     1      21.672  36.974   8.312  1.00  0.00     0.179 C 
ATOM     22  C   UNL     1      22.997  37.434   7.740  1.00  0.00     0.177 C 
BRANCH  18  23
ATOM     23  O   UNL     1      22.896  37.381  11.791  1.00  0.00    -0.341 OA
BRANCH  23  24
ATOM     24  C   UNL     1      23.470  36.429  12.624  1.00  0.00     0.184 C 
ATOM     25  C   UNL     1      22.670  36.079  13.835  1.00  0.00     0.178 C 
ATOM     26  O   UNL     1      23.386  35.275  14.672  1.00  0.00    -0.341 OA
ATOM     27  C   UNL     1      24.566  34.752  14.294  1.00  0.00     0.281 C 
ATOM     28  C   UNL     1      24.822  36.947  13.142  1.00  0.00     0.180 C 
ATOM     29  C   UNL     1      25.542  35.741  13.700  1.00  0.00     0.202 C 
BRANCH  25  30
ATOM     30  C   UNL     1      21.336  35.429  13.515  1.00  0.00     0.191 C 
BRANCH  30  31
ATOM     31  O   UNL     1      20.362  36.318  13.144  1.00  0.00    -0.394 OA
ATOM     32  H   UNL     1      19.665  36.334  13.851  1.00  0.00     0.210 HD
ENDBRANCH  30  31
ENDBRANCH  25  30
BRANCH  27  33
ATOM     33  O   UNL     1      24.367  33.736  13.370  1.00  0.00    -0.350 OA
BRANCH  33  34
ATOM     34  C   UNL     1      24.541  32.472  13.932  1.00  0.00     0.169 C 
BRANCH  34  35
ATOM     35  C   UNL     1      24.969  32.546  15.371  1.00  0.00     0.119 C 
BRANCH  35  36
ATOM     36  N   UNL     1      26.333  32.026  15.479  1.00  0.00    -0.092 NA
ATOM     37  N   UNL     1      27.317  32.795  15.406  1.00  0.00     0.001 N 
ATOM     38  N   UNL     1      28.090  33.769  15.280  1.00  0.00    -0.003 NA
ENDBRANCH  35  36
ENDBRANCH  34  35
ENDBRANCH  33  34
ENDBRANCH  27  33
BRANCH  28  39
ATOM     39  O   UNL     1      25.583  37.527  12.149  1.00  0.00    -0.387 OA
ATOM     40  H   UNL     1      26.266  38.158  12.490  1.00  0.00     0.211 HD
ENDBRANCH  28  39
BRANCH  29  41
ATOM     41  O   UNL     1      26.365  36.187  14.729  1.00  0.00    -0.385 OA
ATOM     42  H   UNL     1      25.976  35.845  15.592  1.00  0.00     0.211 HD
ENDBRANCH  29  41
ENDBRANCH  23  24
ENDBRANCH  18  23
BRANCH  20  43
ATOM     43  O   UNL     1      20.273  36.948  10.160  1.00  0.00    -0.385 OA
ATOM     44  H   UNL     1      19.786  36.751   9.306  1.00  0.00     0.211 HD
ENDBRANCH  20  43
BRANCH  21  45
ATOM     45  O   UNL     1      20.629  37.509   7.558  1.00  0.00    -0.387 OA
ATOM     46  H   UNL     1      20.133  36.738   7.181  1.00  0.00     0.211 HD
ENDBRANCH  21  45
BRANCH  22  47
ATOM     47  O   UNL     1      22.832  38.712   7.267  1.00  0.00    -0.387 OA
ATOM     48  H   UNL     1      22.277  39.218   7.914  1.00  0.00     0.211 HD
ENDBRANCH  22  47
ENDBRANCH  16  17
ENDBRANCH  15  16
ENDBRANCH  10  15
BRANCH  10  49
ATOM     49  C   UNL     1      27.742  39.914   9.895  1.00  0.00     0.364 C 
ATOM     50  O   UNL     1      28.420  40.949   9.782  1.00  0.00    -0.246 OA
BRANCH  49  51
ATOM     51  O   UNL     1      27.889  39.202  11.074  1.00  0.00    -0.477 OA
ATOM     52  H   UNL     1      27.489  39.523  11.960  1.00  0.00     0.296 HD
ENDBRANCH  49  51
ENDBRANCH  10  49
BRANCH  13  53
ATOM     53  O   UNL     1      25.505  39.439   6.057  1.00  0.00    -0.391 OA
ATOM     54  H   UNL     1      24.821  39.769   5.406  1.00  0.00     0.211 HD
ENDBRANCH  13  53
BRANCH  14  55
ATOM     55  N   UNL     1      28.319  41.619   6.319  1.00  0.00    -0.348 N 
ATOM     56  C   UNL     1      29.371  42.104   5.491  1.00  0.00     0.217 C 
ATOM     57  H   UNL     1      27.976  42.292   7.046  1.00  0.00     0.163 HD
ATOM     58  C   UNL     1      29.918  43.461   5.668  1.00  0.00     0.114 C 
ATOM     59  O   UNL     1      29.813  41.342   4.613  1.00  0.00    -0.275 OA
ENDBRANCH  14  55
ENDBRANCH   8   9
BRANCH   8  60
ATOM     60  O   UNL     1      30.298  38.646   5.815  1.00  0.00    -0.388 OA
ATOM     61  H   UNL     1      30.753  39.332   6.327  1.00  0.00     0.211 HD
ENDBRANCH   8  60
ENDBRANCH   7   8
BRANCH   7  62
ATOM     62  O   UNL     1      27.472  38.305   4.535  1.00  0.00    -0.388 OA
ATOM     63  H   UNL     1      27.318  37.952   3.625  1.00  0.00     0.211 HD
ENDBRANCH   7  62
ENDBRANCH   6   7
ENDBRANCH   3   6
ENDBRANCH   1   2
BRANCH   1  64
ATOM     64  C   UNL     1      27.726  33.872  10.131  1.00  0.00     0.294 C 
BRANCH  64  65
ATOM     65  C   UNL     1      28.251  34.878  11.079  1.00  0.00     0.120 A 
ATOM     66  C   UNL     1      29.282  34.660  11.975  1.00  0.00     0.138 A 
ATOM     67  N   UNL     1      27.853  36.147  11.243  1.00  0.00    -0.132 NA
ATOM     68  N   UNL     1      29.457  35.817  12.640  1.00  0.00    -0.252 N 
ATOM     69  N   UNL     1      28.568  36.715  12.173  1.00  0.00    -0.067 NA
BRANCH  68  70
ATOM     70  C   UNL     1      30.399  36.127  13.670  1.00  0.00     0.146 C 
BRANCH  70  71
ATOM     71  C   UNL     1      29.880  36.938  14.806  1.00  0.00     0.024 C 
BRANCH  71  72
ATOM     72  C   UNL     1      30.851  37.860  15.455  1.00  0.00     0.002 C 
BRANCH  72  73
ATOM     73  C   UNL     1      32.284  37.464  15.363  1.00  0.00     0.000 C 
BRANCH  73  74
ATOM     74  C   UNL     1      32.848  36.793  16.568  1.00  0.00     0.000 C 
BRANCH  74  75
ATOM     75  C   UNL     1      33.168  35.356  16.260  1.00  0.00     0.000 C 
BRANCH  75  76
ATOM     76  C   UNL     1      32.000  34.423  16.496  1.00  0.00     0.000 C 
BRANCH  76  77
ATOM     77  C   UNL     1      31.877  33.352  15.462  1.00  0.00     0.001 C 
BRANCH  77  78
ATOM     78  C   UNL     1      31.128  32.134  15.906  1.00  0.00     0.012 C 
BRANCH  78  79
ATOM     79  C   UNL     1      30.597  32.385  17.306  1.00  0.00     0.122 C 
BRANCH  79  80
ATOM     80  C   UNL     1      30.084  31.119  17.858  1.00  0.00     0.303 C 
ATOM     81  O   UNL     1      30.490  30.693  18.959  1.00  0.00    -0.252 OA
BRANCH  80  82
ATOM     82  O   UNL     1      29.142  30.362  17.175  1.00  0.00    -0.481 OA
ATOM     83  H   UNL     1      29.201  29.362  17.114  1.00  0.00     0.296 HD
ENDBRANCH  80  82
ENDBRANCH  79  80
ENDBRANCH  78  79
ENDBRANCH  77  78
ENDBRANCH  76  77
ENDBRANCH  75  76
ENDBRANCH  74  75
ENDBRANCH  73  74
ENDBRANCH  72  73
ENDBRANCH  71  72
ENDBRANCH  70  71
ENDBRANCH  68  70
ENDBRANCH  64  65
ENDBRANCH   1  64
TORSDOF 41
BEGIN_RES LYS A 131
REMARK  4 active torsions:
REMARK  status: ('A' for Active; 'I' for Inactive)
REMARK    1  A    between atoms: CA   and  CB  
REMARK    2  A    between atoms: CB   and  CG  
REMARK    3  A    between atoms: CG   and  CD  
REMARK    4  A    between atoms: CD   and  CE  
ROOT
ATOM      1  CA  LYS A 131      29.867  25.555  16.977  1.00 20.52     0.186 C 
ENDROOT
BRANCH   1   2
ATOM      2  CB  LYS A 131      28.345  25.722  17.026  1.00 20.94     0.034 C 
BRANCH   2   3
ATOM      3  CG  LYS A 131      27.601  24.403  16.887  1.00 22.96     0.005 C 
BRANCH   3   4
ATOM      4  CD  LYS A 131      26.509  24.257  17.910  1.00 24.33     0.041 C 
BRANCH   4   5
ATOM      5  CE  LYS A 131      25.152  24.311  17.217  1.00 26.91     0.338 C 
ATOM      6  NZ  LYS A 131      24.290  23.197  17.678  1.00 27.40     0.618 N 
ENDBRANCH   4   5
ENDBRANCH   3   4
ENDBRANCH   2   3
ENDBRANCH   1   2
END_RES LYS A 131
BEGIN_RES LYS A 135
REMARK  4 active torsions:
REMARK  status: ('A' for Active; 'I' for Inactive)
REMARK    5  A    between atoms: CA   and  CB  
REMARK    6  A    between atoms: CB   and  CG  
REMARK    7  A    between atoms: CG   and  CD  
REMARK    8  A    between atoms: CD   and  CE  
ROOT
ATOM      7  CA  LYS A 135      33.193  34.663   9.290  1.00 25.02     0.186 C 
ENDROOT
BRANCH   7   8
ATOM      8  CB  LYS A 135      32.060  35.360  10.034  1.00 26.63     0.034 C 
BRANCH   8   9
ATOM      9  CG  LYS A 135      31.078  36.052   9.124  1.00 29.45     0.005 C 
BRANCH   9  10
ATOM     10  CD  LYS A 135      30.848  37.486   9.574  1.00 32.00     0.041 C 
BRANCH  10  11
ATOM     11  CE  LYS A 135      31.823  37.862  10.673  1.00 34.25     0.338 C 
ATOM     12  NZ  LYS A 135      31.278  38.958  11.522  1.00 35.99     0.618 N 
ENDBRANCH  10  11
ENDBRANCH   9  10
ENDBRANCH   8   9
ENDBRANCH   7   8
END_RES LYS A 135
