REMARK VINA RESULT:    -5.088      2.904      5.424
REMARK INTER + INTRA:         -23.884
REMARK INTER:                 -12.684
REMARK INTRA:                 -11.200
REMARK UNBOUND:               -10.617
REMARK SMILES CC(=O)N[C@@H]1[C@@H](O)C[C@](OC[C@H]2O[C@@H](O[C@H]3[C@H](O)[C@@H](O)[C@H](OCCN=[N+]=[N-])O[C@@H]3CO)[C@H](O)[C@@H](O)[C@H]2O)(C(=O)O)O[C@H]1C(O)[C@H](O)CNC(=O)OCc1cn(-c2ccc(S(=O)(=O)c3ccc(N)cc3)cc2)nn1
REMARK SMILES IDX 43 1 42 2 9 3 8 4 41 5 6 6 5 7 10 8 11 9 12 10 14 11 13 12
REMARK SMILES IDX 32 13 34 14 36 15 15 16 16 17 29 18 28 19 21 20 17 21 19 22
REMARK SMILES IDX 30 23 31 24 22 26 23 27 24 28 25 29 26 30 27 31 18 32 20 34
REMARK SMILES IDX 33 36 35 38 37 40 38 42 39 43 40 44 7 46 4 48 2 49 1 51 3 52
REMARK SMILES IDX 44 53 45 55 46 56 47 58 48 59 49 60 50 62 51 63 52 64 53 65
REMARK SMILES IDX 54 66 73 67 55 68 72 69 56 70 57 71 71 72 58 73 70 74 59 75
REMARK SMILES IDX 60 76 61 77 62 78 63 79 64 80 69 81 65 82 68 83 66 84 67 85
REMARK H PARENT 31 25 18 33 20 35 33 37 35 39 37 41 40 45 7 47 4 50 44 54
REMARK H PARENT 46 57 48 61 67 86 67 87
REMARK Flexibility Score: inf
ROOT
ATOM      1  C   UNL     1      24.761  36.051   9.108  1.00  0.00     0.176 C 
ENDROOT
BRANCH   1   2
ATOM      2  C   UNL     1      24.899  36.029  10.630  1.00  0.00     0.178 C 
ATOM      3  C   UNL     1      25.296  34.658  12.450  1.00  0.00     0.272 C 
ATOM      4  C   UNL     1      24.185  35.310  13.206  1.00  0.00     0.113 C 
ATOM      5  O   UNL     1      25.077  34.751  11.064  1.00  0.00    -0.332 OA
ATOM      6  C   UNL     1      23.091  35.693  12.222  1.00  0.00     0.145 C 
ATOM      7  C   UNL     1      23.650  36.677  11.251  1.00  0.00     0.142 C 
BRANCH   3   8
ATOM      8  O   UNL     1      25.440  33.287  12.679  1.00  0.00    -0.338 OA
BRANCH   8   9
ATOM      9  C   UNL     1      25.128  32.845  13.929  1.00  0.00     0.199 C 
BRANCH   9  10
ATOM     10  C   UNL     1      24.809  31.368  13.877  1.00  0.00     0.179 C 
ATOM     11  C   UNL     1      24.386  29.526  15.159  1.00  0.00     0.282 C 
ATOM     12  O   UNL     1      24.533  30.939  15.180  1.00  0.00    -0.341 OA
ATOM     13  C   UNL     1      23.067  29.275  14.486  1.00  0.00     0.202 C 
ATOM     14  C   UNL     1      23.172  29.687  13.035  1.00  0.00     0.179 C 
ATOM     15  C   UNL     1      23.664  31.122  12.957  1.00  0.00     0.177 C 
BRANCH  11  16
ATOM     16  O   UNL     1      24.487  29.078  16.449  1.00  0.00    -0.341 OA
BRANCH  16  17
ATOM     17  C   UNL     1      25.641  29.603  17.076  1.00  0.00     0.184 C 
ATOM     18  C   UNL     1      26.739  28.597  16.931  1.00  0.00     0.178 C 
ATOM     19  O   UNL     1      27.360  28.232  18.096  1.00  0.00    -0.341 OA
ATOM     20  C   UNL     1      26.570  27.855  19.142  1.00  0.00     0.281 C 
ATOM     21  C   UNL     1      25.232  29.787  18.532  1.00  0.00     0.180 C 
ATOM     22  C   UNL     1      25.155  28.385  19.103  1.00  0.00     0.202 C 
BRANCH  18  23
ATOM     23  C   UNL     1      27.823  29.284  16.079  1.00  0.00     0.191 C 
BRANCH  23  24
ATOM     24  O   UNL     1      27.571  30.617  15.871  1.00  0.00    -0.394 OA
ATOM     25  H   UNL     1      28.271  31.229  16.209  1.00  0.00     0.210 HD
ENDBRANCH  23  24
ENDBRANCH  18  23
BRANCH  20  26
ATOM     26  O   UNL     1      27.148  28.350  20.306  1.00  0.00    -0.350 OA
BRANCH  26  27
ATOM     27  C   UNL     1      28.343  27.783  20.655  1.00  0.00     0.169 C 
BRANCH  27  28
ATOM     28  C   UNL     1      29.429  28.804  20.710  1.00  0.00     0.119 C 
BRANCH  28  29
ATOM     29  N   UNL     1      28.854  30.145  20.508  1.00  0.00    -0.092 NA
ATOM     30  N   UNL     1      29.205  30.850  19.564  1.00  0.00     0.001 N 
ATOM     31  N   UNL     1      29.201  31.367  18.433  1.00  0.00    -0.003 NA
ENDBRANCH  28  29
ENDBRANCH  27  28
ENDBRANCH  26  27
ENDBRANCH  20  26
BRANCH  21  32
ATOM     32  O   UNL     1      26.193  30.497  19.211  1.00  0.00    -0.387 OA
ATOM     33  H   UNL     1      25.922  30.637  20.159  1.00  0.00     0.211 HD
ENDBRANCH  21  32
BRANCH  22  34
ATOM     34  O   UNL     1      24.283  27.576  18.412  1.00  0.00    -0.385 OA
ATOM     35  H   UNL     1      24.620  26.649  18.301  1.00  0.00     0.211 HD
ENDBRANCH  22  34
ENDBRANCH  16  17
ENDBRANCH  11  16
BRANCH  13  36
ATOM     36  O   UNL     1      22.642  27.955  14.616  1.00  0.00    -0.385 OA
ATOM     37  H   UNL     1      23.213  27.545  15.340  1.00  0.00     0.211 HD
ENDBRANCH  13  36
BRANCH  14  38
ATOM     38  O   UNL     1      21.882  29.701  12.486  1.00  0.00    -0.387 OA
ATOM     39  H   UNL     1      21.383  28.914  12.774  1.00  0.00     0.211 HD
ENDBRANCH  14  38
BRANCH  15  40
ATOM     40  O   UNL     1      22.622  32.014  13.171  1.00  0.00    -0.387 OA
ATOM     41  H   UNL     1      22.975  32.887  13.462  1.00  0.00     0.211 HD
ENDBRANCH  15  40
ENDBRANCH   9  10
ENDBRANCH   8   9
ENDBRANCH   3   8
BRANCH   3  42
ATOM     42  C   UNL     1      26.629  35.262  12.716  1.00  0.00     0.364 C 
ATOM     43  O   UNL     1      26.871  36.136  13.582  1.00  0.00    -0.246 OA
BRANCH  42  44
ATOM     44  O   UNL     1      27.714  34.847  11.962  1.00  0.00    -0.477 OA
ATOM     45  H   UNL     1      28.607  35.365  11.968  1.00  0.00     0.296 HD
ENDBRANCH  42  44
ENDBRANCH   3  42
BRANCH   6  46
ATOM     46  O   UNL     1      22.788  34.524  11.514  1.00  0.00    -0.391 OA
ATOM     47  H   UNL     1      23.436  33.795  11.709  1.00  0.00     0.211 HD
ENDBRANCH   6  46
BRANCH   7  48
ATOM     48  N   UNL     1      23.980  37.957  11.790  1.00  0.00    -0.348 N 
ATOM     49  C   UNL     1      23.824  39.188  11.093  1.00  0.00     0.217 C 
ATOM     50  H   UNL     1      24.360  38.013  12.767  1.00  0.00     0.163 HD
ATOM     51  C   UNL     1      24.203  40.457  11.763  1.00  0.00     0.114 C 
ATOM     52  O   UNL     1      23.372  39.149   9.941  1.00  0.00    -0.275 OA
ENDBRANCH   7  48
ENDBRANCH   1   2
BRANCH   1  53
ATOM     53  O   UNL     1      23.526  36.550   8.727  1.00  0.00    -0.388 OA
ATOM     54  H   UNL     1      22.951  36.705   9.534  1.00  0.00     0.211 HD
ENDBRANCH   1  53
BRANCH   1  55
ATOM     55  C   UNL     1      25.914  36.694   8.439  1.00  0.00     0.165 C 
BRANCH  55  56
ATOM     56  O   UNL     1      26.538  37.614   9.285  1.00  0.00    -0.388 OA
ATOM     57  H   UNL     1      26.562  37.345  10.217  1.00  0.00     0.211 HD
ENDBRANCH  55  56
BRANCH  55  58
ATOM     58  C   UNL     1      25.474  37.485   7.225  1.00  0.00     0.154 C 
BRANCH  58  59
ATOM     59  N   UNL     1      26.560  37.903   6.385  1.00  0.00    -0.319 N 
ATOM     60  C   UNL     1      26.925  39.273   6.374  1.00  0.00     0.407 C 
ATOM     61  H   UNL     1      27.078  37.234   5.794  1.00  0.00     0.167 HD
ATOM     62  O   UNL     1      26.285  40.075   7.114  1.00  0.00    -0.225 OA
BRANCH  60  63
ATOM     63  O   UNL     1      27.935  39.806   5.607  1.00  0.00    -0.443 OA
BRANCH  63  64
ATOM     64  C   UNL     1      29.302  39.488   5.756  1.00  0.00     0.294 C 
BRANCH  64  65
ATOM     65  C   UNL     1      29.638  39.515   7.201  1.00  0.00     0.121 A 
ATOM     66  C   UNL     1      29.967  38.488   8.062  1.00  0.00     0.144 A 
ATOM     67  N   UNL     1      29.703  40.645   7.975  1.00  0.00    -0.131 NA
ATOM     68  N   UNL     1      30.217  39.009   9.302  1.00  0.00    -0.220 N 
ATOM     69  N   UNL     1      30.045  40.304   9.198  1.00  0.00    -0.062 NA
BRANCH  68  70
ATOM     70  C   UNL     1      30.602  38.322  10.473  1.00  0.00     0.066 A 
ATOM     71  C   UNL     1      31.916  37.872  10.634  1.00  0.00     0.030 A 
ATOM     72  C   UNL     1      29.739  38.052  11.505  1.00  0.00     0.030 A 
ATOM     73  C   UNL     1      32.340  37.199  11.752  1.00  0.00     0.023 A 
ATOM     74  C   UNL     1      30.163  37.368  12.645  1.00  0.00     0.023 A 
ATOM     75  C   UNL     1      31.463  36.935  12.781  1.00  0.00     0.072 A 
BRANCH  75  76
ATOM     76  S   UNL     1      31.993  36.080  14.214  1.00  0.00     0.206 S 
ATOM     77  O   UNL     1      32.455  37.106  15.237  1.00  0.00    -0.219 OA
ATOM     78  O   UNL     1      33.053  35.069  13.934  1.00  0.00    -0.219 OA
BRANCH  76  79
ATOM     79  C   UNL     1      30.598  35.286  14.946  1.00  0.00     0.072 A 
ATOM     80  C   UNL     1      29.986  35.834  16.040  1.00  0.00     0.023 A 
ATOM     81  C   UNL     1      30.110  34.109  14.430  1.00  0.00     0.023 A 
ATOM     82  C   UNL     1      28.909  35.210  16.600  1.00  0.00     0.027 A 
ATOM     83  C   UNL     1      29.027  33.492  15.003  1.00  0.00     0.027 A 
ATOM     84  C   UNL     1      28.396  34.016  16.096  1.00  0.00     0.031 A 
BRANCH  84  85
ATOM     85  N   UNL     1      27.281  33.403  16.707  1.00  0.00    -0.399 N 
ATOM     86  H   UNL     1      27.036  32.422  16.513  1.00  0.00     0.156 HD
ATOM     87  H   UNL     1      26.695  33.947  17.364  1.00  0.00     0.156 HD
ENDBRANCH  84  85
ENDBRANCH  76  79
ENDBRANCH  75  76
ENDBRANCH  68  70
ENDBRANCH  64  65
ENDBRANCH  63  64
ENDBRANCH  60  63
ENDBRANCH  58  59
ENDBRANCH  55  58
ENDBRANCH   1  55
TORSDOF 33
BEGIN_RES LYS A 131
REMARK  4 active torsions:
REMARK  status: ('A' for Active; 'I' for Inactive)
REMARK    1  A    between atoms: CA   and  CB  
REMARK    2  A    between atoms: CB   and  CG  
REMARK    3  A    between atoms: CG   and  CD  
REMARK    4  A    between atoms: CD   and  CE  
ROOT
ATOM      1  CA  LYS A 131      29.867  25.555  16.977  1.00 20.52     0.186 C 
ENDROOT
BRANCH   1   2
ATOM      2  CB  LYS A 131      28.345  25.722  17.026  1.00 20.94     0.034 C 
BRANCH   2   3
ATOM      3  CG  LYS A 131      27.604  24.394  16.993  1.00 22.96     0.005 C 
BRANCH   3   4
ATOM      4  CD  LYS A 131      26.488  24.343  17.999  1.00 24.33     0.041 C 
BRANCH   4   5
ATOM      5  CE  LYS A 131      25.360  23.467  17.464  1.00 26.91     0.338 C 
ATOM      6  NZ  LYS A 131      24.333  23.247  18.510  1.00 27.40     0.618 N 
ENDBRANCH   4   5
ENDBRANCH   3   4
ENDBRANCH   2   3
ENDBRANCH   1   2
END_RES LYS A 131
BEGIN_RES LYS A 135
REMARK  4 active torsions:
REMARK  status: ('A' for Active; 'I' for Inactive)
REMARK    5  A    between atoms: CA   and  CB  
REMARK    6  A    between atoms: CB   and  CG  
REMARK    7  A    between atoms: CG   and  CD  
REMARK    8  A    between atoms: CD   and  CE  
ROOT
ATOM      7  CA  LYS A 135      33.193  34.663   9.290  1.00 25.02     0.186 C 
ENDROOT
BRANCH   7   8
ATOM      8  CB  LYS A 135      32.060  35.360  10.034  1.00 26.63     0.034 C 
BRANCH   8   9
ATOM      9  CG  LYS A 135      30.767  34.586  10.024  1.00 29.45     0.005 C 
BRANCH   9  10
ATOM     10  CD  LYS A 135      30.404  34.166   8.608  1.00 32.00     0.041 C 
BRANCH  10  11
ATOM     11  CE  LYS A 135      28.974  34.558   8.287  1.00 34.25     0.338 C 
ATOM     12  NZ  LYS A 135      28.893  35.265   6.978  1.00 35.99     0.618 N 
ENDBRANCH  10  11
ENDBRANCH   9  10
ENDBRANCH   8   9
ENDBRANCH   7   8
END_RES LYS A 135
