REMARK VINA RESULT:    -4.324      6.702     10.265
REMARK INTER + INTRA:         -21.253
REMARK INTER:                  -8.439
REMARK INTRA:                 -12.814
REMARK UNBOUND:               -10.230
REMARK SMILES CC(=O)N[C@@H]1[C@@H](O)C[C@](OC[C@H]2O[C@@H](O[C@H]3[C@H](O)[C@@H](O)[C@H](OCCN=[N+]=[N-])O[C@@H]3CO)[C@H](O)[C@@H](O)[C@H]2O)(C(=O)O)O[C@H]1C(O)[C@H](O)CNC(=O)OCc1cn(C(C)(C)CO)nn1
REMARK SMILES IDX 9 1 8 2 6 3 5 4 42 5 41 6 10 7 11 8 12 9 14 10 13 11 32 12
REMARK SMILES IDX 34 13 36 14 15 15 16 16 29 17 28 18 21 19 17 20 19 21 30 22
REMARK SMILES IDX 31 23 22 25 23 26 24 27 25 28 26 29 27 30 18 31 20 33 33 35
REMARK SMILES IDX 35 37 37 39 38 41 39 42 40 43 7 45 43 47 44 48 45 50 46 51
REMARK SMILES IDX 47 53 48 54 49 55 50 57 51 58 52 59 53 60 54 61 62 62 55 63
REMARK SMILES IDX 61 64 56 65 57 66 58 67 59 68 60 69 4 71 2 72 1 74 3 75
REMARK H PARENT 31 24 18 32 20 34 33 36 35 38 37 40 40 44 7 46 44 49 46 52
REMARK H PARENT 48 56 60 70 4 73
REMARK Flexibility Score: inf
ROOT
ATOM      1  C   UNL     1      23.525  38.092   8.355  1.00  0.00     0.272 C 
ATOM      2  C   UNL     1      23.425  36.598   8.202  1.00  0.00     0.113 C 
ATOM      3  C   UNL     1      23.220  36.009   9.577  1.00  0.00     0.145 C 
ATOM      4  C   UNL     1      24.576  36.188  10.298  1.00  0.00     0.142 C 
ATOM      5  C   UNL     1      24.920  37.645  10.204  1.00  0.00     0.178 C 
ATOM      6  O   UNL     1      23.880  38.412   9.720  1.00  0.00    -0.332 OA
ENDROOT
BRANCH   1   7
ATOM      7  O   UNL     1      22.347  38.747   8.202  1.00  0.00    -0.338 OA
BRANCH   7   8
ATOM      8  C   UNL     1      21.927  39.719   8.995  1.00  0.00     0.199 C 
BRANCH   8   9
ATOM      9  C   UNL     1      20.575  39.832   9.570  1.00  0.00     0.179 C 
ATOM     10  C   UNL     1      18.557  38.715   9.586  1.00  0.00     0.282 C 
ATOM     11  O   UNL     1      19.903  38.579   9.368  1.00  0.00    -0.341 OA
ATOM     12  C   UNL     1      18.131  39.880  10.405  1.00  0.00     0.202 C 
ATOM     13  C   UNL     1      19.131  40.293  11.463  1.00  0.00     0.179 C 
ATOM     14  C   UNL     1      20.538  39.960  11.088  1.00  0.00     0.177 C 
BRANCH  10  15
ATOM     15  O   UNL     1      18.079  37.492  10.065  1.00  0.00    -0.341 OA
BRANCH  15  16
ATOM     16  C   UNL     1      18.926  36.434   9.831  1.00  0.00     0.184 C 
ATOM     17  C   UNL     1      18.410  35.463   8.791  1.00  0.00     0.178 C 
ATOM     18  O   UNL     1      18.528  34.141   9.165  1.00  0.00    -0.341 OA
ATOM     19  C   UNL     1      17.834  33.770  10.285  1.00  0.00     0.281 C 
ATOM     20  C   UNL     1      19.030  35.675  11.167  1.00  0.00     0.180 C 
ATOM     21  C   UNL     1      17.719  34.917  11.263  1.00  0.00     0.202 C 
BRANCH  17  22
ATOM     22  C   UNL     1      19.303  35.650   7.571  1.00  0.00     0.191 C 
BRANCH  22  23
ATOM     23  O   UNL     1      19.215  34.523   6.752  1.00  0.00    -0.394 OA
ATOM     24  H   UNL     1      19.577  33.714   7.159  1.00  0.00     0.210 HD
ENDBRANCH  22  23
ENDBRANCH  17  22
BRANCH  19  25
ATOM     25  O   UNL     1      18.475  32.671  10.829  1.00  0.00    -0.350 OA
BRANCH  25  26
ATOM     26  C   UNL     1      17.672  31.641  11.203  1.00  0.00     0.169 C 
BRANCH  26  27
ATOM     27  C   UNL     1      17.438  30.606  10.112  1.00  0.00     0.119 C 
BRANCH  27  28
ATOM     28  N   UNL     1      17.710  29.267  10.597  1.00  0.00    -0.092 NA
ATOM     29  N   UNL     1      18.789  29.079  11.176  1.00  0.00     0.001 N 
ATOM     30  N   UNL     1      19.644  28.867  12.064  1.00  0.00    -0.003 NA
ENDBRANCH  27  28
ENDBRANCH  26  27
ENDBRANCH  25  26
ENDBRANCH  19  25
BRANCH  20  31
ATOM     31  O   UNL     1      20.124  34.818  11.018  1.00  0.00    -0.387 OA
ATOM     32  H   UNL     1      19.821  34.108  10.392  1.00  0.00     0.211 HD
ENDBRANCH  20  31
BRANCH  21  33
ATOM     33  O   UNL     1      16.713  35.771  10.780  1.00  0.00    -0.385 OA
ATOM     34  H   UNL     1      16.154  36.107  11.543  1.00  0.00     0.211 HD
ENDBRANCH  21  33
ENDBRANCH  15  16
ENDBRANCH  10  15
BRANCH  12  35
ATOM     35  O   UNL     1      17.695  40.980   9.664  1.00  0.00    -0.385 OA
ATOM     36  H   UNL     1      18.409  41.193   9.030  1.00  0.00     0.211 HD
ENDBRANCH  12  35
BRANCH  13  37
ATOM     37  O   UNL     1      18.796  39.742  12.713  1.00  0.00    -0.387 OA
ATOM     38  H   UNL     1      18.300  38.888  12.602  1.00  0.00     0.211 HD
ENDBRANCH  13  37
BRANCH  14  39
ATOM     39  O   UNL     1      20.800  38.670  11.605  1.00  0.00    -0.387 OA
ATOM     40  H   UNL     1      20.723  38.004  10.891  1.00  0.00     0.211 HD
ENDBRANCH  14  39
ENDBRANCH   8   9
ENDBRANCH   7   8
ENDBRANCH   1   7
BRANCH   1  41
ATOM     41  C   UNL     1      24.635  38.668   7.596  1.00  0.00     0.364 C 
ATOM     42  O   UNL     1      24.851  39.881   7.553  1.00  0.00    -0.246 OA
BRANCH  41  43
ATOM     43  O   UNL     1      25.532  37.875   6.859  1.00  0.00    -0.477 OA
ATOM     44  H   UNL     1      25.130  37.201   6.218  1.00  0.00     0.296 HD
ENDBRANCH  41  43
ENDBRANCH   1  41
BRANCH   3  45
ATOM     45  O   UNL     1      22.341  36.849  10.265  1.00  0.00    -0.391 OA
ATOM     46  H   UNL     1      21.740  37.317   9.651  1.00  0.00     0.211 HD
ENDBRANCH   3  45
BRANCH   5  47
ATOM     47  C   UNL     1      25.085  38.129  11.657  1.00  0.00     0.176 C 
BRANCH  47  48
ATOM     48  O   UNL     1      24.711  37.069  12.519  1.00  0.00    -0.388 OA
ATOM     49  H   UNL     1      24.155  36.411  12.069  1.00  0.00     0.211 HD
ENDBRANCH  47  48
BRANCH  47  50
ATOM     50  C   UNL     1      24.109  39.242  11.996  1.00  0.00     0.165 C 
BRANCH  50  51
ATOM     51  O   UNL     1      24.341  40.391  11.314  1.00  0.00    -0.388 OA
ATOM     52  H   UNL     1      25.135  40.399  10.730  1.00  0.00     0.211 HD
ENDBRANCH  50  51
BRANCH  50  53
ATOM     53  C   UNL     1      24.104  39.487  13.492  1.00  0.00     0.154 C 
BRANCH  53  54
ATOM     54  N   UNL     1      23.318  38.599  14.266  1.00  0.00    -0.319 N 
ATOM     55  C   UNL     1      22.007  38.856  14.681  1.00  0.00     0.407 C 
ATOM     56  H   UNL     1      23.738  37.654  14.567  1.00  0.00     0.167 HD
ATOM     57  O   UNL     1      21.411  39.905  14.389  1.00  0.00    -0.225 OA
BRANCH  55  58
ATOM     58  O   UNL     1      21.287  37.923  15.466  1.00  0.00    -0.443 OA
BRANCH  58  59
ATOM     59  C   UNL     1      20.510  36.909  14.869  1.00  0.00     0.294 C 
BRANCH  59  60
ATOM     60  C   UNL     1      21.311  35.881  14.175  1.00  0.00     0.120 A 
ATOM     61  C   UNL     1      21.513  34.572  14.563  1.00  0.00     0.139 A 
ATOM     62  N   UNL     1      21.995  36.024  13.029  1.00  0.00    -0.132 NA
ATOM     63  N   UNL     1      22.307  33.958  13.651  1.00  0.00    -0.244 N 
ATOM     64  N   UNL     1      22.585  34.864  12.729  1.00  0.00    -0.066 NA
BRANCH  63  65
ATOM     65  C   UNL     1      22.741  32.585  13.705  1.00  0.00     0.082 C 
ATOM     66  C   UNL     1      22.677  32.089  15.119  1.00  0.00     0.039 C 
ATOM     67  C   UNL     1      24.207  32.478  13.261  1.00  0.00     0.039 C 
BRANCH  65  68
ATOM     68  C   UNL     1      21.949  31.663  12.823  1.00  0.00     0.186 C 
BRANCH  68  69
ATOM     69  O   UNL     1      21.036  32.313  12.025  1.00  0.00    -0.394 OA
ATOM     70  H   UNL     1      21.415  32.872  11.328  1.00  0.00     0.210 HD
ENDBRANCH  68  69
ENDBRANCH  65  68
ENDBRANCH  63  65
ENDBRANCH  59  60
ENDBRANCH  58  59
ENDBRANCH  55  58
ENDBRANCH  53  54
ENDBRANCH  50  53
ENDBRANCH  47  50
ENDBRANCH   5  47
BRANCH   4  71
ATOM     71  N   UNL     1      25.479  35.298   9.641  1.00  0.00    -0.348 N 
ATOM     72  C   UNL     1      26.557  34.606  10.241  1.00  0.00     0.217 C 
ATOM     73  H   UNL     1      25.368  35.112   8.600  1.00  0.00     0.163 HD
ATOM     74  C   UNL     1      27.448  33.697   9.470  1.00  0.00     0.114 C 
ATOM     75  O   UNL     1      26.775  34.755  11.455  1.00  0.00    -0.275 OA
ENDBRANCH   4  71
TORSDOF 32
BEGIN_RES LYS A 131
REMARK  4 active torsions:
REMARK  status: ('A' for Active; 'I' for Inactive)
REMARK    1  A    between atoms: CA   and  CB  
REMARK    2  A    between atoms: CB   and  CG  
REMARK    3  A    between atoms: CG   and  CD  
REMARK    4  A    between atoms: CD   and  CE  
ROOT
ATOM      1  CA  LYS A 131      29.867  25.555  16.977  1.00 20.52     0.186 C 
ENDROOT
BRANCH   1   2
ATOM      2  CB  LYS A 131      28.345  25.722  17.026  1.00 20.94     0.034 C 
BRANCH   2   3
ATOM      3  CG  LYS A 131      27.600  24.407  16.851  1.00 22.96     0.005 C 
BRANCH   3   4
ATOM      4  CD  LYS A 131      26.161  24.511  17.273  1.00 24.33     0.041 C 
BRANCH   4   5
ATOM      5  CE  LYS A 131      25.742  23.224  17.976  1.00 26.91     0.338 C 
ATOM      6  NZ  LYS A 131      25.521  23.470  19.421  1.00 27.40     0.618 N 
ENDBRANCH   4   5
ENDBRANCH   3   4
ENDBRANCH   2   3
ENDBRANCH   1   2
END_RES LYS A 131
BEGIN_RES LYS A 135
REMARK  4 active torsions:
REMARK  status: ('A' for Active; 'I' for Inactive)
REMARK    5  A    between atoms: CA   and  CB  
REMARK    6  A    between atoms: CB   and  CG  
REMARK    7  A    between atoms: CG   and  CD  
REMARK    8  A    between atoms: CD   and  CE  
ROOT
ATOM      7  CA  LYS A 135      33.193  34.663   9.290  1.00 25.02     0.186 C 
ENDROOT
BRANCH   7   8
ATOM      8  CB  LYS A 135      32.060  35.360  10.034  1.00 26.63     0.034 C 
BRANCH   8   9
ATOM      9  CG  LYS A 135      30.692  34.845   9.668  1.00 29.45     0.005 C 
BRANCH   9  10
ATOM     10  CD  LYS A 135      30.497  34.864   8.160  1.00 32.00     0.041 C 
BRANCH  10  11
ATOM     11  CE  LYS A 135      29.558  35.985   7.758  1.00 34.25     0.338 C 
ATOM     12  NZ  LYS A 135      28.710  35.586   6.601  1.00 35.99     0.618 N 
ENDBRANCH  10  11
ENDBRANCH   9  10
ENDBRANCH   8   9
ENDBRANCH   7   8
END_RES LYS A 135
