REMARK VINA RESULT:    -4.155      5.843     11.242
REMARK INTER + INTRA:         -20.844
REMARK INTER:                 -10.229
REMARK INTRA:                 -10.616
REMARK UNBOUND:               -10.616
REMARK SMILES CC(=O)N[C@@H]1[C@@H](O)C[C@](OC[C@H]2O[C@@H](O[C@H]3[C@H](O)[C@@H](O)[C@H](OCCN=[N+]=[N-])O[C@@H]3CO)[C@H](O)[C@@H](O)[C@H]2O)(C(=O)O)O[C@H]1C(O)[C@H](O)CNC(=O)OCc1cn(C2CCCC2)nn1
REMARK SMILES IDX 9 1 8 2 6 3 5 4 42 5 41 6 10 7 11 8 12 9 14 10 13 11 32 12
REMARK SMILES IDX 34 13 36 14 15 15 16 16 29 17 28 18 21 19 17 20 19 21 30 22
REMARK SMILES IDX 31 23 22 25 23 26 24 27 25 28 26 29 27 30 18 31 20 33 33 35
REMARK SMILES IDX 35 37 37 39 38 41 39 42 40 43 7 45 43 47 44 48 45 50 46 51
REMARK SMILES IDX 47 53 48 54 49 55 50 57 51 58 52 59 53 60 54 61 62 62 55 63
REMARK SMILES IDX 61 64 56 65 57 66 60 67 58 68 59 69 4 70 2 71 1 73 3 74
REMARK H PARENT 31 24 18 32 20 34 33 36 35 38 37 40 40 44 7 46 44 49 46 52
REMARK H PARENT 48 56 4 72
REMARK Flexibility Score: inf
ROOT
ATOM      1  C   UNL     1      29.707  32.672  16.205  1.00  0.00     0.272 C 
ATOM      2  C   UNL     1      29.118  31.488  15.534  1.00  0.00     0.113 C 
ATOM      3  C   UNL     1      27.992  30.852  16.272  1.00  0.00     0.145 C 
ATOM      4  C   UNL     1      28.386  30.621  17.751  1.00  0.00     0.142 C 
ATOM      5  C   UNL     1      29.783  31.102  17.922  1.00  0.00     0.178 C 
ATOM      6  O   UNL     1      29.702  32.503  17.609  1.00  0.00    -0.332 OA
ENDROOT
BRANCH   1   7
ATOM      7  O   UNL     1      29.075  33.831  15.932  1.00  0.00    -0.338 OA
BRANCH   7   8
ATOM      8  C   UNL     1      29.288  34.456  14.730  1.00  0.00     0.199 C 
BRANCH   8   9
ATOM      9  C   UNL     1      28.618  35.825  14.805  1.00  0.00     0.179 C 
ATOM     10  C   UNL     1      30.244  37.148  15.818  1.00  0.00     0.282 C 
ATOM     11  O   UNL     1      28.987  36.561  15.884  1.00  0.00    -0.341 OA
ATOM     12  C   UNL     1      30.656  37.535  14.440  1.00  0.00     0.202 C 
ATOM     13  C   UNL     1      29.518  37.746  13.490  1.00  0.00     0.179 C 
ATOM     14  C   UNL     1      28.683  36.490  13.482  1.00  0.00     0.177 C 
BRANCH  10  15
ATOM     15  O   UNL     1      31.201  36.398  16.499  1.00  0.00    -0.341 OA
BRANCH  15  16
ATOM     16  C   UNL     1      31.314  36.781  17.835  1.00  0.00     0.184 C 
ATOM     17  C   UNL     1      32.662  37.292  18.218  1.00  0.00     0.178 C 
ATOM     18  O   UNL     1      32.667  37.558  19.585  1.00  0.00    -0.341 OA
ATOM     19  C   UNL     1      32.756  36.373  20.293  1.00  0.00     0.281 C 
ATOM     20  C   UNL     1      31.075  35.515  18.649  1.00  0.00     0.180 C 
ATOM     21  C   UNL     1      31.431  35.660  20.094  1.00  0.00     0.202 C 
BRANCH  17  22
ATOM     22  C   UNL     1      33.021  38.619  17.557  1.00  0.00     0.191 C 
BRANCH  22  23
ATOM     23  O   UNL     1      33.585  38.278  16.317  1.00  0.00    -0.394 OA
ATOM     24  H   UNL     1      34.506  37.985  16.417  1.00  0.00     0.210 HD
ENDBRANCH  22  23
ENDBRANCH  17  22
BRANCH  19  25
ATOM     25  O   UNL     1      32.866  36.664  21.650  1.00  0.00    -0.350 OA
BRANCH  25  26
ATOM     26  C   UNL     1      31.974  37.696  21.986  1.00  0.00     0.169 C 
BRANCH  26  27
ATOM     27  C   UNL     1      32.642  38.693  22.917  1.00  0.00     0.119 C 
BRANCH  27  28
ATOM     28  N   UNL     1      32.733  39.988  22.307  1.00  0.00    -0.092 NA
ATOM     29  N   UNL     1      33.504  40.216  21.353  1.00  0.00     0.001 N 
ATOM     30  N   UNL     1      34.564  40.481  20.792  1.00  0.00    -0.003 NA
ENDBRANCH  27  28
ENDBRANCH  26  27
ENDBRANCH  25  26
ENDBRANCH  19  25
BRANCH  20  31
ATOM     31  O   UNL     1      29.712  35.245  18.555  1.00  0.00    -0.387 OA
ATOM     32  H   UNL     1      29.195  35.999  18.179  1.00  0.00     0.211 HD
ENDBRANCH  20  31
BRANCH  21  33
ATOM     33  O   UNL     1      31.580  34.373  20.635  1.00  0.00    -0.385 OA
ATOM     34  H   UNL     1      31.773  33.782  19.863  1.00  0.00     0.211 HD
ENDBRANCH  21  33
ENDBRANCH  15  16
ENDBRANCH  10  15
BRANCH  12  35
ATOM     35  O   UNL     1      31.384  38.748  14.446  1.00  0.00    -0.385 OA
ATOM     36  H   UNL     1      31.500  39.010  15.378  1.00  0.00     0.211 HD
ENDBRANCH  12  35
BRANCH  13  37
ATOM     37  O   UNL     1      30.014  37.951  12.216  1.00  0.00    -0.387 OA
ATOM     38  H   UNL     1      30.955  38.222  12.297  1.00  0.00     0.211 HD
ENDBRANCH  13  37
BRANCH  14  39
ATOM     39  O   UNL     1      29.137  35.672  12.456  1.00  0.00    -0.387 OA
ATOM     40  H   UNL     1      29.661  36.147  11.794  1.00  0.00     0.211 HD
ENDBRANCH  14  39
ENDBRANCH   8   9
ENDBRANCH   7   8
ENDBRANCH   1   7
BRANCH   1  41
ATOM     41  C   UNL     1      31.181  32.729  15.870  1.00  0.00     0.364 C 
ATOM     42  O   UNL     1      31.983  33.437  16.499  1.00  0.00    -0.246 OA
BRANCH  41  43
ATOM     43  O   UNL     1      31.590  31.929  14.799  1.00  0.00    -0.477 OA
ATOM     44  H   UNL     1      30.907  31.291  14.369  1.00  0.00     0.296 HD
ENDBRANCH  41  43
ENDBRANCH   1  41
BRANCH   3  45
ATOM     45  O   UNL     1      26.775  31.476  16.161  1.00  0.00    -0.391 OA
ATOM     46  H   UNL     1      26.845  32.257  15.567  1.00  0.00     0.211 HD
ENDBRANCH   3  45
BRANCH   5  47
ATOM     47  C   UNL     1      30.303  31.084  19.338  1.00  0.00     0.176 C 
BRANCH  47  48
ATOM     48  O   UNL     1      30.431  29.675  19.684  1.00  0.00    -0.388 OA
ATOM     49  H   UNL     1      29.758  29.252  19.103  1.00  0.00     0.211 HD
ENDBRANCH  47  48
BRANCH  47  50
ATOM     50  C   UNL     1      29.351  31.574  20.393  1.00  0.00     0.165 C 
BRANCH  50  51
ATOM     51  O   UNL     1      29.178  32.905  20.527  1.00  0.00    -0.388 OA
ATOM     52  H   UNL     1      28.561  33.323  19.887  1.00  0.00     0.211 HD
ENDBRANCH  50  51
BRANCH  50  53
ATOM     53  C   UNL     1      29.825  31.025  21.734  1.00  0.00     0.154 C 
BRANCH  53  54
ATOM     54  N   UNL     1      31.046  31.748  22.116  1.00  0.00    -0.319 N 
ATOM     55  C   UNL     1      32.282  31.069  22.260  1.00  0.00     0.407 C 
ATOM     56  H   UNL     1      31.035  32.785  22.294  1.00  0.00     0.167 HD
ATOM     57  O   UNL     1      32.325  29.828  22.054  1.00  0.00    -0.225 OA
BRANCH  55  58
ATOM     58  O   UNL     1      33.433  31.732  22.618  1.00  0.00    -0.443 OA
BRANCH  58  59
ATOM     59  C   UNL     1      34.716  31.302  22.206  1.00  0.00     0.294 C 
BRANCH  59  60
ATOM     60  C   UNL     1      35.522  32.381  21.590  1.00  0.00     0.120 A 
ATOM     61  C   UNL     1      36.823  32.383  21.141  1.00  0.00     0.138 A 
ATOM     62  N   UNL     1      35.072  33.632  21.354  1.00  0.00    -0.132 NA
ATOM     63  N   UNL     1      37.115  33.596  20.663  1.00  0.00    -0.249 N 
ATOM     64  N   UNL     1      36.024  34.331  20.808  1.00  0.00    -0.067 NA
BRANCH  63  65
ATOM     65  C   UNL     1      38.368  34.066  20.084  1.00  0.00     0.109 C 
ATOM     66  C   UNL     1      39.088  33.006  19.319  1.00  0.00     0.027 C 
ATOM     67  C   UNL     1      38.049  35.128  19.053  1.00  0.00     0.027 C 
ATOM     68  C   UNL     1      38.681  33.128  17.873  1.00  0.00     0.002 C 
ATOM     69  C   UNL     1      37.926  34.425  17.736  1.00  0.00     0.002 C 
ENDBRANCH  63  65
ENDBRANCH  59  60
ENDBRANCH  58  59
ENDBRANCH  55  58
ENDBRANCH  53  54
ENDBRANCH  50  53
ENDBRANCH  47  50
ENDBRANCH   5  47
BRANCH   4  70
ATOM     70  N   UNL     1      28.134  29.236  18.079  1.00  0.00    -0.348 N 
ATOM     71  C   UNL     1      27.082  28.895  19.015  1.00  0.00     0.217 C 
ATOM     72  H   UNL     1      28.658  28.440  17.663  1.00  0.00     0.163 HD
ATOM     73  C   UNL     1      26.806  27.480  19.365  1.00  0.00     0.114 C 
ATOM     74  O   UNL     1      26.380  29.795  19.551  1.00  0.00    -0.275 OA
ENDBRANCH   4  70
TORSDOF 30
BEGIN_RES LYS A 131
REMARK  4 active torsions:
REMARK  status: ('A' for Active; 'I' for Inactive)
REMARK    1  A    between atoms: CA   and  CB  
REMARK    2  A    between atoms: CB   and  CG  
REMARK    3  A    between atoms: CG   and  CD  
REMARK    4  A    between atoms: CD   and  CE  
ROOT
ATOM      1  CA  LYS A 131      29.867  25.555  16.977  1.00 20.52     0.186 C 
ENDROOT
BRANCH   1   2
ATOM      2  CB  LYS A 131      28.345  25.722  17.026  1.00 20.94     0.034 C 
BRANCH   2   3
ATOM      3  CG  LYS A 131      27.601  24.402  16.893  1.00 22.96     0.005 C 
BRANCH   3   4
ATOM      4  CD  LYS A 131      26.155  24.525  17.285  1.00 24.33     0.041 C 
BRANCH   4   5
ATOM      5  CE  LYS A 131      25.805  23.431  18.289  1.00 26.91     0.338 C 
ATOM      6  NZ  LYS A 131      25.484  24.022  19.609  1.00 27.40     0.618 N 
ENDBRANCH   4   5
ENDBRANCH   3   4
ENDBRANCH   2   3
ENDBRANCH   1   2
END_RES LYS A 131
BEGIN_RES LYS A 135
REMARK  4 active torsions:
REMARK  status: ('A' for Active; 'I' for Inactive)
REMARK    5  A    between atoms: CA   and  CB  
REMARK    6  A    between atoms: CB   and  CG  
REMARK    7  A    between atoms: CG   and  CD  
REMARK    8  A    between atoms: CD   and  CE  
ROOT
ATOM      7  CA  LYS A 135      33.193  34.663   9.290  1.00 25.02     0.186 C 
ENDROOT
BRANCH   7   8
ATOM      8  CB  LYS A 135      32.060  35.360  10.034  1.00 26.63     0.034 C 
BRANCH   8   9
ATOM      9  CG  LYS A 135      30.784  35.453   9.238  1.00 29.45     0.005 C 
BRANCH   9  10
ATOM     10  CD  LYS A 135      30.175  34.074   9.038  1.00 32.00     0.041 C 
BRANCH  10  11
ATOM     11  CE  LYS A 135      28.660  34.153   9.057  1.00 34.25     0.338 C 
ATOM     12  NZ  LYS A 135      28.197  35.568   9.084  1.00 35.99     0.618 N 
ENDBRANCH  10  11
ENDBRANCH   9  10
ENDBRANCH   8   9
ENDBRANCH   7   8
END_RES LYS A 135
