REMARK VINA RESULT:    -4.745      2.153      3.652
REMARK INTER + INTRA:         -24.089
REMARK INTER:                 -15.314
REMARK INTRA:                  -8.775
REMARK UNBOUND:               -12.409
REMARK SMILES CC(=O)N[C@@H]1[C@@H](O)C[C@](OC[C@H]2O[C@@H](O[C@H]3[C@H](O)[C@@H](O)[C@H](OCCN=[N+]=[N-])O[C@@H]3CO)[C@H](O)[C@@H](O)[C@H]2O)(C(=O)O)O[C@H]1C(O)[C@H](O)CNC(=O)OCc1cn(C2c3ccccc3-c3ccccc32)nn1
REMARK SMILES IDX 9 1 8 2 6 3 5 4 42 5 41 6 10 7 11 8 12 9 14 10 13 11 32 12
REMARK SMILES IDX 34 13 36 14 15 15 16 16 29 17 28 18 21 19 17 20 19 21 30 22
REMARK SMILES IDX 31 23 22 25 23 26 24 27 25 28 26 29 27 30 18 31 20 33 33 35
REMARK SMILES IDX 35 37 37 39 38 41 39 42 40 43 7 45 43 47 44 48 45 50 46 51
REMARK SMILES IDX 47 53 48 54 49 55 50 57 51 58 52 59 53 60 54 61 70 62 55 63
REMARK SMILES IDX 69 64 56 65 57 66 68 67 58 68 62 69 63 70 67 71 59 72 61 73
REMARK SMILES IDX 64 74 66 75 60 76 65 77 4 78 2 79 1 81 3 82
REMARK H PARENT 31 24 18 32 20 34 33 36 35 38 37 40 40 44 7 46 44 49 46 52
REMARK H PARENT 48 56 4 80
REMARK Flexibility Score: inf
ROOT
ATOM      1  C   UNL     1      24.216  36.734   9.360  1.00  0.00     0.272 C 
ATOM      2  C   UNL     1      23.315  37.588   8.564  1.00  0.00     0.113 C 
ATOM      3  C   UNL     1      23.940  38.866   8.150  1.00  0.00     0.145 C 
ATOM      4  C   UNL     1      25.117  39.274   8.992  1.00  0.00     0.142 C 
ATOM      5  C   UNL     1      24.945  38.720  10.364  1.00  0.00     0.178 C 
ATOM      6  O   UNL     1      24.770  37.378  10.476  1.00  0.00    -0.332 OA
ENDROOT
BRANCH   1   7
ATOM      7  O   UNL     1      25.240  36.191   8.630  1.00  0.00    -0.338 OA
BRANCH   7   8
ATOM      8  C   UNL     1      26.313  35.712   9.331  1.00  0.00     0.199 C 
BRANCH   8   9
ATOM      9  C   UNL     1      27.066  34.700   8.496  1.00  0.00     0.179 C 
ATOM     10  C   UNL     1      28.600  36.286   7.705  1.00  0.00     0.282 C 
ATOM     11  O   UNL     1      27.633  35.360   7.431  1.00  0.00    -0.341 OA
ATOM     12  C   UNL     1      29.574  35.774   8.695  1.00  0.00     0.202 C 
ATOM     13  C   UNL     1      29.470  34.239   8.623  1.00  0.00     0.179 C 
ATOM     14  C   UNL     1      28.106  33.954   9.287  1.00  0.00     0.177 C 
BRANCH  10  15
ATOM     15  O   UNL     1      28.075  37.534   7.907  1.00  0.00    -0.341 OA
BRANCH  15  16
ATOM     16  C   UNL     1      28.607  38.556   7.168  1.00  0.00     0.184 C 
ATOM     17  C   UNL     1      28.891  38.119   5.780  1.00  0.00     0.178 C 
ATOM     18  O   UNL     1      30.077  38.635   5.267  1.00  0.00    -0.341 OA
ATOM     19  C   UNL     1      30.378  39.879   5.717  1.00  0.00     0.281 C 
ATOM     20  C   UNL     1      29.869  38.962   7.926  1.00  0.00     0.180 C 
ATOM     21  C   UNL     1      30.847  39.753   7.162  1.00  0.00     0.202 C 
BRANCH  17  22
ATOM     22  C   UNL     1      27.786  38.512   4.823  1.00  0.00     0.191 C 
BRANCH  22  23
ATOM     23  O   UNL     1      26.736  39.158   5.519  1.00  0.00    -0.394 OA
ATOM     24  H   UNL     1      25.927  38.563   5.527  1.00  0.00     0.210 HD
ENDBRANCH  22  23
ENDBRANCH  17  22
BRANCH  19  25
ATOM     25  O   UNL     1      29.353  40.807   5.715  1.00  0.00    -0.350 OA
BRANCH  25  26
ATOM     26  C   UNL     1      29.604  41.926   4.975  1.00  0.00     0.169 C 
BRANCH  26  27
ATOM     27  C   UNL     1      28.487  42.436   4.131  1.00  0.00     0.119 C 
BRANCH  27  28
ATOM     28  N   UNL     1      27.395  42.995   4.902  1.00  0.00    -0.092 NA
ATOM     29  N   UNL     1      26.350  42.333   4.932  1.00  0.00     0.001 N 
ATOM     30  N   UNL     1      25.242  41.783   4.925  1.00  0.00    -0.003 NA
ENDBRANCH  27  28
ENDBRANCH  26  27
ENDBRANCH  25  26
ENDBRANCH  19  25
BRANCH  20  31
ATOM     31  O   UNL     1      29.493  39.719   9.068  1.00  0.00    -0.387 OA
ATOM     32  H   UNL     1      30.096  40.497   9.176  1.00  0.00     0.211 HD
ENDBRANCH  20  31
BRANCH  21  33
ATOM     33  O   UNL     1      32.085  39.096   7.125  1.00  0.00    -0.385 OA
ATOM     34  H   UNL     1      32.045  38.186   7.518  1.00  0.00     0.211 HD
ENDBRANCH  21  33
ENDBRANCH  15  16
ENDBRANCH  10  15
BRANCH  12  35
ATOM     35  O   UNL     1      30.900  36.059   8.374  1.00  0.00    -0.385 OA
ATOM     36  H   UNL     1      31.422  36.101   9.209  1.00  0.00     0.211 HD
ENDBRANCH  12  35
BRANCH  13  37
ATOM     37  O   UNL     1      30.428  33.628   9.399  1.00  0.00    -0.387 OA
ATOM     38  H   UNL     1      30.775  34.288  10.047  1.00  0.00     0.211 HD
ENDBRANCH  13  37
BRANCH  14  39
ATOM     39  O   UNL     1      28.191  34.495  10.556  1.00  0.00    -0.387 OA
ATOM     40  H   UNL     1      27.751  33.938  11.244  1.00  0.00     0.211 HD
ENDBRANCH  14  39
ENDBRANCH   8   9
ENDBRANCH   7   8
ENDBRANCH   1   7
BRANCH   1  41
ATOM     41  C   UNL     1      23.420  35.607  10.018  1.00  0.00     0.364 C 
ATOM     42  O   UNL     1      23.627  35.382  11.214  1.00  0.00    -0.246 OA
BRANCH  41  43
ATOM     43  O   UNL     1      22.503  34.866   9.314  1.00  0.00    -0.477 OA
ATOM     44  H   UNL     1      22.793  34.237   8.555  1.00  0.00     0.296 HD
ENDBRANCH  41  43
ENDBRANCH   1  41
BRANCH   3  45
ATOM     45  O   UNL     1      24.302  38.936   6.805  1.00  0.00    -0.391 OA
ATOM     46  H   UNL     1      23.545  38.944   6.201  1.00  0.00     0.211 HD
ENDBRANCH   3  45
BRANCH   5  47
ATOM     47  C   UNL     1      26.152  39.127  11.207  1.00  0.00     0.176 C 
BRANCH  47  48
ATOM     48  O   UNL     1      27.296  38.976  10.468  1.00  0.00    -0.388 OA
ATOM     49  H   UNL     1      27.986  39.662  10.716  1.00  0.00     0.211 HD
ENDBRANCH  47  48
BRANCH  47  50
ATOM     50  C   UNL     1      26.162  38.285  12.447  1.00  0.00     0.165 C 
BRANCH  50  51
ATOM     51  O   UNL     1      24.949  38.450  13.137  1.00  0.00    -0.388 OA
ATOM     52  H   UNL     1      24.900  37.837  13.904  1.00  0.00     0.211 HD
ENDBRANCH  50  51
BRANCH  50  53
ATOM     53  C   UNL     1      27.229  38.879  13.375  1.00  0.00     0.154 C 
BRANCH  53  54
ATOM     54  N   UNL     1      27.546  37.897  14.367  1.00  0.00    -0.319 N 
ATOM     55  C   UNL     1      26.957  37.950  15.647  1.00  0.00     0.407 C 
ATOM     56  H   UNL     1      28.222  37.128  14.140  1.00  0.00     0.167 HD
ATOM     57  O   UNL     1      26.149  38.863  15.958  1.00  0.00    -0.225 OA
BRANCH  55  58
ATOM     58  O   UNL     1      27.234  37.008  16.618  1.00  0.00    -0.443 OA
BRANCH  58  59
ATOM     59  C   UNL     1      27.397  37.336  17.989  1.00  0.00     0.294 C 
BRANCH  59  60
ATOM     60  C   UNL     1      28.592  36.604  18.480  1.00  0.00     0.120 A 
ATOM     61  C   UNL     1      29.359  35.664  17.806  1.00  0.00     0.139 A 
ATOM     62  N   UNL     1      29.162  36.725  19.689  1.00  0.00    -0.132 NA
ATOM     63  N   UNL     1      30.352  35.250  18.610  1.00  0.00    -0.240 N 
ATOM     64  N   UNL     1      30.204  35.914  19.746  1.00  0.00    -0.066 NA
BRANCH  63  65
ATOM     65  C   UNL     1      31.388  34.266  18.290  1.00  0.00     0.170 C 
ATOM     66  C   UNL     1      32.176  34.781  17.167  1.00  0.00    -0.011 A 
ATOM     67  C   UNL     1      30.780  33.031  17.763  1.00  0.00    -0.011 A 
ATOM     68  C   UNL     1      32.979  35.908  17.035  1.00  0.00     0.007 A 
ATOM     69  C   UNL     1      32.065  33.962  16.076  1.00  0.00    -0.012 A 
ATOM     70  C   UNL     1      31.183  32.862  16.460  1.00  0.00    -0.012 A 
ATOM     71  C   UNL     1      29.938  32.087  18.321  1.00  0.00     0.007 A 
ATOM     72  C   UNL     1      33.628  36.176  15.851  1.00  0.00     0.000 A 
ATOM     73  C   UNL     1      32.720  34.234  14.883  1.00  0.00     0.009 A 
ATOM     74  C   UNL     1      30.763  31.780  15.720  1.00  0.00     0.009 A 
ATOM     75  C   UNL     1      29.507  30.998  17.600  1.00  0.00     0.000 A 
ATOM     76  C   UNL     1      33.515  35.346  14.745  1.00  0.00     0.001 A 
ATOM     77  C   UNL     1      29.921  30.844  16.293  1.00  0.00     0.001 A 
ENDBRANCH  63  65
ENDBRANCH  59  60
ENDBRANCH  58  59
ENDBRANCH  55  58
ENDBRANCH  53  54
ENDBRANCH  50  53
ENDBRANCH  47  50
ENDBRANCH   5  47
BRANCH   4  78
ATOM     78  N   UNL     1      25.036  40.741   9.130  1.00  0.00    -0.348 N 
ATOM     79  C   UNL     1      26.034  41.595   8.595  1.00  0.00     0.217 C 
ATOM     80  H   UNL     1      24.226  41.129   9.633  1.00  0.00     0.163 HD
ATOM     81  C   UNL     1      25.937  43.082   8.743  1.00  0.00     0.114 C 
ATOM     82  O   UNL     1      27.005  41.064   7.989  1.00  0.00    -0.275 OA
ENDBRANCH   4  78
TORSDOF 30
BEGIN_RES LYS A 131
REMARK  4 active torsions:
REMARK  status: ('A' for Active; 'I' for Inactive)
REMARK    1  A    between atoms: CA   and  CB  
REMARK    2  A    between atoms: CB   and  CG  
REMARK    3  A    between atoms: CG   and  CD  
REMARK    4  A    between atoms: CD   and  CE  
ROOT
ATOM      1  CA  LYS A 131      29.867  25.555  16.977  1.00 20.52     0.186 C 
ENDROOT
BRANCH   1   2
ATOM      2  CB  LYS A 131      28.345  25.722  17.026  1.00 20.94     0.034 C 
BRANCH   2   3
ATOM      3  CG  LYS A 131      27.602  24.400  16.913  1.00 22.96     0.005 C 
BRANCH   3   4
ATOM      4  CD  LYS A 131      26.149  24.533  17.279  1.00 24.33     0.041 C 
BRANCH   4   5
ATOM      5  CE  LYS A 131      25.993  25.600  18.358  1.00 26.91     0.338 C 
ATOM      6  NZ  LYS A 131      24.899  26.536  18.007  1.00 27.40     0.618 N 
ENDBRANCH   4   5
ENDBRANCH   3   4
ENDBRANCH   2   3
ENDBRANCH   1   2
END_RES LYS A 131
BEGIN_RES LYS A 135
REMARK  4 active torsions:
REMARK  status: ('A' for Active; 'I' for Inactive)
REMARK    5  A    between atoms: CA   and  CB  
REMARK    6  A    between atoms: CB   and  CG  
REMARK    7  A    between atoms: CG   and  CD  
REMARK    8  A    between atoms: CD   and  CE  
ROOT
ATOM      7  CA  LYS A 135      33.193  34.663   9.290  1.00 25.02     0.186 C 
ENDROOT
BRANCH   7   8
ATOM      8  CB  LYS A 135      32.060  35.360  10.034  1.00 26.63     0.034 C 
BRANCH   8   9
ATOM      9  CG  LYS A 135      32.487  35.978  11.340  1.00 29.45     0.005 C 
BRANCH   9  10
ATOM     10  CD  LYS A 135      31.905  37.375  11.489  1.00 32.00     0.041 C 
BRANCH  10  11
ATOM     11  CE  LYS A 135      31.132  37.495  12.788  1.00 34.25     0.338 C 
ATOM     12  NZ  LYS A 135      30.308  36.279  13.036  1.00 35.99     0.618 N 
ENDBRANCH  10  11
ENDBRANCH   9  10
ENDBRANCH   8   9
ENDBRANCH   7   8
END_RES LYS A 135
