REMARK VINA RESULT:    -5.407      2.150      3.432
REMARK INTER + INTRA:         -23.761
REMARK INTER:                 -13.620
REMARK INTRA:                 -10.141
REMARK UNBOUND:                -9.504
REMARK SMILES CC(=O)N[C@@H]1[C@@H](O)C[C@](OC[C@H]2O[C@@H](O[C@H]3[C@H](O)[C@@H](O)[C@H](OCCN=[N+]=[N-])O[C@@H]3CO)[C@H](O)[C@@H](O)[C@H]2O)(C(=O)O)O[C@H]1C(O)[C@H](O)CNC(=O)OCc1cn(COCc2ccccc2)nn1
REMARK SMILES IDX 43 1 42 2 9 3 8 4 41 5 6 6 5 7 10 8 11 9 12 10 14 11 13 12
REMARK SMILES IDX 32 13 34 14 36 15 15 16 16 17 29 18 28 19 21 20 17 21 19 22
REMARK SMILES IDX 30 23 31 24 22 26 23 27 24 28 25 29 26 30 27 31 18 32 20 34
REMARK SMILES IDX 33 36 35 38 37 40 38 42 39 43 40 44 7 46 4 48 2 49 1 51 3 52
REMARK SMILES IDX 44 53 45 55 46 56 47 58 48 59 49 60 50 62 51 63 52 64 53 65
REMARK SMILES IDX 54 66 66 67 55 68 65 69 56 70 57 71 58 72 59 73 60 74 64 75
REMARK SMILES IDX 61 76 63 77 62 78
REMARK H PARENT 31 25 18 33 20 35 33 37 35 39 37 41 40 45 7 47 4 50 44 54
REMARK H PARENT 46 57 48 61
REMARK Flexibility Score: inf
ROOT
ATOM      1  C   UNL     1      24.036  39.675  10.376  1.00  0.00     0.176 C 
ENDROOT
BRANCH   1   2
ATOM      2  C   UNL     1      23.525  38.249  10.073  1.00  0.00     0.178 C 
ATOM      3  C   UNL     1      24.444  36.116   9.962  1.00  0.00     0.272 C 
ATOM      4  C   UNL     1      23.603  35.831   8.722  1.00  0.00     0.113 C 
ATOM      5  O   UNL     1      24.670  37.458   9.956  1.00  0.00    -0.332 OA
ATOM      6  C   UNL     1      23.455  37.095   7.908  1.00  0.00     0.145 C 
ATOM      7  C   UNL     1      22.765  38.182   8.787  1.00  0.00     0.142 C 
BRANCH   3   8
ATOM      8  O   UNL     1      25.654  35.399   9.892  1.00  0.00    -0.338 OA
BRANCH   8   9
ATOM      9  C   UNL     1      25.990  34.869   8.706  1.00  0.00     0.199 C 
BRANCH   9  10
ATOM     10  C   UNL     1      27.322  35.410   8.239  1.00  0.00     0.179 C 
ATOM     11  C   UNL     1      28.628  37.234   7.919  1.00  0.00     0.282 C 
ATOM     12  O   UNL     1      27.375  36.808   8.416  1.00  0.00    -0.341 OA
ATOM     13  C   UNL     1      29.738  36.866   8.899  1.00  0.00     0.202 C 
ATOM     14  C   UNL     1      29.130  35.804   9.827  1.00  0.00     0.179 C 
ATOM     15  C   UNL     1      28.492  34.785   8.905  1.00  0.00     0.177 C 
BRANCH  11  16
ATOM     16  O   UNL     1      28.595  38.597   7.816  1.00  0.00    -0.341 OA
BRANCH  16  17
ATOM     17  C   UNL     1      28.655  39.066   6.511  1.00  0.00     0.184 C 
ATOM     18  C   UNL     1      29.095  40.483   6.408  1.00  0.00     0.178 C 
ATOM     19  O   UNL     1      28.102  41.309   6.840  1.00  0.00    -0.341 OA
ATOM     20  C   UNL     1      26.983  41.346   6.042  1.00  0.00     0.281 C 
ATOM     21  C   UNL     1      27.337  38.843   5.853  1.00  0.00     0.180 C 
ATOM     22  C   UNL     1      26.555  40.048   5.480  1.00  0.00     0.202 C 
BRANCH  18  23
ATOM     23  C   UNL     1      29.572  40.769   5.003  1.00  0.00     0.191 C 
BRANCH  23  24
ATOM     24  O   UNL     1      30.233  42.001   4.933  1.00  0.00    -0.394 OA
ATOM     25  H   UNL     1      30.062  42.514   5.762  1.00  0.00     0.210 HD
ENDBRANCH  23  24
ENDBRANCH  18  23
BRANCH  20  26
ATOM     26  O   UNL     1      27.263  42.226   4.990  1.00  0.00    -0.350 OA
BRANCH  26  27
ATOM     27  C   UNL     1      26.609  43.429   5.072  1.00  0.00     0.169 C 
BRANCH  27  28
ATOM     28  C   UNL     1      25.311  43.275   4.299  1.00  0.00     0.119 C 
BRANCH  28  29
ATOM     29  N   UNL     1      24.157  43.625   5.095  1.00  0.00    -0.092 NA
ATOM     30  N   UNL     1      23.858  42.947   6.095  1.00  0.00     0.001 N 
ATOM     31  N   UNL     1      23.305  41.998   6.684  1.00  0.00    -0.003 NA
ENDBRANCH  28  29
ENDBRANCH  27  28
ENDBRANCH  26  27
ENDBRANCH  20  26
BRANCH  21  32
ATOM     32  O   UNL     1      27.519  38.094   4.658  1.00  0.00    -0.387 OA
ATOM     33  H   UNL     1      26.675  37.836   4.257  1.00  0.00     0.211 HD
ENDBRANCH  21  32
BRANCH  22  34
ATOM     34  O   UNL     1      25.218  39.843   5.915  1.00  0.00    -0.385 OA
ATOM     35  H   UNL     1      25.145  40.314   6.786  1.00  0.00     0.211 HD
ENDBRANCH  22  34
ENDBRANCH  16  17
ENDBRANCH  11  16
BRANCH  13  36
ATOM     36  O   UNL     1      30.808  36.238   8.262  1.00  0.00    -0.385 OA
ATOM     37  H   UNL     1      30.672  36.343   7.288  1.00  0.00     0.211 HD
ENDBRANCH  13  36
BRANCH  14  38
ATOM     38  O   UNL     1      28.124  36.461  10.522  1.00  0.00    -0.387 OA
ATOM     39  H   UNL     1      27.617  35.874  11.137  1.00  0.00     0.211 HD
ENDBRANCH  14  38
BRANCH  15  40
ATOM     40  O   UNL     1      28.207  33.595   9.555  1.00  0.00    -0.387 OA
ATOM     41  H   UNL     1      27.939  32.865   8.940  1.00  0.00     0.211 HD
ENDBRANCH  15  40
ENDBRANCH   9  10
ENDBRANCH   8   9
ENDBRANCH   3   8
BRANCH   3  42
ATOM     42  C   UNL     1      23.803  35.677  11.201  1.00  0.00     0.364 C 
ATOM     43  O   UNL     1      22.685  35.111  11.326  1.00  0.00    -0.246 OA
BRANCH  42  44
ATOM     44  O   UNL     1      24.477  35.889  12.428  1.00  0.00    -0.477 OA
ATOM     45  H   UNL     1      23.971  35.844  13.312  1.00  0.00     0.296 HD
ENDBRANCH  42  44
ENDBRANCH   3  42
BRANCH   6  46
ATOM     46  O   UNL     1      24.582  37.647   7.409  1.00  0.00    -0.391 OA
ATOM     47  H   UNL     1      25.420  37.206   7.751  1.00  0.00     0.211 HD
ENDBRANCH   6  46
BRANCH   7  48
ATOM     48  N   UNL     1      21.420  37.686   8.953  1.00  0.00    -0.348 N 
ATOM     49  C   UNL     1      20.344  38.593   8.853  1.00  0.00     0.217 C 
ATOM     50  H   UNL     1      21.245  36.697   9.143  1.00  0.00     0.163 HD
ATOM     51  C   UNL     1      18.947  38.104   9.006  1.00  0.00     0.114 C 
ATOM     52  O   UNL     1      20.549  39.828   8.628  1.00  0.00    -0.275 OA
ENDBRANCH   7  48
ENDBRANCH   1   2
BRANCH   1  53
ATOM     53  O   UNL     1      23.354  40.531   9.429  1.00  0.00    -0.388 OA
ATOM     54  H   UNL     1      23.028  41.311   9.969  1.00  0.00     0.211 HD
ENDBRANCH   1  53
BRANCH   1  55
ATOM     55  C   UNL     1      25.489  39.887  10.136  1.00  0.00     0.165 C 
BRANCH  55  56
ATOM     56  O   UNL     1      25.996  39.496   8.930  1.00  0.00    -0.388 OA
ATOM     57  H   UNL     1      25.425  39.698   8.156  1.00  0.00     0.211 HD
ENDBRANCH  55  56
BRANCH  55  58
ATOM     58  C   UNL     1      26.455  39.703  11.242  1.00  0.00     0.154 C 
BRANCH  58  59
ATOM     59  N   UNL     1      26.396  38.481  11.993  1.00  0.00    -0.319 N 
ATOM     60  C   UNL     1      26.506  38.396  13.406  1.00  0.00     0.407 C 
ATOM     61  H   UNL     1      26.251  37.573  11.499  1.00  0.00     0.167 HD
ATOM     62  O   UNL     1      26.653  39.422  14.080  1.00  0.00    -0.225 OA
BRANCH  60  63
ATOM     63  O   UNL     1      26.456  37.194  14.120  1.00  0.00    -0.443 OA
BRANCH  63  64
ATOM     64  C   UNL     1      27.557  36.285  14.057  1.00  0.00     0.294 C 
BRANCH  64  65
ATOM     65  C   UNL     1      27.303  35.035  14.808  1.00  0.00     0.120 A 
ATOM     66  C   UNL     1      28.159  33.954  14.806  1.00  0.00     0.141 A 
ATOM     67  N   UNL     1      26.268  34.693  15.585  1.00  0.00    -0.132 NA
ATOM     68  N   UNL     1      27.610  32.990  15.585  1.00  0.00    -0.226 N 
ATOM     69  N   UNL     1      26.464  33.471  16.041  1.00  0.00    -0.065 NA
BRANCH  68  70
ATOM     70  C   UNL     1      28.137  31.679  15.893  1.00  0.00     0.307 C 
BRANCH  70  71
ATOM     71  O   UNL     1      28.949  31.694  16.994  1.00  0.00    -0.355 OA
BRANCH  71  72
ATOM     72  C   UNL     1      30.242  31.349  16.634  1.00  0.00     0.198 C 
BRANCH  72  73
ATOM     73  C   UNL     1      31.039  32.609  16.424  1.00  0.00    -0.022 A 
ATOM     74  C   UNL     1      31.154  33.484  17.484  1.00  0.00     0.006 A 
ATOM     75  C   UNL     1      31.628  32.875  15.214  1.00  0.00     0.006 A 
ATOM     76  C   UNL     1      31.875  34.649  17.332  1.00  0.00     0.000 A 
ATOM     77  C   UNL     1      32.336  34.034  15.086  1.00  0.00     0.000 A 
ATOM     78  C   UNL     1      32.477  34.939  16.126  1.00  0.00     0.000 A 
ENDBRANCH  72  73
ENDBRANCH  71  72
ENDBRANCH  70  71
ENDBRANCH  68  70
ENDBRANCH  64  65
ENDBRANCH  63  64
ENDBRANCH  60  63
ENDBRANCH  58  59
ENDBRANCH  55  58
ENDBRANCH   1  55
TORSDOF 33
BEGIN_RES LYS A 131
REMARK  4 active torsions:
REMARK  status: ('A' for Active; 'I' for Inactive)
REMARK    1  A    between atoms: CA   and  CB  
REMARK    2  A    between atoms: CB   and  CG  
REMARK    3  A    between atoms: CG   and  CD  
REMARK    4  A    between atoms: CD   and  CE  
ROOT
ATOM      1  CA  LYS A 131      29.867  25.555  16.977  1.00 20.52     0.186 C 
ENDROOT
BRANCH   1   2
ATOM      2  CB  LYS A 131      28.345  25.722  17.026  1.00 20.94     0.034 C 
BRANCH   2   3
ATOM      3  CG  LYS A 131      27.620  24.432  17.379  1.00 22.96     0.005 C 
BRANCH   3   4
ATOM      4  CD  LYS A 131      26.599  24.635  18.464  1.00 24.33     0.041 C 
BRANCH   4   5
ATOM      5  CE  LYS A 131      25.858  23.326  18.716  1.00 26.91     0.338 C 
ATOM      6  NZ  LYS A 131      25.542  22.653  17.433  1.00 27.40     0.618 N 
ENDBRANCH   4   5
ENDBRANCH   3   4
ENDBRANCH   2   3
ENDBRANCH   1   2
END_RES LYS A 131
BEGIN_RES LYS A 135
REMARK  4 active torsions:
REMARK  status: ('A' for Active; 'I' for Inactive)
REMARK    5  A    between atoms: CA   and  CB  
REMARK    6  A    between atoms: CB   and  CG  
REMARK    7  A    between atoms: CG   and  CD  
REMARK    8  A    between atoms: CD   and  CE  
ROOT
ATOM      7  CA  LYS A 135      33.193  34.663   9.290  1.00 25.02     0.186 C 
ENDROOT
BRANCH   7   8
ATOM      8  CB  LYS A 135      32.060  35.360  10.034  1.00 26.63     0.034 C 
BRANCH   8   9
ATOM      9  CG  LYS A 135      32.355  35.600  11.492  1.00 29.45     0.005 C 
BRANCH   9  10
ATOM     10  CD  LYS A 135      32.107  37.055  11.858  1.00 32.00     0.041 C 
BRANCH  10  11
ATOM     11  CE  LYS A 135      30.963  37.169  12.847  1.00 34.25     0.338 C 
ATOM     12  NZ  LYS A 135      30.132  38.373  12.571  1.00 35.99     0.618 N 
ENDBRANCH  10  11
ENDBRANCH   9  10
ENDBRANCH   8   9
ENDBRANCH   7   8
END_RES LYS A 135
