REMARK VINA RESULT:    -3.770      3.749      9.153
REMARK INTER + INTRA:         -22.239
REMARK INTER:                 -11.822
REMARK INTRA:                 -10.417
REMARK UNBOUND:               -11.857
REMARK SMILES CC[N+](C)(CC)CCCn1cc(COC(=O)NC[C@@H](O)C(O)[C@@H]2O[C@@](OC[C@H]3O[C@@H](O[C@H]4[C@H](O)[C@@H](O)[C@H](OCCN=[N+]=[N-])O[C@@H]4CO)[C@H](O)[C@@H](O)[C@H]3O)(C(=O)O)C[C@H](O)[C@H]2NC(C)=O)nn1
REMARK SMILES IDX 21 1 23 2 25 3 57 4 24 5 58 6 60 7 26 8 27 9 28 10 30 11
REMARK SMILES IDX 29 12 48 13 50 14 52 15 31 16 32 17 45 18 44 19 37 20 33 21
REMARK SMILES IDX 35 22 46 23 47 24 38 26 39 27 40 28 41 29 42 30 43 31 34 32
REMARK SMILES IDX 36 34 49 36 51 38 53 40 54 42 55 43 56 44 59 46 61 48 62 49
REMARK SMILES IDX 63 51 64 52 22 53 19 55 20 56 18 58 17 59 15 60 16 62 14 63
REMARK SMILES IDX 13 64 12 65 11 66 65 67 10 68 66 69 9 70 8 71 7 72 3 73 4 74
REMARK SMILES IDX 2 75 1 76 5 77 6 78
REMARK H PARENT 47 25 34 33 36 35 49 37 51 39 53 41 56 45 59 47 61 50 22 54
REMARK H PARENT 20 57 17 61
REMARK Flexibility Score: inf
ROOT
ATOM      1  C   UNL     1      32.340  36.765  13.087  1.00  0.00     0.176 C 
ENDROOT
BRANCH   1   2
ATOM      2  C   UNL     1      30.921  36.878  13.637  1.00  0.00     0.178 C 
ATOM      3  C   UNL     1      28.688  36.644  12.911  1.00  0.00     0.272 C 
ATOM      4  C   UNL     1      28.421  37.710  13.921  1.00  0.00     0.113 C 
ATOM      5  O   UNL     1      30.062  36.782  12.565  1.00  0.00    -0.332 OA
ATOM      6  C   UNL     1      29.471  38.790  13.915  1.00  0.00     0.145 C 
ATOM      7  C   UNL     1      30.785  38.168  14.380  1.00  0.00     0.142 C 
BRANCH   3   8
ATOM      8  O   UNL     1      28.048  36.838  11.705  1.00  0.00    -0.338 OA
BRANCH   8   9
ATOM      9  C   UNL     1      26.715  36.697  11.612  1.00  0.00     0.199 C 
BRANCH   9  10
ATOM     10  C   UNL     1      26.334  35.761  10.436  1.00  0.00     0.179 C 
ATOM     11  C   UNL     1      24.069  35.295  10.899  1.00  0.00     0.282 C 
ATOM     12  O   UNL     1      25.384  34.871  10.751  1.00  0.00    -0.341 OA
ATOM     13  C   UNL     1      23.699  36.430  10.023  1.00  0.00     0.202 C 
ATOM     14  C   UNL     1      24.577  36.265   8.763  1.00  0.00     0.179 C 
ATOM     15  C   UNL     1      25.969  36.628   9.230  1.00  0.00     0.177 C 
BRANCH  11  16
ATOM     16  O   UNL     1      23.750  35.430  12.257  1.00  0.00    -0.341 OA
BRANCH  16  17
ATOM     17  C   UNL     1      23.185  34.305  12.782  1.00  0.00     0.184 C 
ATOM     18  C   UNL     1      21.786  34.316  13.221  1.00  0.00     0.178 C 
ATOM     19  O   UNL     1      21.362  33.019  13.444  1.00  0.00    -0.341 OA
ATOM     20  C   UNL     1      22.271  32.047  13.656  1.00  0.00     0.281 C 
ATOM     21  C   UNL     1      23.995  33.820  14.007  1.00  0.00     0.180 C 
ATOM     22  C   UNL     1      23.545  32.429  14.367  1.00  0.00     0.202 C 
BRANCH  18  23
ATOM     23  C   UNL     1      20.789  34.968  12.283  1.00  0.00     0.191 C 
BRANCH  23  24
ATOM     24  O   UNL     1      20.831  34.458  10.992  1.00  0.00    -0.394 OA
ATOM     25  H   UNL     1      21.804  34.481  10.716  1.00  0.00     0.210 HD
ENDBRANCH  23  24
ENDBRANCH  18  23
BRANCH  20  26
ATOM     26  O   UNL     1      22.506  31.317  12.504  1.00  0.00    -0.350 OA
BRANCH  26  27
ATOM     27  C   UNL     1      22.105  30.022  12.526  1.00  0.00     0.169 C 
BRANCH  27  28
ATOM     28  C   UNL     1      23.221  29.040  12.818  1.00  0.00     0.119 C 
BRANCH  28  29
ATOM     29  N   UNL     1      22.914  28.310  14.037  1.00  0.00    -0.092 NA
ATOM     30  N   UNL     1      22.637  28.864  15.098  1.00  0.00     0.001 N 
ATOM     31  N   UNL     1      22.334  29.399  16.166  1.00  0.00    -0.003 NA
ENDBRANCH  28  29
ENDBRANCH  27  28
ENDBRANCH  26  27
ENDBRANCH  20  26
BRANCH  21  32
ATOM     32  O   UNL     1      25.325  33.943  13.676  1.00  0.00    -0.387 OA
ATOM     33  H   UNL     1      25.935  34.065  14.420  1.00  0.00     0.211 HD
ENDBRANCH  21  32
BRANCH  22  34
ATOM     34  O   UNL     1      23.445  32.335  15.746  1.00  0.00    -0.385 OA
ATOM     35  H   UNL     1      23.733  33.154  16.227  1.00  0.00     0.211 HD
ENDBRANCH  22  34
ENDBRANCH  16  17
ENDBRANCH  11  16
BRANCH  13  36
ATOM     36  O   UNL     1      22.372  36.384   9.566  1.00  0.00    -0.385 OA
ATOM     37  H   UNL     1      21.945  37.225   9.839  1.00  0.00     0.211 HD
ENDBRANCH  13  36
BRANCH  14  38
ATOM     38  O   UNL     1      24.145  37.152   7.777  1.00  0.00    -0.387 OA
ATOM     39  H   UNL     1      23.721  36.613   7.078  1.00  0.00     0.211 HD
ENDBRANCH  14  38
BRANCH  15  40
ATOM     40  O   UNL     1      25.890  37.942   9.688  1.00  0.00    -0.387 OA
ATOM     41  H   UNL     1      26.234  38.616   9.083  1.00  0.00     0.211 HD
ENDBRANCH  15  40
ENDBRANCH   9  10
ENDBRANCH   8   9
ENDBRANCH   3   8
BRANCH   3  42
ATOM     42  C   UNL     1      28.446  35.271  13.385  1.00  0.00     0.364 C 
ATOM     43  O   UNL     1      28.901  34.274  12.781  1.00  0.00    -0.246 OA
BRANCH  42  44
ATOM     44  O   UNL     1      27.705  35.035  14.517  1.00  0.00    -0.477 OA
ATOM     45  H   UNL     1      27.947  35.408  15.434  1.00  0.00     0.296 HD
ENDBRANCH  42  44
ENDBRANCH   3  42
BRANCH   6  46
ATOM     46  O   UNL     1      29.652  39.374  12.684  1.00  0.00    -0.391 OA
ATOM     47  H   UNL     1      28.840  39.278  12.099  1.00  0.00     0.211 HD
ENDBRANCH   6  46
BRANCH   7  48
ATOM     48  N   UNL     1      30.569  37.870  15.806  1.00  0.00    -0.348 N 
ATOM     49  C   UNL     1      31.625  37.972  16.754  1.00  0.00     0.217 C 
ATOM     50  H   UNL     1      29.652  37.568  16.194  1.00  0.00     0.163 HD
ATOM     51  C   UNL     1      31.452  37.685  18.199  1.00  0.00     0.114 C 
ATOM     52  O   UNL     1      32.747  38.323  16.348  1.00  0.00    -0.275 OA
ENDBRANCH   7  48
ENDBRANCH   1   2
BRANCH   1  53
ATOM     53  O   UNL     1      32.307  37.100  11.690  1.00  0.00    -0.388 OA
ATOM     54  H   UNL     1      32.134  36.250  11.207  1.00  0.00     0.211 HD
ENDBRANCH   1  53
BRANCH   1  55
ATOM     55  C   UNL     1      32.836  35.358  13.168  1.00  0.00     0.165 C 
BRANCH  55  56
ATOM     56  O   UNL     1      31.750  34.599  12.563  1.00  0.00    -0.388 OA
ATOM     57  H   UNL     1      32.035  34.392  11.620  1.00  0.00     0.211 HD
ENDBRANCH  55  56
BRANCH  55  58
ATOM     58  C   UNL     1      33.077  34.785  14.515  1.00  0.00     0.154 C 
BRANCH  58  59
ATOM     59  N   UNL     1      32.256  33.813  15.081  1.00  0.00    -0.319 N 
ATOM     60  C   UNL     1      31.827  33.695  16.423  1.00  0.00     0.407 C 
ATOM     61  H   UNL     1      31.885  33.022  14.410  1.00  0.00     0.167 HD
ATOM     62  O   UNL     1      32.143  34.491  17.321  1.00  0.00    -0.225 OA
BRANCH  60  63
ATOM     63  O   UNL     1      30.995  32.614  16.803  1.00  0.00    -0.443 OA
BRANCH  63  64
ATOM     64  C   UNL     1      30.733  31.616  15.798  1.00  0.00     0.294 C 
BRANCH  64  65
ATOM     65  C   UNL     1      29.224  31.582  15.743  1.00  0.00     0.120 A 
ATOM     66  C   UNL     1      28.426  30.463  15.719  1.00  0.00     0.138 A 
ATOM     67  N   UNL     1      28.368  32.610  15.759  1.00  0.00    -0.132 NA
ATOM     68  N   UNL     1      27.111  30.856  15.724  1.00  0.00    -0.252 N 
ATOM     69  N   UNL     1      27.124  32.176  15.747  1.00  0.00    -0.067 NA
BRANCH  68  70
ATOM     70  C   UNL     1      25.962  29.970  15.749  1.00  0.00     0.152 C 
BRANCH  70  71
ATOM     71  C   UNL     1      25.919  29.125  16.949  1.00  0.00     0.085 C 
BRANCH  71  72
ATOM     72  C   UNL     1      25.665  29.715  18.274  1.00  0.00     0.265 C 
BRANCH  72  73
ATOM     73  N   UNL     1      26.742  29.820  19.202  1.00  0.00    -0.326 N 
ATOM     74  C   UNL     1      27.144  31.193  19.346  1.00  0.00     0.334 C 
BRANCH  73  75
ATOM     75  C   UNL     1      27.873  28.975  18.942  1.00  0.00     0.260 C 
ATOM     76  C   UNL     1      28.324  28.200  20.158  1.00  0.00     0.071 C 
ENDBRANCH  73  75
BRANCH  73  77
ATOM     77  C   UNL     1      26.185  29.441  20.511  1.00  0.00     0.260 C 
ATOM     78  C   UNL     1      24.698  29.409  20.549  1.00  0.00     0.071 C 
ENDBRANCH  73  77
ENDBRANCH  72  73
ENDBRANCH  71  72
ENDBRANCH  70  71
ENDBRANCH  68  70
ENDBRANCH  64  65
ENDBRANCH  63  64
ENDBRANCH  60  63
ENDBRANCH  58  59
ENDBRANCH  55  58
ENDBRANCH   1  55
TORSDOF 35
BEGIN_RES LYS A 131
REMARK  4 active torsions:
REMARK  status: ('A' for Active; 'I' for Inactive)
REMARK    1  A    between atoms: CA   and  CB  
REMARK    2  A    between atoms: CB   and  CG  
REMARK    3  A    between atoms: CG   and  CD  
REMARK    4  A    between atoms: CD   and  CE  
ROOT
ATOM      1  CA  LYS A 131      29.867  25.555  16.977  1.00 20.52     0.186 C 
ENDROOT
BRANCH   1   2
ATOM      2  CB  LYS A 131      28.345  25.722  17.026  1.00 20.94     0.034 C 
BRANCH   2   3
ATOM      3  CG  LYS A 131      27.601  24.402  16.894  1.00 22.96     0.005 C 
BRANCH   3   4
ATOM      4  CD  LYS A 131      26.298  24.409  17.643  1.00 24.33     0.041 C 
BRANCH   4   5
ATOM      5  CE  LYS A 131      26.101  25.767  18.310  1.00 26.91     0.338 C 
ATOM      6  NZ  LYS A 131      25.727  25.597  19.734  1.00 27.40     0.618 N 
ENDBRANCH   4   5
ENDBRANCH   3   4
ENDBRANCH   2   3
ENDBRANCH   1   2
END_RES LYS A 131
BEGIN_RES LYS A 135
REMARK  4 active torsions:
REMARK  status: ('A' for Active; 'I' for Inactive)
REMARK    5  A    between atoms: CA   and  CB  
REMARK    6  A    between atoms: CB   and  CG  
REMARK    7  A    between atoms: CG   and  CD  
REMARK    8  A    between atoms: CD   and  CE  
ROOT
ATOM      7  CA  LYS A 135      33.193  34.663   9.290  1.00 25.02     0.186 C 
ENDROOT
BRANCH   7   8
ATOM      8  CB  LYS A 135      32.060  35.360  10.034  1.00 26.63     0.034 C 
BRANCH   8   9
ATOM      9  CG  LYS A 135      30.739  35.301   9.311  1.00 29.45     0.005 C 
BRANCH   9  10
ATOM     10  CD  LYS A 135      30.326  36.686   8.836  1.00 32.00     0.041 C 
BRANCH  10  11
ATOM     11  CE  LYS A 135      29.201  36.587   7.823  1.00 34.25     0.338 C 
ATOM     12  NZ  LYS A 135      29.145  35.229   7.214  1.00 35.99     0.618 N 
ENDBRANCH  10  11
ENDBRANCH   9  10
ENDBRANCH   8   9
ENDBRANCH   7   8
END_RES LYS A 135
