REMARK VINA RESULT:    -4.596      3.769      6.711
REMARK INTER + INTRA:         -22.470
REMARK INTER:                 -11.395
REMARK INTRA:                 -11.075
REMARK UNBOUND:               -10.485
REMARK SMILES CC(=O)N[C@@H]1[C@@H](O)C[C@](OC[C@H]2O[C@@H](O[C@H]3[C@H](O)[C@@H](O)[C@H](OCCN=[N+]=[N-])O[C@@H]3CO)[C@H](O)[C@@H](O)[C@H]2O)(C(=O)O)O[C@H]1C(O)[C@H](O)CNC(=O)OCc1cn(CC(O)c2ccccc2)nn1
REMARK SMILES IDX 9 1 8 2 6 3 5 4 42 5 41 6 10 7 11 8 12 9 14 10 13 11 32 12
REMARK SMILES IDX 34 13 36 14 15 15 16 16 29 17 28 18 21 19 17 20 19 21 30 22
REMARK SMILES IDX 31 23 22 25 23 26 24 27 25 28 26 29 27 30 18 31 20 33 33 35
REMARK SMILES IDX 35 37 37 39 38 41 39 42 40 43 7 45 43 47 44 48 45 50 46 51
REMARK SMILES IDX 47 53 48 54 49 55 50 57 51 58 52 59 53 60 54 61 66 62 55 63
REMARK SMILES IDX 65 64 56 65 57 66 58 67 59 69 60 70 64 71 61 72 63 73 62 74
REMARK SMILES IDX 4 75 2 76 1 78 3 79
REMARK H PARENT 31 24 18 32 20 34 33 36 35 38 37 40 40 44 7 46 44 49 46 52
REMARK H PARENT 48 56 58 68 4 77
REMARK Flexibility Score: inf
ROOT
ATOM      1  C   UNL     1      17.637  33.005  10.852  1.00  0.00     0.272 C 
ATOM      2  C   UNL     1      17.015  33.714  11.995  1.00  0.00     0.113 C 
ATOM      3  C   UNL     1      17.927  34.187  13.071  1.00  0.00     0.145 C 
ATOM      4  C   UNL     1      19.257  33.520  12.916  1.00  0.00     0.142 C 
ATOM      5  C   UNL     1      19.002  32.081  12.506  1.00  0.00     0.178 C 
ATOM      6  O   UNL     1      18.406  31.923  11.293  1.00  0.00    -0.332 OA
ENDROOT
BRANCH   1   7
ATOM      7  O   UNL     1      18.425  33.731  10.009  1.00  0.00    -0.338 OA
BRANCH   7   8
ATOM      8  C   UNL     1      17.966  34.937   9.577  1.00  0.00     0.199 C 
BRANCH   8   9
ATOM      9  C   UNL     1      19.067  35.972   9.563  1.00  0.00     0.179 C 
ATOM     10  C   UNL     1      21.345  36.042   9.249  1.00  0.00     0.282 C 
ATOM     11  O   UNL     1      20.290  35.389   9.828  1.00  0.00    -0.341 OA
ATOM     12  C   UNL     1      21.340  36.045   7.737  1.00  0.00     0.202 C 
ATOM     13  C   UNL     1      19.900  36.096   7.275  1.00  0.00     0.179 C 
ATOM     14  C   UNL     1      19.117  36.831   8.344  1.00  0.00     0.177 C 
BRANCH  10  15
ATOM     15  O   UNL     1      22.566  35.483   9.612  1.00  0.00    -0.341 OA
BRANCH  15  16
ATOM     16  C   UNL     1      23.065  35.887  10.820  1.00  0.00     0.184 C 
ATOM     17  C   UNL     1      23.127  37.409  10.781  1.00  0.00     0.178 C 
ATOM     18  O   UNL     1      24.405  37.850  10.506  1.00  0.00    -0.341 OA
ATOM     19  C   UNL     1      24.863  37.158   9.369  1.00  0.00     0.281 C 
ATOM     20  C   UNL     1      24.455  35.277  10.948  1.00  0.00     0.180 C 
ATOM     21  C   UNL     1      25.372  35.807   9.858  1.00  0.00     0.202 C 
BRANCH  17  22
ATOM     22  C   UNL     1      22.589  38.004  12.071  1.00  0.00     0.191 C 
BRANCH  22  23
ATOM     23  O   UNL     1      23.619  38.329  12.948  1.00  0.00    -0.394 OA
ATOM     24  H   UNL     1      24.122  39.133  12.652  1.00  0.00     0.210 HD
ENDBRANCH  22  23
ENDBRANCH  17  22
BRANCH  19  25
ATOM     25  O   UNL     1      25.849  37.930   8.806  1.00  0.00    -0.350 OA
BRANCH  25  26
ATOM     26  C   UNL     1      27.102  37.782   9.351  1.00  0.00     0.169 C 
BRANCH  26  27
ATOM     27  C   UNL     1      27.653  39.028   9.985  1.00  0.00     0.119 C 
BRANCH  27  28
ATOM     28  N   UNL     1      28.157  38.723  11.329  1.00  0.00    -0.092 NA
ATOM     29  N   UNL     1      27.291  38.333  12.128  1.00  0.00     0.001 N 
ATOM     30  N   UNL     1      26.658  37.784  13.029  1.00  0.00    -0.003 NA
ENDBRANCH  27  28
ENDBRANCH  26  27
ENDBRANCH  25  26
ENDBRANCH  19  25
BRANCH  20  31
ATOM     31  O   UNL     1      24.984  35.548  12.202  1.00  0.00    -0.387 OA
ATOM     32  H   UNL     1      25.967  35.706  12.124  1.00  0.00     0.211 HD
ENDBRANCH  20  31
BRANCH  21  33
ATOM     33  O   UNL     1      25.510  34.889   8.834  1.00  0.00    -0.385 OA
ATOM     34  H   UNL     1      24.758  35.022   8.206  1.00  0.00     0.211 HD
ENDBRANCH  21  33
ENDBRANCH  15  16
ENDBRANCH  10  15
BRANCH  12  35
ATOM     35  O   UNL     1      22.006  37.192   7.292  1.00  0.00    -0.385 OA
ATOM     36  H   UNL     1      21.399  37.655   6.653  1.00  0.00     0.211 HD
ENDBRANCH  12  35
BRANCH  13  37
ATOM     37  O   UNL     1      19.480  34.774   7.166  1.00  0.00    -0.387 OA
ATOM     38  H   UNL     1      18.557  34.624   7.436  1.00  0.00     0.211 HD
ENDBRANCH  13  37
BRANCH  14  39
ATOM     39  O   UNL     1      17.890  37.288   7.927  1.00  0.00    -0.387 OA
ATOM     40  H   UNL     1      17.916  38.189   7.513  1.00  0.00     0.211 HD
ENDBRANCH  14  39
ENDBRANCH   8   9
ENDBRANCH   7   8
ENDBRANCH   1   7
BRANCH   1  41
ATOM     41  C   UNL     1      16.486  32.347  10.106  1.00  0.00     0.364 C 
ATOM     42  O   UNL     1      16.656  31.277   9.546  1.00  0.00    -0.246 OA
BRANCH  41  43
ATOM     43  O   UNL     1      15.286  33.034  10.117  1.00  0.00    -0.477 OA
ATOM     44  H   UNL     1      14.558  32.677   9.535  1.00  0.00     0.296 HD
ENDBRANCH  41  43
ENDBRANCH   1  41
BRANCH   3  45
ATOM     45  O   UNL     1      18.004  35.580  13.117  1.00  0.00    -0.391 OA
ATOM     46  H   UNL     1      17.233  35.878  13.676  1.00  0.00     0.211 HD
ENDBRANCH   3  45
BRANCH   5  47
ATOM     47  C   UNL     1      20.320  31.366  12.664  1.00  0.00     0.176 C 
BRANCH  47  48
ATOM     48  O   UNL     1      21.320  32.137  12.052  1.00  0.00    -0.388 OA
ATOM     49  H   UNL     1      21.769  32.648  12.782  1.00  0.00     0.211 HD
ENDBRANCH  47  48
BRANCH  47  50
ATOM     50  C   UNL     1      20.281  29.970  12.139  1.00  0.00     0.165 C 
BRANCH  50  51
ATOM     51  O   UNL     1      19.024  29.429  12.160  1.00  0.00    -0.388 OA
ATOM     52  H   UNL     1      18.304  30.043  11.950  1.00  0.00     0.211 HD
ENDBRANCH  50  51
BRANCH  50  53
ATOM     53  C   UNL     1      21.384  29.077  12.646  1.00  0.00     0.154 C 
BRANCH  53  54
ATOM     54  N   UNL     1      22.208  29.633  13.678  1.00  0.00    -0.319 N 
ATOM     55  C   UNL     1      23.624  29.784  13.593  1.00  0.00     0.407 C 
ATOM     56  H   UNL     1      21.752  29.973  14.584  1.00  0.00     0.167 HD
ATOM     57  O   UNL     1      24.239  29.434  12.571  1.00  0.00    -0.225 OA
BRANCH  55  58
ATOM     58  O   UNL     1      24.348  30.319  14.635  1.00  0.00    -0.443 OA
BRANCH  58  59
ATOM     59  C   UNL     1      23.987  31.529  15.300  1.00  0.00     0.294 C 
BRANCH  59  60
ATOM     60  C   UNL     1      25.071  32.544  15.110  1.00  0.00     0.120 A 
ATOM     61  C   UNL     1      26.396  32.491  15.456  1.00  0.00     0.138 A 
ATOM     62  N   UNL     1      24.879  33.740  14.511  1.00  0.00    -0.132 NA
ATOM     63  N   UNL     1      26.997  33.653  15.063  1.00  0.00    -0.249 N 
ATOM     64  N   UNL     1      26.036  34.354  14.506  1.00  0.00    -0.067 NA
BRANCH  63  65
ATOM     65  C   UNL     1      28.401  33.988  15.243  1.00  0.00     0.182 C 
BRANCH  65  66
ATOM     66  C   UNL     1      29.067  34.177  13.891  1.00  0.00     0.166 C 
BRANCH  66  67
ATOM     67  O   UNL     1      28.401  35.285  13.316  1.00  0.00    -0.386 OA
ATOM     68  H   UNL     1      27.519  34.994  12.953  1.00  0.00     0.211 HD
ENDBRANCH  66  67
BRANCH  66  69
ATOM     69  C   UNL     1      30.509  34.432  13.961  1.00  0.00    -0.018 A 
ATOM     70  C   UNL     1      31.285  34.034  15.006  1.00  0.00     0.006 A 
ATOM     71  C   UNL     1      31.050  35.136  12.876  1.00  0.00     0.006 A 
ATOM     72  C   UNL     1      32.636  34.342  14.979  1.00  0.00     0.000 A 
ATOM     73  C   UNL     1      32.387  35.429  12.874  1.00  0.00     0.000 A 
ATOM     74  C   UNL     1      33.188  35.033  13.927  1.00  0.00     0.000 A 
ENDBRANCH  66  69
ENDBRANCH  65  66
ENDBRANCH  63  65
ENDBRANCH  59  60
ENDBRANCH  58  59
ENDBRANCH  55  58
ENDBRANCH  53  54
ENDBRANCH  50  53
ENDBRANCH  47  50
ENDBRANCH   5  47
BRANCH   4  75
ATOM     75  N   UNL     1      19.931  33.425  14.221  1.00  0.00    -0.348 N 
ATOM     76  C   UNL     1      20.855  34.402  14.670  1.00  0.00     0.217 C 
ATOM     77  H   UNL     1      19.738  32.619  14.852  1.00  0.00     0.163 HD
ATOM     78  C   UNL     1      21.555  34.340  15.979  1.00  0.00     0.114 C 
ATOM     79  O   UNL     1      21.093  35.382  13.911  1.00  0.00    -0.275 OA
ENDBRANCH   4  75
TORSDOF 33
BEGIN_RES LYS A 131
REMARK  4 active torsions:
REMARK  status: ('A' for Active; 'I' for Inactive)
REMARK    1  A    between atoms: CA   and  CB  
REMARK    2  A    between atoms: CB   and  CG  
REMARK    3  A    between atoms: CG   and  CD  
REMARK    4  A    between atoms: CD   and  CE  
ROOT
ATOM      1  CA  LYS A 131      29.867  25.555  16.977  1.00 20.52     0.186 C 
ENDROOT
BRANCH   1   2
ATOM      2  CB  LYS A 131      28.345  25.722  17.026  1.00 20.94     0.034 C 
BRANCH   2   3
ATOM      3  CG  LYS A 131      27.602  24.398  16.933  1.00 22.96     0.005 C 
BRANCH   3   4
ATOM      4  CD  LYS A 131      26.628  24.214  18.063  1.00 24.33     0.041 C 
BRANCH   4   5
ATOM      5  CE  LYS A 131      26.268  25.575  18.651  1.00 26.91     0.338 C 
ATOM      6  NZ  LYS A 131      24.899  25.970  18.244  1.00 27.40     0.618 N 
ENDBRANCH   4   5
ENDBRANCH   3   4
ENDBRANCH   2   3
ENDBRANCH   1   2
END_RES LYS A 131
BEGIN_RES LYS A 135
REMARK  4 active torsions:
REMARK  status: ('A' for Active; 'I' for Inactive)
REMARK    5  A    between atoms: CA   and  CB  
REMARK    6  A    between atoms: CB   and  CG  
REMARK    7  A    between atoms: CG   and  CD  
REMARK    8  A    between atoms: CD   and  CE  
ROOT
ATOM      7  CA  LYS A 135      33.193  34.663   9.290  1.00 25.02     0.186 C 
ENDROOT
BRANCH   7   8
ATOM      8  CB  LYS A 135      32.060  35.360  10.034  1.00 26.63     0.034 C 
BRANCH   8   9
ATOM      9  CG  LYS A 135      30.814  35.537   9.205  1.00 29.45     0.005 C 
BRANCH   9  10
ATOM     10  CD  LYS A 135      30.039  34.232   9.115  1.00 32.00     0.041 C 
BRANCH  10  11
ATOM     11  CE  LYS A 135      28.752  34.430   8.338  1.00 34.25     0.338 C 
ATOM     12  NZ  LYS A 135      28.950  35.371   7.201  1.00 35.99     0.618 N 
ENDBRANCH  10  11
ENDBRANCH   9  10
ENDBRANCH   8   9
ENDBRANCH   7   8
END_RES LYS A 135
