REMARK VINA RESULT:    -5.122      4.583     12.687
REMARK INTER + INTRA:         -21.269
REMARK INTER:                 -12.151
REMARK INTRA:                  -9.118
REMARK UNBOUND:                -8.212
REMARK SMILES CC(=O)N[C@@H]1[C@@H](O)C[C@](OC[C@H]2O[C@@H](O[C@H]3[C@H](O)[C@@H](O)[C@H](OCCN=[N+]=[N-])O[C@@H]3CO)[C@H](O)[C@@H](O)[C@H]2O)(C(=O)O)O[C@H]1C(O)[C@H](O)CNC(=O)OCc1cn(-c2ccc(CO)cn2)nn1
REMARK SMILES IDX 9 1 8 2 6 3 5 4 42 5 41 6 10 7 11 8 12 9 14 10 13 11 32 12
REMARK SMILES IDX 34 13 36 14 15 15 16 16 29 17 28 18 21 19 17 20 19 21 30 22
REMARK SMILES IDX 31 23 22 25 23 26 24 27 25 28 26 29 27 30 18 31 20 33 33 35
REMARK SMILES IDX 35 37 37 39 38 41 39 42 40 43 7 45 43 47 44 48 45 50 46 51
REMARK SMILES IDX 47 53 48 54 49 55 50 57 51 58 52 59 53 60 54 61 65 62 55 63
REMARK SMILES IDX 64 64 56 65 57 66 63 67 58 68 62 69 59 70 60 71 61 72 4 74
REMARK SMILES IDX 2 75 1 77 3 78
REMARK H PARENT 31 24 18 32 20 34 33 36 35 38 37 40 40 44 7 46 44 49 46 52
REMARK H PARENT 48 56 61 73 4 76
REMARK Flexibility Score: inf
ROOT
ATOM      1  C   UNL     1      29.355  30.834  19.230  1.00  0.00     0.272 C 
ATOM      2  C   UNL     1      30.738  30.960  19.751  1.00  0.00     0.113 C 
ATOM      3  C   UNL     1      30.914  30.290  21.085  1.00  0.00     0.145 C 
ATOM      4  C   UNL     1      30.323  28.894  21.047  1.00  0.00     0.142 C 
ATOM      5  C   UNL     1      28.948  28.927  20.519  1.00  0.00     0.178 C 
ATOM      6  O   UNL     1      28.828  29.572  19.337  1.00  0.00    -0.332 OA
ENDROOT
BRANCH   1   7
ATOM      7  O   UNL     1      29.218  31.220  17.908  1.00  0.00    -0.338 OA
BRANCH   7   8
ATOM      8  C   UNL     1      30.400  31.166  17.200  1.00  0.00     0.199 C 
BRANCH   8   9
ATOM      9  C   UNL     1      30.488  32.343  16.275  1.00  0.00     0.179 C 
ATOM     10  C   UNL     1      29.292  33.534  14.772  1.00  0.00     0.282 C 
ATOM     11  O   UNL     1      29.227  32.928  16.053  1.00  0.00    -0.341 OA
ATOM     12  C   UNL     1      30.485  34.394  14.678  1.00  0.00     0.202 C 
ATOM     13  C   UNL     1      31.185  34.701  15.992  1.00  0.00     0.179 C 
ATOM     14  C   UNL     1      31.368  33.425  16.808  1.00  0.00     0.177 C 
BRANCH  10  15
ATOM     15  O   UNL     1      28.077  34.172  14.502  1.00  0.00    -0.341 OA
BRANCH  15  16
ATOM     16  C   UNL     1      28.200  35.181  13.571  1.00  0.00     0.184 C 
ATOM     17  C   UNL     1      27.644  36.510  13.976  1.00  0.00     0.178 C 
ATOM     18  O   UNL     1      26.518  36.888  13.250  1.00  0.00    -0.341 OA
ATOM     19  C   UNL     1      25.496  35.974  13.314  1.00  0.00     0.281 C 
ATOM     20  C   UNL     1      27.399  34.721  12.338  1.00  0.00     0.180 C 
ATOM     21  C   UNL     1      25.961  34.583  12.858  1.00  0.00     0.202 C 
BRANCH  17  22
ATOM     22  C   UNL     1      28.709  37.565  13.623  1.00  0.00     0.191 C 
BRANCH  22  23
ATOM     23  O   UNL     1      29.605  37.032  12.684  1.00  0.00    -0.394 OA
ATOM     24  H   UNL     1      30.030  37.768  12.147  1.00  0.00     0.210 HD
ENDBRANCH  22  23
ENDBRANCH  17  22
BRANCH  19  25
ATOM     25  O   UNL     1      24.472  36.401  12.474  1.00  0.00    -0.350 OA
BRANCH  25  26
ATOM     26  C   UNL     1      24.760  37.568  11.813  1.00  0.00     0.169 C 
BRANCH  26  27
ATOM     27  C   UNL     1      24.372  37.390  10.351  1.00  0.00     0.119 C 
BRANCH  27  28
ATOM     28  N   UNL     1      24.370  35.977   9.997  1.00  0.00    -0.092 NA
ATOM     29  N   UNL     1      25.127  35.482   9.179  1.00  0.00     0.001 N 
ATOM     30  N   UNL     1      26.065  34.849   8.696  1.00  0.00    -0.003 NA
ENDBRANCH  27  28
ENDBRANCH  26  27
ENDBRANCH  25  26
ENDBRANCH  19  25
BRANCH  20  31
ATOM     31  O   UNL     1      27.512  35.578  11.279  1.00  0.00    -0.387 OA
ATOM     32  H   UNL     1      27.688  35.076  10.469  1.00  0.00     0.211 HD
ENDBRANCH  20  31
BRANCH  21  33
ATOM     33  O   UNL     1      26.026  33.722  13.951  1.00  0.00    -0.385 OA
ATOM     34  H   UNL     1      26.362  34.246  14.721  1.00  0.00     0.211 HD
ENDBRANCH  21  33
ENDBRANCH  15  16
ENDBRANCH  10  15
BRANCH  12  35
ATOM     35  O   UNL     1      31.428  33.778  13.823  1.00  0.00    -0.385 OA
ATOM     36  H   UNL     1      31.787  34.420  13.157  1.00  0.00     0.211 HD
ENDBRANCH  12  35
BRANCH  13  37
ATOM     37  O   UNL     1      30.549  35.706  16.700  1.00  0.00    -0.387 OA
ATOM     38  H   UNL     1      29.683  35.958  16.346  1.00  0.00     0.211 HD
ENDBRANCH  13  37
BRANCH  14  39
ATOM     39  O   UNL     1      31.073  33.730  18.120  1.00  0.00    -0.387 OA
ATOM     40  H   UNL     1      31.769  33.369  18.703  1.00  0.00     0.211 HD
ENDBRANCH  14  39
ENDBRANCH   8   9
ENDBRANCH   7   8
ENDBRANCH   1   7
BRANCH   1  41
ATOM     41  C   UNL     1      28.395  31.721  19.995  1.00  0.00     0.364 C 
ATOM     42  O   UNL     1      28.774  32.598  20.807  1.00  0.00    -0.246 OA
BRANCH  41  43
ATOM     43  O   UNL     1      27.032  31.587  19.819  1.00  0.00    -0.477 OA
ATOM     44  H   UNL     1      26.622  31.735  18.888  1.00  0.00     0.296 HD
ENDBRANCH  41  43
ENDBRANCH   1  41
BRANCH   3  45
ATOM     45  O   UNL     1      32.301  30.114  21.260  1.00  0.00    -0.391 OA
ATOM     46  H   UNL     1      32.822  30.339  20.468  1.00  0.00     0.211 HD
ENDBRANCH   3  45
BRANCH   5  47
ATOM     47  C   UNL     1      28.293  27.560  20.445  1.00  0.00     0.176 C 
BRANCH  47  48
ATOM     48  O   UNL     1      28.506  27.008  19.183  1.00  0.00    -0.388 OA
ATOM     49  H   UNL     1      29.402  27.243  18.847  1.00  0.00     0.211 HD
ENDBRANCH  47  48
BRANCH  47  50
ATOM     50  C   UNL     1      26.839  27.532  20.727  1.00  0.00     0.165 C 
BRANCH  50  51
ATOM     51  O   UNL     1      26.475  26.524  21.631  1.00  0.00    -0.388 OA
ATOM     52  H   UNL     1      27.230  26.109  22.076  1.00  0.00     0.211 HD
ENDBRANCH  50  51
BRANCH  50  53
ATOM     53  C   UNL     1      25.931  27.531  19.531  1.00  0.00     0.154 C 
BRANCH  53  54
ATOM     54  N   UNL     1      25.834  28.847  18.957  1.00  0.00    -0.319 N 
ATOM     55  C   UNL     1      26.350  29.097  17.663  1.00  0.00     0.407 C 
ATOM     56  H   UNL     1      25.371  29.639  19.513  1.00  0.00     0.167 HD
ATOM     57  O   UNL     1      26.898  28.214  16.967  1.00  0.00    -0.225 OA
BRANCH  55  58
ATOM     58  O   UNL     1      26.267  30.369  17.088  1.00  0.00    -0.443 OA
BRANCH  58  59
ATOM     59  C   UNL     1      26.201  30.488  15.695  1.00  0.00     0.294 C 
BRANCH  59  60
ATOM     60  C   UNL     1      24.864  30.613  15.128  1.00  0.00     0.121 A 
ATOM     61  C   UNL     1      24.052  29.594  14.697  1.00  0.00     0.146 A 
ATOM     62  N   UNL     1      24.177  31.748  14.915  1.00  0.00    -0.131 NA
ATOM     63  N   UNL     1      22.903  30.129  14.237  1.00  0.00    -0.202 N 
ATOM     64  N   UNL     1      23.020  31.435  14.387  1.00  0.00    -0.061 NA
BRANCH  63  65
ATOM     65  C   UNL     1      21.820  29.383  13.704  1.00  0.00     0.155 A 
ATOM     66  C   UNL     1      21.402  29.539  12.386  1.00  0.00     0.049 A 
ATOM     67  N   UNL     1      21.146  28.500  14.460  1.00  0.00    -0.237 NA
ATOM     68  C   UNL     1      20.334  28.806  11.885  1.00  0.00     0.011 A 
ATOM     69  C   UNL     1      20.102  27.775  13.992  1.00  0.00     0.119 A 
ATOM     70  C   UNL     1      19.663  27.908  12.685  1.00  0.00    -0.004 A 
BRANCH  70  71
ATOM     71  C   UNL     1      18.518  27.128  12.142  1.00  0.00     0.193 C 
BRANCH  71  72
ATOM     72  O   UNL     1      18.634  25.779  12.473  1.00  0.00    -0.392 OA
ATOM     73  H   UNL     1      18.630  25.628  13.441  1.00  0.00     0.211 HD
ENDBRANCH  71  72
ENDBRANCH  70  71
ENDBRANCH  63  65
ENDBRANCH  59  60
ENDBRANCH  58  59
ENDBRANCH  55  58
ENDBRANCH  53  54
ENDBRANCH  50  53
ENDBRANCH  47  50
ENDBRANCH   5  47
BRANCH   4  74
ATOM     74  N   UNL     1      30.392  28.304  22.385  1.00  0.00    -0.348 N 
ATOM     75  C   UNL     1      31.369  27.380  22.748  1.00  0.00     0.217 C 
ATOM     76  H   UNL     1      29.682  28.603  23.083  1.00  0.00     0.163 HD
ATOM     77  C   UNL     1      31.320  26.844  24.161  1.00  0.00     0.114 C 
ATOM     78  O   UNL     1      32.262  26.976  21.990  1.00  0.00    -0.275 OA
ENDBRANCH   4  74
TORSDOF 32
BEGIN_RES LYS A 131
REMARK  4 active torsions:
REMARK  status: ('A' for Active; 'I' for Inactive)
REMARK    1  A    between atoms: CA   and  CB  
REMARK    2  A    between atoms: CB   and  CG  
REMARK    3  A    between atoms: CG   and  CD  
REMARK    4  A    between atoms: CD   and  CE  
ROOT
ATOM      1  CA  LYS A 131      29.867  25.555  16.977  1.00 20.52     0.186 C 
ENDROOT
BRANCH   1   2
ATOM      2  CB  LYS A 131      28.345  25.722  17.026  1.00 20.94     0.034 C 
BRANCH   2   3
ATOM      3  CG  LYS A 131      27.602  24.399  16.923  1.00 22.96     0.005 C 
BRANCH   3   4
ATOM      4  CD  LYS A 131      26.153  24.532  17.305  1.00 24.33     0.041 C 
BRANCH   4   5
ATOM      5  CE  LYS A 131      25.791  23.447  18.314  1.00 26.91     0.338 C 
ATOM      6  NZ  LYS A 131      25.003  22.375  17.662  1.00 27.40     0.618 N 
ENDBRANCH   4   5
ENDBRANCH   3   4
ENDBRANCH   2   3
ENDBRANCH   1   2
END_RES LYS A 131
BEGIN_RES LYS A 135
REMARK  4 active torsions:
REMARK  status: ('A' for Active; 'I' for Inactive)
REMARK    5  A    between atoms: CA   and  CB  
REMARK    6  A    between atoms: CB   and  CG  
REMARK    7  A    between atoms: CG   and  CD  
REMARK    8  A    between atoms: CD   and  CE  
ROOT
ATOM      7  CA  LYS A 135      33.193  34.663   9.290  1.00 25.02     0.186 C 
ENDROOT
BRANCH   7   8
ATOM      8  CB  LYS A 135      32.060  35.360  10.034  1.00 26.63     0.034 C 
BRANCH   8   9
ATOM      9  CG  LYS A 135      30.696  34.807   9.710  1.00 29.45     0.005 C 
BRANCH   9  10
ATOM     10  CD  LYS A 135      30.595  34.462   8.232  1.00 32.00     0.041 C 
BRANCH  10  11
ATOM     11  CE  LYS A 135      29.420  35.180   7.597  1.00 34.25     0.338 C 
ATOM     12  NZ  LYS A 135      29.208  36.517   8.218  1.00 35.99     0.618 N 
ENDBRANCH  10  11
ENDBRANCH   9  10
ENDBRANCH   8   9
ENDBRANCH   7   8
END_RES LYS A 135
