REMARK VINA RESULT:    -5.059      0.000      0.000
REMARK INTER + INTRA:         -24.373
REMARK INTER:                  -9.992
REMARK INTRA:                 -14.381
REMARK UNBOUND:               -10.737
REMARK SMILES CC(=O)N[C@@H]1[C@@H](O)C[C@](OC[C@H]2O[C@@H](O[C@H]3[C@H](O)[C@@H](O)[C@H](OCCN=[N+]=[N-])O[C@@H]3CO)[C@H](O)[C@@H](O)[C@H]2O)(C(=O)O)O[C@H]1C(O)[C@H](O)CNC(=O)OCc1cn(CCNC(=O)NCc2ccco2)nn1
REMARK SMILES IDX 43 1 42 2 9 3 8 4 41 5 6 6 5 7 10 8 11 9 12 10 14 11 13 12
REMARK SMILES IDX 32 13 34 14 36 15 15 16 16 17 29 18 28 19 21 20 17 21 19 22
REMARK SMILES IDX 30 23 31 24 22 26 23 27 24 28 25 29 26 30 27 31 18 32 20 34
REMARK SMILES IDX 33 36 35 38 37 40 38 42 39 43 40 44 7 46 4 48 2 49 1 51 3 52
REMARK SMILES IDX 44 53 45 55 46 56 47 58 48 59 49 60 50 62 51 63 52 64 53 65
REMARK SMILES IDX 54 66 69 67 55 68 68 69 56 70 57 71 58 72 59 73 60 75 61 76
REMARK SMILES IDX 62 78 63 79 64 80 67 81 65 82 66 83
REMARK H PARENT 31 25 18 33 20 35 33 37 35 39 37 41 40 45 7 47 4 50 44 54
REMARK H PARENT 46 57 48 61 58 74 61 77
REMARK Flexibility Score: inf
ROOT
ATOM      1  C   UNL     1      26.741  30.314  16.489  1.00  0.00     0.176 C 
ENDROOT
BRANCH   1   2
ATOM      2  C   UNL     1      25.929  30.757  15.314  1.00  0.00     0.178 C 
ATOM      3  C   UNL     1      25.722  33.122  15.441  1.00  0.00     0.272 C 
ATOM      4  C   UNL     1      24.618  32.745  16.482  1.00  0.00     0.113 C 
ATOM      5  O   UNL     1      26.228  32.009  14.872  1.00  0.00    -0.332 OA
ATOM      6  C   UNL     1      23.757  31.636  16.024  1.00  0.00     0.145 C 
ATOM      7  C   UNL     1      24.472  30.473  15.383  1.00  0.00     0.142 C 
BRANCH   3   8
ATOM      8  O   UNL     1      26.704  33.699  16.217  1.00  0.00    -0.338 OA
BRANCH   8   9
ATOM      9  C   UNL     1      27.675  34.426  15.671  1.00  0.00     0.199 C 
BRANCH   9  10
ATOM     10  C   UNL     1      29.101  34.312  15.907  1.00  0.00     0.179 C 
ATOM     11  C   UNL     1      30.867  34.129  17.360  1.00  0.00     0.282 C 
ATOM     12  O   UNL     1      29.493  33.958  17.187  1.00  0.00    -0.341 OA
ATOM     13  C   UNL     1      31.665  34.137  16.108  1.00  0.00     0.202 C 
ATOM     14  C   UNL     1      31.129  33.303  14.981  1.00  0.00     0.179 C 
ATOM     15  C   UNL     1      29.635  33.174  15.014  1.00  0.00     0.177 C 
BRANCH  11  16
ATOM     16  O   UNL     1      31.402  33.205  18.242  1.00  0.00    -0.341 OA
BRANCH  16  17
ATOM     17  C   UNL     1      30.606  33.028  19.392  1.00  0.00     0.184 C 
ATOM     18  C   UNL     1      31.505  33.175  20.584  1.00  0.00     0.178 C 
ATOM     19  O   UNL     1      31.122  32.351  21.640  1.00  0.00    -0.341 OA
ATOM     20  C   UNL     1      31.343  31.044  21.221  1.00  0.00     0.281 C 
ATOM     21  C   UNL     1      29.917  31.710  19.266  1.00  0.00     0.180 C 
ATOM     22  C   UNL     1      30.291  30.655  20.237  1.00  0.00     0.202 C 
BRANCH  18  23
ATOM     23  C   UNL     1      31.376  34.609  21.099  1.00  0.00     0.191 C 
BRANCH  23  24
ATOM     24  O   UNL     1      32.165  35.420  20.255  1.00  0.00    -0.394 OA
ATOM     25  H   UNL     1      32.845  35.827  20.867  1.00  0.00     0.210 HD
ENDBRANCH  23  24
ENDBRANCH  18  23
BRANCH  20  26
ATOM     26  O   UNL     1      31.180  30.240  22.352  1.00  0.00    -0.350 OA
BRANCH  26  27
ATOM     27  C   UNL     1      32.401  29.737  22.801  1.00  0.00     0.169 C 
BRANCH  27  28
ATOM     28  C   UNL     1      32.074  28.523  23.675  1.00  0.00     0.119 C 
BRANCH  28  29
ATOM     29  N   UNL     1      32.531  27.354  22.944  1.00  0.00    -0.092 NA
ATOM     30  N   UNL     1      32.046  27.064  21.840  1.00  0.00     0.001 N 
ATOM     31  N   UNL     1      31.776  26.976  20.630  1.00  0.00    -0.003 NA
ENDBRANCH  28  29
ENDBRANCH  27  28
ENDBRANCH  26  27
ENDBRANCH  20  26
BRANCH  21  32
ATOM     32  O   UNL     1      28.531  31.958  19.333  1.00  0.00    -0.387 OA
ATOM     33  H   UNL     1      28.314  32.682  19.948  1.00  0.00     0.211 HD
ENDBRANCH  21  32
BRANCH  22  34
ATOM     34  O   UNL     1      30.821  29.558  19.513  1.00  0.00    -0.385 OA
ATOM     35  H   UNL     1      31.817  29.692  19.531  1.00  0.00     0.211 HD
ENDBRANCH  22  34
ENDBRANCH  16  17
ENDBRANCH  11  16
BRANCH  13  36
ATOM     36  O   UNL     1      32.008  35.429  15.689  1.00  0.00    -0.385 OA
ATOM     37  H   UNL     1      31.717  35.607  14.766  1.00  0.00     0.211 HD
ENDBRANCH  13  36
BRANCH  14  38
ATOM     38  O   UNL     1      31.732  32.039  14.935  1.00  0.00    -0.387 OA
ATOM     39  H   UNL     1      31.630  31.669  15.856  1.00  0.00     0.211 HD
ENDBRANCH  14  38
BRANCH  15  40
ATOM     40  O   UNL     1      29.186  31.949  15.447  1.00  0.00    -0.387 OA
ATOM     41  H   UNL     1      29.899  31.528  15.962  1.00  0.00     0.211 HD
ENDBRANCH  15  40
ENDBRANCH   9  10
ENDBRANCH   8   9
ENDBRANCH   3   8
BRANCH   3  42
ATOM     42  C   UNL     1      25.058  34.102  14.586  1.00  0.00     0.364 C 
ATOM     43  O   UNL     1      24.352  35.004  15.059  1.00  0.00    -0.246 OA
BRANCH  42  44
ATOM     44  O   UNL     1      25.163  34.101  13.191  1.00  0.00    -0.477 OA
ATOM     45  H   UNL     1      25.392  34.974  12.712  1.00  0.00     0.296 HD
ENDBRANCH  42  44
ENDBRANCH   3  42
BRANCH   6  46
ATOM     46  O   UNL     1      23.046  31.164  17.144  1.00  0.00    -0.391 OA
ATOM     47  H   UNL     1      23.524  31.437  17.967  1.00  0.00     0.211 HD
ENDBRANCH   6  46
BRANCH   7  48
ATOM     48  N   UNL     1      23.903  30.252  14.054  1.00  0.00    -0.348 N 
ATOM     49  C   UNL     1      23.096  29.139  13.782  1.00  0.00     0.217 C 
ATOM     50  H   UNL     1      24.113  30.951  13.310  1.00  0.00     0.163 HD
ATOM     51  C   UNL     1      22.494  28.869  12.441  1.00  0.00     0.114 C 
ATOM     52  O   UNL     1      22.880  28.326  14.737  1.00  0.00    -0.275 OA
ENDBRANCH   7  48
ENDBRANCH   1   2
BRANCH   1  53
ATOM     53  O   UNL     1      27.901  29.626  15.983  1.00  0.00    -0.388 OA
ATOM     54  H   UNL     1      27.997  28.841  16.542  1.00  0.00     0.211 HD
ENDBRANCH   1  53
BRANCH   1  55
ATOM     55  C   UNL     1      26.115  29.282  17.381  1.00  0.00     0.165 C 
BRANCH  55  56
ATOM     56  O   UNL     1      25.620  29.720  18.586  1.00  0.00    -0.388 OA
ATOM     57  H   UNL     1      25.772  30.684  18.750  1.00  0.00     0.211 HD
ENDBRANCH  55  56
BRANCH  55  58
ATOM     58  C   UNL     1      27.052  28.087  17.587  1.00  0.00     0.154 C 
BRANCH  58  59
ATOM     59  N   UNL     1      27.929  28.306  18.711  1.00  0.00    -0.319 N 
ATOM     60  C   UNL     1      27.903  27.513  19.882  1.00  0.00     0.407 C 
ATOM     61  H   UNL     1      28.615  29.083  18.656  1.00  0.00     0.167 HD
ATOM     62  O   UNL     1      27.081  26.564  19.965  1.00  0.00    -0.225 OA
BRANCH  60  63
ATOM     63  O   UNL     1      28.760  27.750  20.952  1.00  0.00    -0.443 OA
BRANCH  63  64
ATOM     64  C   UNL     1      28.200  27.996  22.238  1.00  0.00     0.294 C 
BRANCH  64  65
ATOM     65  C   UNL     1      27.602  29.364  22.150  1.00  0.00     0.120 A 
ATOM     66  C   UNL     1      27.677  30.323  23.124  1.00  0.00     0.138 A 
ATOM     67  N   UNL     1      26.902  29.880  21.111  1.00  0.00    -0.132 NA
ATOM     68  N   UNL     1      27.027  31.379  22.656  1.00  0.00    -0.250 N 
ATOM     69  N   UNL     1      26.561  31.105  21.438  1.00  0.00    -0.067 NA
BRANCH  68  70
ATOM     70  C   UNL     1      26.850  32.636  23.382  1.00  0.00     0.167 C 
BRANCH  70  71
ATOM     71  C   UNL     1      28.067  33.507  23.068  1.00  0.00     0.141 C 
BRANCH  71  72
ATOM     72  N   UNL     1      28.071  33.728  21.651  1.00  0.00    -0.336 N 
ATOM     73  C   UNL     1      27.696  34.943  21.043  1.00  0.00     0.315 C 
ATOM     74  H   UNL     1      28.376  32.915  21.052  1.00  0.00     0.165 HD
ATOM     75  O   UNL     1      27.309  35.917  21.725  1.00  0.00    -0.249 OA
ATOM     76  N   UNL     1      27.768  35.049  19.613  1.00  0.00    -0.331 N 
ATOM     77  H   UNL     1      28.099  34.204  19.081  1.00  0.00     0.165 HD
BRANCH  76  78
ATOM     78  C   UNL     1      27.397  36.271  18.956  1.00  0.00     0.193 C 
BRANCH  78  79
ATOM     79  C   UNL     1      28.606  36.975  18.451  1.00  0.00     0.122 A 
ATOM     80  C   UNL     1      28.646  37.718  17.277  1.00  0.00     0.047 A 
ATOM     81  O   UNL     1      29.773  37.010  18.999  1.00  0.00    -0.467 OA
ATOM     82  C   UNL     1      29.921  38.192  17.177  1.00  0.00     0.042 A 
ATOM     83  C   UNL     1      30.599  37.729  18.272  1.00  0.00     0.195 A 
ENDBRANCH  78  79
ENDBRANCH  76  78
ENDBRANCH  71  72
ENDBRANCH  70  71
ENDBRANCH  68  70
ENDBRANCH  64  65
ENDBRANCH  63  64
ENDBRANCH  60  63
ENDBRANCH  58  59
ENDBRANCH  55  58
ENDBRANCH   1  55
TORSDOF 34
BEGIN_RES LYS A 131
REMARK  4 active torsions:
REMARK  status: ('A' for Active; 'I' for Inactive)
REMARK    1  A    between atoms: CA   and  CB  
REMARK    2  A    between atoms: CB   and  CG  
REMARK    3  A    between atoms: CG   and  CD  
REMARK    4  A    between atoms: CD   and  CE  
ROOT
ATOM      1  CA  LYS A 131      29.867  25.555  16.977  1.00 20.52     0.186 C 
ENDROOT
BRANCH   1   2
ATOM      2  CB  LYS A 131      28.345  25.722  17.026  1.00 20.94     0.034 C 
BRANCH   2   3
ATOM      3  CG  LYS A 131      27.601  24.403  16.887  1.00 22.96     0.005 C 
BRANCH   3   4
ATOM      4  CD  LYS A 131      26.144  24.535  17.235  1.00 24.33     0.041 C 
BRANCH   4   5
ATOM      5  CE  LYS A 131      25.569  23.158  17.549  1.00 26.91     0.338 C 
ATOM      6  NZ  LYS A 131      24.156  23.072  17.108  1.00 27.40     0.618 N 
ENDBRANCH   4   5
ENDBRANCH   3   4
ENDBRANCH   2   3
ENDBRANCH   1   2
END_RES LYS A 131
BEGIN_RES LYS A 135
REMARK  4 active torsions:
REMARK  status: ('A' for Active; 'I' for Inactive)
REMARK    5  A    between atoms: CA   and  CB  
REMARK    6  A    between atoms: CB   and  CG  
REMARK    7  A    between atoms: CG   and  CD  
REMARK    8  A    between atoms: CD   and  CE  
ROOT
ATOM      7  CA  LYS A 135      33.193  34.663   9.290  1.00 25.02     0.186 C 
ENDROOT
BRANCH   7   8
ATOM      8  CB  LYS A 135      32.060  35.360  10.034  1.00 26.63     0.034 C 
BRANCH   8   9
ATOM      9  CG  LYS A 135      30.708  34.741   9.790  1.00 29.45     0.005 C 
BRANCH   9  10
ATOM     10  CD  LYS A 135      30.487  34.502   8.304  1.00 32.00     0.041 C 
BRANCH  10  11
ATOM     11  CE  LYS A 135      29.075  34.887   7.907  1.00 34.25     0.338 C 
ATOM     12  NZ  LYS A 135      28.920  36.367   7.845  1.00 35.99     0.618 N 
ENDBRANCH  10  11
ENDBRANCH   9  10
ENDBRANCH   8   9
ENDBRANCH   7   8
END_RES LYS A 135
