REMARK VINA RESULT:    -5.193      2.288      7.248
REMARK INTER + INTRA:         -23.939
REMARK INTER:                 -13.430
REMARK INTRA:                 -10.510
REMARK UNBOUND:               -10.853
REMARK SMILES CC(=O)N[C@@H]1[C@@H](O)C[C@](OC[C@H]2O[C@@H](O[C@H]3[C@H](O)[C@@H](O)[C@H](OCCN=[N+]=[N-])O[C@@H]3CO)[C@H](O)[C@@H](O)[C@H]2O)(C(=O)O)O[C@H]1C(O)[C@H](O)CNC(=O)OCc1cn(-c2ncn3c2c(=O)n(C(C)C)c2ccccc23)nn1
REMARK SMILES IDX 9 1 8 2 6 3 5 4 42 5 41 6 10 7 11 8 12 9 14 10 13 11 32 12
REMARK SMILES IDX 34 13 36 14 15 15 16 16 29 17 28 18 21 19 17 20 19 21 30 22
REMARK SMILES IDX 31 23 22 25 23 26 24 27 25 28 26 29 27 30 18 31 20 33 33 35
REMARK SMILES IDX 35 37 37 39 38 41 39 42 40 43 7 45 43 47 44 48 45 50 46 51
REMARK SMILES IDX 47 53 48 54 49 55 50 57 51 58 52 59 53 60 54 61 74 62 55 63
REMARK SMILES IDX 73 64 56 65 57 66 60 67 58 68 59 69 61 70 72 71 63 72 62 73
REMARK SMILES IDX 71 74 67 75 70 76 68 77 69 78 64 79 65 80 66 81 4 82 2 83
REMARK SMILES IDX 1 85 3 86
REMARK H PARENT 31 24 18 32 20 34 33 36 35 38 37 40 40 44 7 46 44 49 46 52
REMARK H PARENT 48 56 4 84
REMARK Flexibility Score: inf
ROOT
ATOM      1  C   UNL     1      27.842  39.681   6.319  1.00  0.00     0.272 C 
ATOM      2  C   UNL     1      28.685  38.814   7.214  1.00  0.00     0.113 C 
ATOM      3  C   UNL     1      30.084  38.716   6.769  1.00  0.00     0.145 C 
ATOM      4  C   UNL     1      30.705  40.018   6.352  1.00  0.00     0.142 C 
ATOM      5  C   UNL     1      29.729  41.009   5.829  1.00  0.00     0.178 C 
ATOM      6  O   UNL     1      28.476  40.963   6.277  1.00  0.00    -0.332 OA
ENDROOT
BRANCH   1   7
ATOM      7  O   UNL     1      26.707  39.966   7.026  1.00  0.00    -0.338 OA
BRANCH   7   8
ATOM      8  C   UNL     1      25.854  40.925   6.802  1.00  0.00     0.199 C 
BRANCH   8   9
ATOM      9  C   UNL     1      24.373  40.843   6.938  1.00  0.00     0.179 C 
ATOM     10  C   UNL     1      22.841  39.434   7.983  1.00  0.00     0.282 C 
ATOM     11  O   UNL     1      24.168  39.675   7.743  1.00  0.00    -0.341 OA
ATOM     12  C   UNL     1      22.191  40.538   8.796  1.00  0.00     0.202 C 
ATOM     13  C   UNL     1      22.449  41.894   8.164  1.00  0.00     0.179 C 
ATOM     14  C   UNL     1      23.913  41.994   7.834  1.00  0.00     0.177 C 
BRANCH  10  15
ATOM     15  O   UNL     1      22.768  38.261   8.725  1.00  0.00    -0.341 OA
BRANCH  15  16
ATOM     16  C   UNL     1      24.009  37.863   9.147  1.00  0.00     0.184 C 
ATOM     17  C   UNL     1      24.324  36.503   8.639  1.00  0.00     0.178 C 
ATOM     18  O   UNL     1      24.115  35.465   9.512  1.00  0.00    -0.341 OA
ATOM     19  C   UNL     1      23.175  35.674  10.486  1.00  0.00     0.281 C 
ATOM     20  C   UNL     1      24.186  37.980  10.647  1.00  0.00     0.180 C 
ATOM     21  C   UNL     1      23.462  36.885  11.340  1.00  0.00     0.202 C 
BRANCH  17  22
ATOM     22  C   UNL     1      25.742  36.446   8.113  1.00  0.00     0.191 C 
BRANCH  22  23
ATOM     23  O   UNL     1      25.715  37.150   6.885  1.00  0.00    -0.394 OA
ATOM     24  H   UNL     1      24.880  37.672   6.889  1.00  0.00     0.210 HD
ENDBRANCH  22  23
ENDBRANCH  17  22
BRANCH  19  25
ATOM     25  O   UNL     1      23.230  34.573  11.359  1.00  0.00    -0.350 OA
BRANCH  25  26
ATOM     26  C   UNL     1      24.419  34.447  12.026  1.00  0.00     0.169 C 
BRANCH  26  27
ATOM     27  C   UNL     1      24.336  33.880  13.408  1.00  0.00     0.119 C 
BRANCH  27  28
ATOM     28  N   UNL     1      24.511  32.426  13.259  1.00  0.00    -0.092 NA
ATOM     29  N   UNL     1      24.873  31.696  14.155  1.00  0.00     0.001 N 
ATOM     30  N   UNL     1      25.493  30.927  14.897  1.00  0.00    -0.003 NA
ENDBRANCH  27  28
ENDBRANCH  26  27
ENDBRANCH  25  26
ENDBRANCH  19  25
BRANCH  20  31
ATOM     31  O   UNL     1      25.556  38.018  10.936  1.00  0.00    -0.387 OA
ATOM     32  H   UNL     1      25.712  37.235  11.541  1.00  0.00     0.211 HD
ENDBRANCH  20  31
BRANCH  21  33
ATOM     33  O   UNL     1      22.230  37.406  11.775  1.00  0.00    -0.385 OA
ATOM     34  H   UNL     1      22.255  37.651  12.736  1.00  0.00     0.211 HD
ENDBRANCH  21  33
ENDBRANCH  15  16
ENDBRANCH  10  15
BRANCH  12  35
ATOM     35  O   UNL     1      20.813  40.340   8.740  1.00  0.00    -0.385 OA
ATOM     36  H   UNL     1      20.576  39.445   8.400  1.00  0.00     0.211 HD
ENDBRANCH  12  35
BRANCH  13  37
ATOM     37  O   UNL     1      22.202  42.852   9.165  1.00  0.00    -0.387 OA
ATOM     38  H   UNL     1      21.219  42.971   9.288  1.00  0.00     0.211 HD
ENDBRANCH  13  37
BRANCH  14  39
ATOM     39  O   UNL     1      24.597  41.866   9.071  1.00  0.00    -0.387 OA
ATOM     40  H   UNL     1      24.196  42.467   9.744  1.00  0.00     0.211 HD
ENDBRANCH  14  39
ENDBRANCH   8   9
ENDBRANCH   7   8
ENDBRANCH   1   7
BRANCH   1  41
ATOM     41  C   UNL     1      27.723  39.213   4.946  1.00  0.00     0.364 C 
ATOM     42  O   UNL     1      27.719  39.942   3.954  1.00  0.00    -0.246 OA
BRANCH  41  43
ATOM     43  O   UNL     1      27.600  37.837   4.673  1.00  0.00    -0.477 OA
ATOM     44  H   UNL     1      26.989  37.531   3.926  1.00  0.00     0.296 HD
ENDBRANCH  41  43
ENDBRANCH   1  41
BRANCH   3  45
ATOM     45  O   UNL     1      30.821  38.178   7.856  1.00  0.00    -0.391 OA
ATOM     46  H   UNL     1      30.257  37.582   8.399  1.00  0.00     0.211 HD
ENDBRANCH   3  45
BRANCH   5  47
ATOM     47  C   UNL     1      30.242  42.433   5.938  1.00  0.00     0.176 C 
BRANCH  47  48
ATOM     48  O   UNL     1      31.324  42.476   6.789  1.00  0.00    -0.388 OA
ATOM     49  H   UNL     1      31.889  43.280   6.671  1.00  0.00     0.211 HD
ENDBRANCH  47  48
BRANCH  47  50
ATOM     50  C   UNL     1      29.214  43.433   6.338  1.00  0.00     0.165 C 
BRANCH  50  51
ATOM     51  O   UNL     1      28.951  44.433   5.441  1.00  0.00    -0.388 OA
ATOM     52  H   UNL     1      28.106  44.912   5.600  1.00  0.00     0.211 HD
ENDBRANCH  50  51
BRANCH  50  53
ATOM     53  C   UNL     1      29.426  44.004   7.707  1.00  0.00     0.154 C 
BRANCH  53  54
ATOM     54  N   UNL     1      29.079  43.019   8.738  1.00  0.00    -0.319 N 
ATOM     55  C   UNL     1      27.794  42.927   9.297  1.00  0.00     0.407 C 
ATOM     56  H   UNL     1      29.823  42.341   9.082  1.00  0.00     0.167 HD
ATOM     57  O   UNL     1      26.873  43.707   8.942  1.00  0.00    -0.225 OA
BRANCH  55  58
ATOM     58  O   UNL     1      27.562  41.939  10.265  1.00  0.00    -0.443 OA
BRANCH  58  59
ATOM     59  C   UNL     1      28.536  41.642  11.226  1.00  0.00     0.294 C 
BRANCH  59  60
ATOM     60  C   UNL     1      28.948  40.188  11.197  1.00  0.00     0.121 A 
ATOM     61  C   UNL     1      28.520  39.203  12.058  1.00  0.00     0.146 A 
ATOM     62  N   UNL     1      29.788  39.581  10.344  1.00  0.00    -0.131 NA
ATOM     63  N   UNL     1      29.104  38.017  11.714  1.00  0.00    -0.200 N 
ATOM     64  N   UNL     1      29.863  38.293  10.672  1.00  0.00    -0.060 NA
BRANCH  63  65
ATOM     65  C   UNL     1      28.900  36.767  12.372  1.00  0.00     0.186 A 
ATOM     66  N   UNL     1      27.743  36.085  12.384  1.00  0.00    -0.216 NA
ATOM     67  C   UNL     1      29.765  36.006  13.119  1.00  0.00     0.158 A 
ATOM     68  C   UNL     1      27.885  34.956  13.104  1.00  0.00     0.207 A 
ATOM     69  N   UNL     1      29.149  34.887  13.575  1.00  0.00    -0.291 N 
ATOM     70  C   UNL     1      31.080  36.230  13.434  1.00  0.00     0.279 A 
ATOM     71  C   UNL     1      29.799  33.987  14.334  1.00  0.00     0.071 A 
ATOM     72  N   UNL     1      31.763  35.340  14.198  1.00  0.00    -0.302 N 
ATOM     73  O   UNL     1      31.683  37.269  13.020  1.00  0.00    -0.267 OA
ATOM     74  C   UNL     1      29.178  32.860  14.801  1.00  0.00     0.029 A 
ATOM     75  C   UNL     1      31.119  34.235  14.638  1.00  0.00     0.068 A 
ATOM     76  C   UNL     1      29.854  31.923  15.598  1.00  0.00     0.002 A 
ATOM     77  C   UNL     1      31.781  33.311  15.423  1.00  0.00     0.028 A 
ATOM     78  C   UNL     1      31.173  32.160  15.908  1.00  0.00     0.002 A 
BRANCH  72  79
ATOM     79  C   UNL     1      33.169  35.574  14.529  1.00  0.00     0.085 C 
ATOM     80  C   UNL     1      33.415  35.775  15.988  1.00  0.00     0.031 C 
ATOM     81  C   UNL     1      34.085  34.571  13.873  1.00  0.00     0.031 C 
ENDBRANCH  72  79
ENDBRANCH  63  65
ENDBRANCH  59  60
ENDBRANCH  58  59
ENDBRANCH  55  58
ENDBRANCH  53  54
ENDBRANCH  50  53
ENDBRANCH  47  50
ENDBRANCH   5  47
BRANCH   4  82
ATOM     82  N   UNL     1      31.775  39.735   5.418  1.00  0.00    -0.348 N 
ATOM     83  C   UNL     1      33.143  39.752   5.773  1.00  0.00     0.217 C 
ATOM     84  H   UNL     1      31.546  39.503   4.422  1.00  0.00     0.163 HD
ATOM     85  C   UNL     1      34.236  39.460   4.800  1.00  0.00     0.114 C 
ATOM     86  O   UNL     1      33.436  40.032   6.973  1.00  0.00    -0.275 OA
ENDBRANCH   4  82
TORSDOF 31
BEGIN_RES LYS A 131
REMARK  4 active torsions:
REMARK  status: ('A' for Active; 'I' for Inactive)
REMARK    1  A    between atoms: CA   and  CB  
REMARK    2  A    between atoms: CB   and  CG  
REMARK    3  A    between atoms: CG   and  CD  
REMARK    4  A    between atoms: CD   and  CE  
ROOT
ATOM      1  CA  LYS A 131      29.867  25.555  16.977  1.00 20.52     0.186 C 
ENDROOT
BRANCH   1   2
ATOM      2  CB  LYS A 131      28.345  25.722  17.026  1.00 20.94     0.034 C 
BRANCH   2   3
ATOM      3  CG  LYS A 131      27.599  24.474  16.578  1.00 22.96     0.005 C 
BRANCH   3   4
ATOM      4  CD  LYS A 131      27.008  23.721  17.737  1.00 24.33     0.041 C 
BRANCH   4   5
ATOM      5  CE  LYS A 131      26.204  24.679  18.610  1.00 26.91     0.338 C 
ATOM      6  NZ  LYS A 131      24.804  24.766  18.131  1.00 27.40     0.618 N 
ENDBRANCH   4   5
ENDBRANCH   3   4
ENDBRANCH   2   3
ENDBRANCH   1   2
END_RES LYS A 131
BEGIN_RES LYS A 135
REMARK  4 active torsions:
REMARK  status: ('A' for Active; 'I' for Inactive)
REMARK    5  A    between atoms: CA   and  CB  
REMARK    6  A    between atoms: CB   and  CG  
REMARK    7  A    between atoms: CG   and  CD  
REMARK    8  A    between atoms: CD   and  CE  
ROOT
ATOM      7  CA  LYS A 135      33.193  34.663   9.290  1.00 25.02     0.186 C 
ENDROOT
BRANCH   7   8
ATOM      8  CB  LYS A 135      32.060  35.360  10.034  1.00 26.63     0.034 C 
BRANCH   8   9
ATOM      9  CG  LYS A 135      30.709  34.735   9.797  1.00 29.45     0.005 C 
BRANCH   9  10
ATOM     10  CD  LYS A 135      30.461  34.543   8.309  1.00 32.00     0.041 C 
BRANCH  10  11
ATOM     11  CE  LYS A 135      29.025  34.887   7.960  1.00 34.25     0.338 C 
ATOM     12  NZ  LYS A 135      28.912  35.347   6.548  1.00 35.99     0.618 N 
ENDBRANCH  10  11
ENDBRANCH   9  10
ENDBRANCH   8   9
ENDBRANCH   7   8
END_RES LYS A 135
