REMARK VINA RESULT:    -4.436      0.000      0.000
REMARK INTER + INTRA:         -22.766
REMARK INTER:                  -8.239
REMARK INTRA:                 -14.526
REMARK UNBOUND:               -11.069
REMARK SMILES COCC(C(N)=O)n1cc(COC(=O)NC[C@@H](O)C(O)[C@@H]2O[C@@](OC[C@H]3O[C@@H](O[C@H]4[C@H](O)[C@@H](O)[C@H](OCCN=[N+]=[N-])O[C@@H]4CO)[C@H](O)[C@@H](O)[C@H]3O)(C(=O)O)C[C@H](O)[C@H]2NC(C)=O)nn1
REMARK SMILES IDX 23 1 55 2 56 3 58 4 21 5 22 6 24 7 25 8 26 9 28 10 27 11
REMARK SMILES IDX 46 12 48 13 50 14 29 15 30 16 43 17 42 18 35 19 31 20 33 21
REMARK SMILES IDX 44 22 45 23 36 25 37 26 38 27 39 28 40 29 41 30 32 31 34 33
REMARK SMILES IDX 47 35 49 37 51 39 52 41 53 42 54 43 57 45 19 47 20 48 17 50
REMARK SMILES IDX 18 51 16 53 15 54 13 55 14 57 12 58 11 59 10 60 9 61 63 62
REMARK SMILES IDX 8 63 64 64 4 65 3 66 2 67 1 68 5 69 7 70 6 71 59 74 60 75
REMARK SMILES IDX 61 77 62 78
REMARK H PARENT 45 24 32 32 34 34 47 36 49 38 51 40 54 44 57 46 20 49 18 52
REMARK H PARENT 15 56 6 72 6 73 59 76
REMARK Flexibility Score: inf
ROOT
ATOM      1  C   UNL     1      31.267  34.447  14.372  1.00  0.00     0.272 C 
ATOM      2  C   UNL     1      31.899  33.281  15.028  1.00  0.00     0.113 C 
ATOM      3  C   UNL     1      31.046  32.462  15.925  1.00  0.00     0.145 C 
ATOM      4  C   UNL     1      30.110  33.348  16.701  1.00  0.00     0.142 C 
ATOM      5  C   UNL     1      30.652  34.766  16.602  1.00  0.00     0.178 C 
ATOM      6  O   UNL     1      30.556  35.200  15.306  1.00  0.00    -0.332 OA
ENDROOT
BRANCH   1   7
ATOM      7  O   UNL     1      30.425  34.201  13.323  1.00  0.00    -0.338 OA
BRANCH   7   8
ATOM      8  C   UNL     1      29.107  34.473  13.483  1.00  0.00     0.199 C 
BRANCH   8   9
ATOM      9  C   UNL     1      28.440  34.931  12.179  1.00  0.00     0.179 C 
ATOM     10  C   UNL     1      26.193  35.300  12.636  1.00  0.00     0.282 C 
ATOM     11  O   UNL     1      27.157  34.473  12.076  1.00  0.00    -0.341 OA
ATOM     12  C   UNL     1      26.260  36.703  12.141  1.00  0.00     0.202 C 
ATOM     13  C   UNL     1      27.606  37.314  12.349  1.00  0.00     0.179 C 
ATOM     14  C   UNL     1      28.660  36.372  11.887  1.00  0.00     0.177 C 
BRANCH  10  15
ATOM     15  O   UNL     1      26.184  35.245  14.018  1.00  0.00    -0.341 OA
BRANCH  15  16
ATOM     16  C   UNL     1      24.953  34.791  14.489  1.00  0.00     0.184 C 
ATOM     17  C   UNL     1      24.368  35.580  15.598  1.00  0.00     0.178 C 
ATOM     18  O   UNL     1      23.084  35.187  15.885  1.00  0.00    -0.341 OA
ATOM     19  C   UNL     1      22.830  33.832  15.666  1.00  0.00     0.281 C 
ATOM     20  C   UNL     1      25.220  33.380  15.040  1.00  0.00     0.180 C 
ATOM     21  C   UNL     1      24.077  32.998  15.918  1.00  0.00     0.202 C 
BRANCH  17  22
ATOM     22  C   UNL     1      24.321  37.077  15.357  1.00  0.00     0.191 C 
BRANCH  22  23
ATOM     23  O   UNL     1      25.587  37.627  15.547  1.00  0.00    -0.394 OA
ATOM     24  H   UNL     1      25.633  38.566  15.250  1.00  0.00     0.210 HD
ENDBRANCH  22  23
ENDBRANCH  17  22
BRANCH  19  25
ATOM     25  O   UNL     1      22.305  33.659  14.434  1.00  0.00    -0.350 OA
BRANCH  25  26
ATOM     26  C   UNL     1      21.558  32.570  14.146  1.00  0.00     0.169 C 
BRANCH  26  27
ATOM     27  C   UNL     1      21.843  31.836  12.882  1.00  0.00     0.119 C 
BRANCH  27  28
ATOM     28  N   UNL     1      23.132  31.222  12.863  1.00  0.00    -0.092 NA
ATOM     29  N   UNL     1      23.235  30.000  12.918  1.00  0.00     0.001 N 
ATOM     30  N   UNL     1      23.403  28.843  12.498  1.00  0.00    -0.003 NA
ENDBRANCH  27  28
ENDBRANCH  26  27
ENDBRANCH  25  26
ENDBRANCH  19  25
BRANCH  20  31
ATOM     31  O   UNL     1      25.374  32.487  13.981  1.00  0.00    -0.387 OA
ATOM     32  H   UNL     1      25.725  33.014  13.226  1.00  0.00     0.211 HD
ENDBRANCH  20  31
BRANCH  21  33
ATOM     33  O   UNL     1      24.404  33.181  17.279  1.00  0.00    -0.385 OA
ATOM     34  H   UNL     1      23.857  33.934  17.646  1.00  0.00     0.211 HD
ENDBRANCH  21  33
ENDBRANCH  15  16
ENDBRANCH  10  15
BRANCH  12  35
ATOM     35  O   UNL     1      26.048  36.655  10.750  1.00  0.00    -0.385 OA
ATOM     36  H   UNL     1      25.259  36.115  10.535  1.00  0.00     0.211 HD
ENDBRANCH  12  35
BRANCH  13  37
ATOM     37  O   UNL     1      27.789  37.786  13.648  1.00  0.00    -0.387 OA
ATOM     38  H   UNL     1      27.293  37.164  14.246  1.00  0.00     0.211 HD
ENDBRANCH  13  37
BRANCH  14  39
ATOM     39  O   UNL     1      29.912  36.742  12.381  1.00  0.00    -0.387 OA
ATOM     40  H   UNL     1      30.267  36.046  12.995  1.00  0.00     0.211 HD
ENDBRANCH  14  39
ENDBRANCH   8   9
ENDBRANCH   7   8
ENDBRANCH   1   7
BRANCH   1  41
ATOM     41  C   UNL     1      32.382  35.363  13.934  1.00  0.00     0.364 C 
ATOM     42  O   UNL     1      32.604  36.442  14.515  1.00  0.00    -0.246 OA
BRANCH  41  43
ATOM     43  O   UNL     1      33.158  34.984  12.871  1.00  0.00    -0.477 OA
ATOM     44  H   UNL     1      32.898  35.156  11.912  1.00  0.00     0.296 HD
ENDBRANCH  41  43
ENDBRANCH   1  41
BRANCH   3  45
ATOM     45  O   UNL     1      30.379  31.423  15.283  1.00  0.00    -0.391 OA
ATOM     46  H   UNL     1      30.884  31.142  14.480  1.00  0.00     0.211 HD
ENDBRANCH   3  45
BRANCH   5  47
ATOM     47  C   UNL     1      29.848  35.682  17.504  1.00  0.00     0.176 C 
BRANCH  47  48
ATOM     48  O   UNL     1      30.387  36.926  17.630  1.00  0.00    -0.388 OA
ATOM     49  H   UNL     1      30.693  37.379  16.833  1.00  0.00     0.211 HD
ENDBRANCH  47  48
BRANCH  47  50
ATOM     50  C   UNL     1      28.427  35.771  17.018  1.00  0.00     0.165 C 
BRANCH  50  51
ATOM     51  O   UNL     1      28.330  36.989  16.301  1.00  0.00    -0.388 OA
ATOM     52  H   UNL     1      27.976  36.800  15.389  1.00  0.00     0.211 HD
ENDBRANCH  50  51
BRANCH  50  53
ATOM     53  C   UNL     1      27.402  35.842  18.099  1.00  0.00     0.154 C 
BRANCH  53  54
ATOM     54  N   UNL     1      26.834  37.127  18.340  1.00  0.00    -0.319 N 
ATOM     55  C   UNL     1      27.370  38.047  19.281  1.00  0.00     0.407 C 
ATOM     56  H   UNL     1      25.975  37.444  17.813  1.00  0.00     0.167 HD
ATOM     57  O   UNL     1      28.376  37.729  19.933  1.00  0.00    -0.225 OA
BRANCH  55  58
ATOM     58  O   UNL     1      26.794  39.304  19.497  1.00  0.00    -0.443 OA
BRANCH  58  59
ATOM     59  C   UNL     1      27.327  40.478  18.961  1.00  0.00     0.294 C 
BRANCH  59  60
ATOM     60  C   UNL     1      27.829  40.361  17.587  1.00  0.00     0.120 A 
ATOM     61  C   UNL     1      29.074  40.771  17.180  1.00  0.00     0.139 A 
ATOM     62  N   UNL     1      27.169  39.846  16.542  1.00  0.00    -0.132 NA
ATOM     63  N   UNL     1      29.143  40.494  15.876  1.00  0.00    -0.237 N 
ATOM     64  N   UNL     1      27.987  39.936  15.506  1.00  0.00    -0.066 NA
BRANCH  63  65
ATOM     65  C   UNL     1      30.285  40.758  15.022  1.00  0.00     0.223 C 
BRANCH  65  66
ATOM     66  C   UNL     1      31.452  41.112  15.885  1.00  0.00     0.197 C 
BRANCH  66  67
ATOM     67  O   UNL     1      32.147  42.190  15.396  1.00  0.00    -0.382 OA
ATOM     68  C   UNL     1      33.175  42.547  16.228  1.00  0.00     0.195 C 
ENDBRANCH  66  67
ENDBRANCH  65  66
BRANCH  65  69
ATOM     69  C   UNL     1      30.551  39.490  14.264  1.00  0.00     0.244 C 
ATOM     70  O   UNL     1      30.807  39.563  13.046  1.00  0.00    -0.273 OA
ATOM     71  N   UNL     1      30.504  38.254  14.956  1.00  0.00    -0.368 N 
ATOM     72  H   UNL     1      29.741  37.563  14.861  1.00  0.00     0.159 HD
ATOM     73  H   UNL     1      31.292  38.033  15.602  1.00  0.00     0.159 HD
ENDBRANCH  65  69
ENDBRANCH  63  65
ENDBRANCH  59  60
ENDBRANCH  58  59
ENDBRANCH  55  58
ENDBRANCH  53  54
ENDBRANCH  50  53
ENDBRANCH  47  50
ENDBRANCH   5  47
BRANCH   4  74
ATOM     74  N   UNL     1      29.995  32.908  18.090  1.00  0.00    -0.348 N 
ATOM     75  C   UNL     1      29.041  31.951  18.532  1.00  0.00     0.217 C 
ATOM     76  H   UNL     1      30.637  33.297  18.825  1.00  0.00     0.163 HD
ATOM     77  C   UNL     1      28.908  31.492  19.924  1.00  0.00     0.114 C 
ATOM     78  O   UNL     1      28.256  31.466  17.649  1.00  0.00    -0.275 OA
ENDBRANCH   4  74
TORSDOF 33
BEGIN_RES LYS A 131
REMARK  4 active torsions:
REMARK  status: ('A' for Active; 'I' for Inactive)
REMARK    1  A    between atoms: CA   and  CB  
REMARK    2  A    between atoms: CB   and  CG  
REMARK    3  A    between atoms: CG   and  CD  
REMARK    4  A    between atoms: CD   and  CE  
ROOT
ATOM      1  CA  LYS A 131      29.867  25.555  16.977  1.00 20.52     0.186 C 
ENDROOT
BRANCH   1   2
ATOM      2  CB  LYS A 131      28.345  25.722  17.026  1.00 20.94     0.034 C 
BRANCH   2   3
ATOM      3  CG  LYS A 131      27.601  24.403  16.887  1.00 22.96     0.005 C 
BRANCH   3   4
ATOM      4  CD  LYS A 131      26.595  24.201  17.987  1.00 24.33     0.041 C 
BRANCH   4   5
ATOM      5  CE  LYS A 131      25.621  23.097  17.589  1.00 26.91     0.338 C 
ATOM      6  NZ  LYS A 131      24.408  23.676  16.964  1.00 27.40     0.618 N 
ENDBRANCH   4   5
ENDBRANCH   3   4
ENDBRANCH   2   3
ENDBRANCH   1   2
END_RES LYS A 131
BEGIN_RES LYS A 135
REMARK  4 active torsions:
REMARK  status: ('A' for Active; 'I' for Inactive)
REMARK    5  A    between atoms: CA   and  CB  
REMARK    6  A    between atoms: CB   and  CG  
REMARK    7  A    between atoms: CG   and  CD  
REMARK    8  A    between atoms: CD   and  CE  
ROOT
ATOM      7  CA  LYS A 135      33.193  34.663   9.290  1.00 25.02     0.186 C 
ENDROOT
BRANCH   7   8
ATOM      8  CB  LYS A 135      32.060  35.360  10.034  1.00 26.63     0.034 C 
BRANCH   8   9
ATOM      9  CG  LYS A 135      30.879  35.691   9.159  1.00 29.45     0.005 C 
BRANCH   9  10
ATOM     10  CD  LYS A 135      30.114  34.429   8.789  1.00 32.00     0.041 C 
BRANCH  10  11
ATOM     11  CE  LYS A 135      28.846  34.777   8.034  1.00 34.25     0.338 C 
ATOM     12  NZ  LYS A 135      27.641  34.263   8.743  1.00 35.99     0.618 N 
ENDBRANCH  10  11
ENDBRANCH   9  10
ENDBRANCH   8   9
ENDBRANCH   7   8
END_RES LYS A 135
