REMARK VINA RESULT:    -4.780      2.284      3.752
REMARK INTER + INTRA:         -21.906
REMARK INTER:                 -11.525
REMARK INTRA:                 -10.382
REMARK UNBOUND:                -9.861
REMARK SMILES CC(=O)N[C@@H]1[C@@H](O)C[C@](OC[C@H]2O[C@@H](O[C@H]3[C@H](O)[C@@H](O)[C@H](OCCN=[N+]=[N-])O[C@@H]3CO)[C@H](O)[C@@H](O)[C@H]2O)(C(=O)O)O[C@H]1C(O)[C@H](O)CNC(=O)OCc1cn(-c2ccc([N+](=O)[O-])cc2)nn1
REMARK SMILES IDX 9 1 8 2 6 3 5 4 42 5 41 6 10 7 11 8 12 9 14 10 13 11 32 12
REMARK SMILES IDX 34 13 36 14 15 15 16 16 29 17 28 18 21 19 17 20 19 21 30 22
REMARK SMILES IDX 31 23 22 25 23 26 24 27 25 28 26 29 27 30 18 31 20 33 33 35
REMARK SMILES IDX 35 37 37 39 38 41 39 42 40 43 7 45 43 47 44 48 45 50 46 51
REMARK SMILES IDX 47 53 48 54 49 55 50 57 51 58 52 59 53 60 54 61 66 62 55 63
REMARK SMILES IDX 65 64 56 65 57 66 64 67 58 68 63 69 59 70 60 71 61 72 62 73
REMARK SMILES IDX 4 74 2 75 1 77 3 78
REMARK H PARENT 31 24 18 32 20 34 33 36 35 38 37 40 40 44 7 46 44 49 46 52
REMARK H PARENT 48 56 4 76
REMARK Flexibility Score: inf
ROOT
ATOM      1  C   UNL     1      27.670  38.956   5.919  1.00  0.00     0.272 C 
ATOM      2  C   UNL     1      27.371  37.571   5.444  1.00  0.00     0.113 C 
ATOM      3  C   UNL     1      27.939  36.582   6.369  1.00  0.00     0.145 C 
ATOM      4  C   UNL     1      28.949  37.127   7.395  1.00  0.00     0.142 C 
ATOM      5  C   UNL     1      29.729  38.188   6.774  1.00  0.00     0.178 C 
ATOM      6  O   UNL     1      29.044  39.104   5.981  1.00  0.00    -0.332 OA
ENDROOT
BRANCH   1   7
ATOM      7  O   UNL     1      27.017  39.348   7.046  1.00  0.00    -0.338 OA
BRANCH   7   8
ATOM      8  C   UNL     1      27.423  40.508   7.622  1.00  0.00     0.199 C 
BRANCH   8   9
ATOM      9  C   UNL     1      26.866  40.666   9.031  1.00  0.00     0.179 C 
ATOM     10  C   UNL     1      26.419  38.541   9.899  1.00  0.00     0.282 C 
ATOM     11  O   UNL     1      25.953  39.701   9.364  1.00  0.00    -0.341 OA
ATOM     12  C   UNL     1      27.866  38.404  10.144  1.00  0.00     0.202 C 
ATOM     13  C   UNL     1      28.464  39.686  10.658  1.00  0.00     0.179 C 
ATOM     14  C   UNL     1      27.887  40.929  10.080  1.00  0.00     0.177 C 
BRANCH  10  15
ATOM     15  O   UNL     1      25.861  37.494   9.172  1.00  0.00    -0.341 OA
BRANCH  15  16
ATOM     16  C   UNL     1      24.539  37.252   9.345  1.00  0.00     0.184 C 
ATOM     17  C   UNL     1      24.226  35.886   9.913  1.00  0.00     0.178 C 
ATOM     18  O   UNL     1      22.824  35.749   9.982  1.00  0.00    -0.341 OA
ATOM     19  C   UNL     1      22.322  35.575   8.692  1.00  0.00     0.281 C 
ATOM     20  C   UNL     1      23.919  37.222   7.934  1.00  0.00     0.180 C 
ATOM     21  C   UNL     1      22.430  36.964   8.048  1.00  0.00     0.202 C 
BRANCH  17  22
ATOM     22  C   UNL     1      24.732  35.667  11.315  1.00  0.00     0.191 C 
BRANCH  22  23
ATOM     23  O   UNL     1      26.085  35.276  11.162  1.00  0.00    -0.394 OA
ATOM     24  H   UNL     1      26.693  35.998  11.474  1.00  0.00     0.210 HD
ENDBRANCH  22  23
ENDBRANCH  17  22
BRANCH  19  25
ATOM     25  O   UNL     1      21.000  35.220   8.736  1.00  0.00    -0.350 OA
BRANCH  25  26
ATOM     26  C   UNL     1      20.414  35.227   9.976  1.00  0.00     0.169 C 
BRANCH  26  27
ATOM     27  C   UNL     1      19.266  36.185  10.133  1.00  0.00     0.119 C 
BRANCH  27  28
ATOM     28  N   UNL     1      18.887  36.668   8.804  1.00  0.00    -0.092 NA
ATOM     29  N   UNL     1      18.897  37.869   8.575  1.00  0.00     0.001 N 
ATOM     30  N   UNL     1      19.141  39.035   8.310  1.00  0.00    -0.003 NA
ENDBRANCH  27  28
ENDBRANCH  26  27
ENDBRANCH  25  26
ENDBRANCH  19  25
BRANCH  20  31
ATOM     31  O   UNL     1      24.221  38.344   7.214  1.00  0.00    -0.387 OA
ATOM     32  H   UNL     1      24.320  39.166   7.732  1.00  0.00     0.211 HD
ENDBRANCH  20  31
BRANCH  21  33
ATOM     33  O   UNL     1      21.851  37.009   6.809  1.00  0.00    -0.385 OA
ATOM     34  H   UNL     1      22.543  37.223   6.138  1.00  0.00     0.211 HD
ENDBRANCH  21  33
ENDBRANCH  15  16
ENDBRANCH  10  15
BRANCH  12  35
ATOM     35  O   UNL     1      28.063  37.481  11.190  1.00  0.00    -0.385 OA
ATOM     36  H   UNL     1      27.429  36.740  11.147  1.00  0.00     0.211 HD
ENDBRANCH  12  35
BRANCH  13  37
ATOM     37  O   UNL     1      29.868  39.635  10.483  1.00  0.00    -0.387 OA
ATOM     38  H   UNL     1      30.106  40.330   9.848  1.00  0.00     0.211 HD
ENDBRANCH  13  37
BRANCH  14  39
ATOM     39  O   UNL     1      28.820  41.844   9.613  1.00  0.00    -0.387 OA
ATOM     40  H   UNL     1      28.476  42.751   9.841  1.00  0.00     0.211 HD
ENDBRANCH  14  39
ENDBRANCH   8   9
ENDBRANCH   7   8
ENDBRANCH   1   7
BRANCH   1  41
ATOM     41  C   UNL     1      27.298  39.910   4.803  1.00  0.00     0.364 C 
ATOM     42  O   UNL     1      28.188  40.477   4.140  1.00  0.00    -0.246 OA
BRANCH  41  43
ATOM     43  O   UNL     1      25.980  40.150   4.530  1.00  0.00    -0.477 OA
ATOM     44  H   UNL     1      25.225  39.484   4.670  1.00  0.00     0.296 HD
ENDBRANCH  41  43
ENDBRANCH   1  41
BRANCH   3  45
ATOM     45  O   UNL     1      26.940  35.956   7.112  1.00  0.00    -0.391 OA
ATOM     46  H   UNL     1      26.095  36.442   7.046  1.00  0.00     0.211 HD
ENDBRANCH   3  45
BRANCH   5  47
ATOM     47  C   UNL     1      30.688  39.008   7.519  1.00  0.00     0.176 C 
BRANCH  47  48
ATOM     48  O   UNL     1      31.531  38.329   8.404  1.00  0.00    -0.388 OA
ATOM     49  H   UNL     1      31.172  37.497   8.756  1.00  0.00     0.211 HD
ENDBRANCH  47  48
BRANCH  47  50
ATOM     50  C   UNL     1      31.555  40.002   6.817  1.00  0.00     0.165 C 
BRANCH  50  51
ATOM     51  O   UNL     1      32.130  39.600   5.651  1.00  0.00    -0.388 OA
ATOM     52  H   UNL     1      33.076  39.887   5.567  1.00  0.00     0.211 HD
ENDBRANCH  50  51
BRANCH  50  53
ATOM     53  C   UNL     1      32.401  40.820   7.755  1.00  0.00     0.154 C 
BRANCH  53  54
ATOM     54  N   UNL     1      31.667  41.556   8.751  1.00  0.00    -0.319 N 
ATOM     55  C   UNL     1      32.069  42.803   9.285  1.00  0.00     0.407 C 
ATOM     56  H   UNL     1      30.762  41.173   9.134  1.00  0.00     0.167 HD
ATOM     57  O   UNL     1      33.121  43.324   8.903  1.00  0.00    -0.225 OA
BRANCH  55  58
ATOM     58  O   UNL     1      31.308  43.471  10.246  1.00  0.00    -0.443 OA
BRANCH  58  59
ATOM     59  C   UNL     1      31.648  43.556  11.605  1.00  0.00     0.294 C 
BRANCH  59  60
ATOM     60  C   UNL     1      30.858  42.593  12.400  1.00  0.00     0.121 A 
ATOM     61  C   UNL     1      31.272  41.386  12.959  1.00  0.00     0.144 A 
ATOM     62  N   UNL     1      29.547  42.697  12.769  1.00  0.00    -0.131 NA
ATOM     63  N   UNL     1      30.246  40.821  13.622  1.00  0.00    -0.220 N 
ATOM     64  N   UNL     1      29.223  41.636  13.487  1.00  0.00    -0.062 NA
BRANCH  63  65
ATOM     65  C   UNL     1      30.257  39.586  14.345  1.00  0.00     0.067 A 
ATOM     66  C   UNL     1      29.363  38.564  14.127  1.00  0.00     0.035 A 
ATOM     67  C   UNL     1      31.209  39.389  15.335  1.00  0.00     0.035 A 
ATOM     68  C   UNL     1      29.412  37.385  14.868  1.00  0.00     0.088 A 
ATOM     69  C   UNL     1      31.261  38.223  16.070  1.00  0.00     0.088 A 
ATOM     70  C   UNL     1      30.365  37.198  15.853  1.00  0.00     0.269 A 
BRANCH  70  71
ATOM     71  N   UNL     1      30.404  35.991  16.606  1.00  0.00     0.062 N 
ATOM     72  O   UNL     1      29.421  35.498  17.182  1.00  0.00    -0.258 OA
ATOM     73  O   UNL     1      31.604  35.334  16.699  1.00  0.00    -0.258 OA
ENDBRANCH  70  71
ENDBRANCH  63  65
ENDBRANCH  59  60
ENDBRANCH  58  59
ENDBRANCH  55  58
ENDBRANCH  53  54
ENDBRANCH  50  53
ENDBRANCH  47  50
ENDBRANCH   5  47
BRANCH   4  74
ATOM     74  N   UNL     1      29.797  35.940   7.591  1.00  0.00    -0.348 N 
ATOM     75  C   UNL     1      29.607  35.040   8.654  1.00  0.00     0.217 C 
ATOM     76  H   UNL     1      30.552  35.776   6.902  1.00  0.00     0.163 HD
ATOM     77  C   UNL     1      30.527  33.868   8.765  1.00  0.00     0.114 C 
ATOM     78  O   UNL     1      28.709  35.182   9.498  1.00  0.00    -0.275 OA
ENDBRANCH   4  74
TORSDOF 31
BEGIN_RES LYS A 131
REMARK  4 active torsions:
REMARK  status: ('A' for Active; 'I' for Inactive)
REMARK    1  A    between atoms: CA   and  CB  
REMARK    2  A    between atoms: CB   and  CG  
REMARK    3  A    between atoms: CG   and  CD  
REMARK    4  A    between atoms: CD   and  CE  
ROOT
ATOM      1  CA  LYS A 131      29.867  25.555  16.977  1.00 20.52     0.186 C 
ENDROOT
BRANCH   1   2
ATOM      2  CB  LYS A 131      28.345  25.722  17.026  1.00 20.94     0.034 C 
BRANCH   2   3
ATOM      3  CG  LYS A 131      27.601  24.404  16.875  1.00 22.96     0.005 C 
BRANCH   3   4
ATOM      4  CD  LYS A 131      26.538  24.230  17.924  1.00 24.33     0.041 C 
BRANCH   4   5
ATOM      5  CE  LYS A 131      25.216  23.870  17.255  1.00 26.91     0.338 C 
ATOM      6  NZ  LYS A 131      24.784  22.511  17.657  1.00 27.40     0.618 N 
ENDBRANCH   4   5
ENDBRANCH   3   4
ENDBRANCH   2   3
ENDBRANCH   1   2
END_RES LYS A 131
BEGIN_RES LYS A 135
REMARK  4 active torsions:
REMARK  status: ('A' for Active; 'I' for Inactive)
REMARK    5  A    between atoms: CA   and  CB  
REMARK    6  A    between atoms: CB   and  CG  
REMARK    7  A    between atoms: CG   and  CD  
REMARK    8  A    between atoms: CD   and  CE  
ROOT
ATOM      7  CA  LYS A 135      33.193  34.663   9.290  1.00 25.02     0.186 C 
ENDROOT
BRANCH   7   8
ATOM      8  CB  LYS A 135      32.060  35.360  10.034  1.00 26.63     0.034 C 
BRANCH   8   9
ATOM      9  CG  LYS A 135      32.532  36.241  11.162  1.00 29.45     0.005 C 
BRANCH   9  10
ATOM     10  CD  LYS A 135      32.059  35.698  12.501  1.00 32.00     0.041 C 
BRANCH  10  11
ATOM     11  CE  LYS A 135      30.769  34.919  12.334  1.00 34.25     0.338 C 
ATOM     12  NZ  LYS A 135      30.427  34.175  13.578  1.00 35.99     0.618 N 
ENDBRANCH  10  11
ENDBRANCH   9  10
ENDBRANCH   8   9
ENDBRANCH   7   8
END_RES LYS A 135
