REMARK VINA RESULT:    -6.669      3.531      8.939
REMARK INTER + INTRA:         -19.777
REMARK INTER:                 -10.928
REMARK INTRA:                  -8.849
REMARK UNBOUND:                -1.022
REMARK SMILES CC(=O)N[C@@H]1[C@@H](O)C[C@](OC[C@H]2O[C@@H](O[C@H]3[C@H](O)[C@@H](O)[C@H](OCCN=[N+]=[N-])O[C@@H]3CO)[C@H](O)[C@@H](O)[C@H]2O)(C(=O)O)O[C@H]1C(O)[C@H](O)CNC(=O)OCc1cn(C2CC(O)C=C[C@@H](O)C2)nn1
REMARK SMILES IDX 43 1 42 2 9 3 8 4 41 5 6 6 5 7 10 8 11 9 12 10 14 11 13 12
REMARK SMILES IDX 32 13 34 14 36 15 15 16 16 17 29 18 28 19 21 20 17 21 19 22
REMARK SMILES IDX 30 23 31 24 22 26 23 27 24 28 25 29 26 30 27 31 18 32 20 34
REMARK SMILES IDX 33 36 35 38 37 40 38 42 39 43 40 44 7 46 4 48 2 49 1 51 3 52
REMARK SMILES IDX 44 53 45 55 46 56 47 58 48 59 49 60 50 62 51 63 52 64 53 65
REMARK SMILES IDX 54 66 66 67 55 68 65 69 56 70 57 71 58 72 59 74 64 76 62 77
REMARK SMILES IDX 61 78 60 79 63 81
REMARK H PARENT 31 25 18 33 20 35 33 37 35 39 37 41 40 45 7 47 4 50 44 54
REMARK H PARENT 46 57 48 61 59 75 63 82
REMARK Flexibility Score: 90.00
ROOT
ATOM      1  C   UNL     1      25.736  36.578   9.438  1.00  0.00     0.176 C 
ENDROOT
BRANCH   1   2
ATOM      2  C   UNL     1      24.329  36.079   9.717  1.00  0.00     0.178 C 
ATOM      3  C   UNL     1      22.146  36.930   9.496  1.00  0.00     0.272 C 
ATOM      4  C   UNL     1      21.610  35.914  10.436  1.00  0.00     0.113 C 
ATOM      5  O   UNL     1      23.465  37.187   9.482  1.00  0.00    -0.332 OA
ATOM      6  C   UNL     1      22.611  34.943  10.947  1.00  0.00     0.145 C 
ATOM      7  C   UNL     1      24.009  35.626  11.075  1.00  0.00     0.142 C 
BRANCH   3   8
ATOM      8  O   UNL     1      21.389  38.109   9.653  1.00  0.00    -0.338 OA
BRANCH   8   9
ATOM      9  C   UNL     1      21.684  38.836  10.769  1.00  0.00     0.199 C 
BRANCH   9  10
ATOM     10  C   UNL     1      21.902  40.309  10.420  1.00  0.00     0.179 C 
ATOM     11  C   UNL     1      22.903  41.343   8.613  1.00  0.00     0.282 C 
ATOM     12  O   UNL     1      23.005  40.392   9.630  1.00  0.00    -0.341 OA
ATOM     13  C   UNL     1      21.806  40.813   7.709  1.00  0.00     0.202 C 
ATOM     14  C   UNL     1      20.508  41.041   8.449  1.00  0.00     0.179 C 
ATOM     15  C   UNL     1      20.655  40.963   9.935  1.00  0.00     0.177 C 
BRANCH  11  16
ATOM     16  O   UNL     1      24.123  41.470   7.994  1.00  0.00    -0.341 OA
BRANCH  16  17
ATOM     17  C   UNL     1      25.082  41.880   8.925  1.00  0.00     0.184 C 
ATOM     18  C   UNL     1      25.289  43.371   8.836  1.00  0.00     0.178 C 
ATOM     19  O   UNL     1      26.029  43.784   7.758  1.00  0.00    -0.341 OA
ATOM     20  C   UNL     1      26.583  42.743   7.015  1.00  0.00     0.281 C 
ATOM     21  C   UNL     1      26.369  41.109   8.812  1.00  0.00     0.180 C 
ATOM     22  C   UNL     1      27.367  41.814   7.934  1.00  0.00     0.202 C 
BRANCH  18  23
ATOM     23  C   UNL     1      25.903  43.906  10.123  1.00  0.00     0.191 C 
BRANCH  23  24
ATOM     24  O   UNL     1      26.948  44.778   9.880  1.00  0.00    -0.394 OA
ATOM     25  H   UNL     1      27.708  44.638  10.467  1.00  0.00     0.210 HD
ENDBRANCH  23  24
ENDBRANCH  18  23
BRANCH  20  26
ATOM     26  O   UNL     1      27.438  43.341   6.094  1.00  0.00    -0.350 OA
BRANCH  26  27
ATOM     27  C   UNL     1      26.836  43.302   4.841  1.00  0.00     0.169 C 
BRANCH  27  28
ATOM     28  C   UNL     1      25.719  42.274   4.797  1.00  0.00     0.119 C 
BRANCH  28  29
ATOM     29  N   UNL     1      25.997  41.252   3.809  1.00  0.00    -0.092 NA
ATOM     30  N   UNL     1      26.785  40.336   4.098  1.00  0.00     0.001 N 
ATOM     31  N   UNL     1      27.659  39.543   4.472  1.00  0.00    -0.003 NA
ENDBRANCH  28  29
ENDBRANCH  27  28
ENDBRANCH  26  27
ENDBRANCH  20  26
BRANCH  21  32
ATOM     32  O   UNL     1      26.918  40.897  10.077  1.00  0.00    -0.387 OA
ATOM     33  H   UNL     1      26.403  40.235  10.597  1.00  0.00     0.211 HD
ENDBRANCH  21  32
BRANCH  22  34
ATOM     34  O   UNL     1      28.090  40.906   7.169  1.00  0.00    -0.385 OA
ATOM     35  H   UNL     1      28.062  40.001   7.576  1.00  0.00     0.211 HD
ENDBRANCH  22  34
ENDBRANCH  16  17
ENDBRANCH  11  16
BRANCH  13  36
ATOM     36  O   UNL     1      21.760  41.399   6.472  1.00  0.00    -0.385 OA
ATOM     37  H   UNL     1      22.622  41.599   6.073  1.00  0.00     0.211 HD
ENDBRANCH  13  36
BRANCH  14  38
ATOM     38  O   UNL     1      19.592  40.117   7.946  1.00  0.00    -0.387 OA
ATOM     39  H   UNL     1      19.927  39.185   8.061  1.00  0.00     0.211 HD
ENDBRANCH  14  38
BRANCH  15  40
ATOM     40  O   UNL     1      19.574  40.249  10.489  1.00  0.00    -0.387 OA
ATOM     41  H   UNL     1      19.612  39.296  10.322  1.00  0.00     0.211 HD
ENDBRANCH  15  40
ENDBRANCH   9  10
ENDBRANCH   8   9
ENDBRANCH   3   8
BRANCH   3  42
ATOM     42  C   UNL     1      21.798  36.431   8.110  1.00  0.00     0.364 C 
ATOM     43  O   UNL     1      21.070  35.421   7.919  1.00  0.00    -0.246 OA
BRANCH  42  44
ATOM     44  O   UNL     1      22.313  37.130   7.030  1.00  0.00    -0.477 OA
ATOM     45  H   UNL     1      22.967  36.692   6.383  1.00  0.00     0.296 HD
ENDBRANCH  42  44
ENDBRANCH   3  42
BRANCH   6  46
ATOM     46  O   UNL     1      22.236  34.408  12.154  1.00  0.00    -0.391 OA
ATOM     47  H   UNL     1      21.910  33.491  12.032  1.00  0.00     0.211 HD
ENDBRANCH   6  46
BRANCH   7  48
ATOM     48  N   UNL     1      24.868  34.763  11.790  1.00  0.00    -0.348 N 
ATOM     49  C   UNL     1      25.146  35.006  13.159  1.00  0.00     0.217 C 
ATOM     50  H   UNL     1      25.284  33.926  11.342  1.00  0.00     0.163 HD
ATOM     51  C   UNL     1      26.047  34.112  13.932  1.00  0.00     0.114 C 
ATOM     52  O   UNL     1      24.624  35.992  13.732  1.00  0.00    -0.275 OA
ENDBRANCH   7  48
ENDBRANCH   1   2
BRANCH   1  53
ATOM     53  O   UNL     1      25.935  37.457  10.592  1.00  0.00    -0.388 OA
ATOM     54  H   UNL     1      26.139  38.376  10.231  1.00  0.00     0.211 HD
ENDBRANCH   1  53
BRANCH   1  55
ATOM     55  C   UNL     1      25.829  37.558   8.304  1.00  0.00     0.165 C 
BRANCH  55  56
ATOM     56  O   UNL     1      25.160  37.126   7.185  1.00  0.00    -0.388 OA
ATOM     57  H   UNL     1      24.210  36.922   7.338  1.00  0.00     0.211 HD
ENDBRANCH  55  56
BRANCH  55  58
ATOM     58  C   UNL     1      27.281  37.766   7.888  1.00  0.00     0.154 C 
BRANCH  58  59
ATOM     59  N   UNL     1      28.155  38.105   8.964  1.00  0.00    -0.319 N 
ATOM     60  C   UNL     1      29.567  38.187   8.819  1.00  0.00     0.407 C 
ATOM     61  H   UNL     1      27.750  38.309   9.926  1.00  0.00     0.167 HD
ATOM     62  O   UNL     1      30.038  37.939   7.671  1.00  0.00    -0.225 OA
BRANCH  60  63
ATOM     63  O   UNL     1      30.360  38.521   9.893  1.00  0.00    -0.443 OA
BRANCH  63  64
ATOM     64  C   UNL     1      29.815  38.574  11.208  1.00  0.00     0.294 C 
BRANCH  64  65
ATOM     65  C   UNL     1      30.607  37.663  12.064  1.00  0.00     0.120 A 
ATOM     66  C   UNL     1      30.235  37.059  13.237  1.00  0.00     0.138 A 
ATOM     67  N   UNL     1      31.870  37.270  11.821  1.00  0.00    -0.132 NA
ATOM     68  N   UNL     1      31.289  36.321  13.668  1.00  0.00    -0.249 N 
ATOM     69  N   UNL     1      32.259  36.470  12.791  1.00  0.00    -0.067 NA
BRANCH  68  70
ATOM     70  C   UNL     1      31.344  35.508  14.891  1.00  0.00     0.115 C 
BRANCH  70  71
ATOM     71  C   UNL     1      30.528  36.177  15.945  1.00  0.00     0.063 C 
BRANCH  71  72
ATOM     72  C   UNL     1      31.070  35.777  17.321  1.00  0.00     0.139 CG0
ATOM     73  G   UNL     1      30.697  34.380  17.597  1.00  0.00     0.000 G0
BRANCH  72  74
ATOM     74  O   UNL     1      30.570  36.638  18.296  1.00  0.00    -0.389 OA
ATOM     75  H   UNL     1      31.132  36.530  19.115  1.00  0.00     0.211 HD
ENDBRANCH  72  74
ENDBRANCH  71  72
ENDBRANCH  70  71
BRANCH  70  76
ATOM     76  C   UNL     1      30.818  34.142  14.576  1.00  0.00     0.063 C 
BRANCH  76  77
ATOM     77  C   UNL     1      31.504  33.174  15.546  1.00  0.00     0.139 C 
BRANCH  77  78
ATOM     78  C   UNL     1      30.849  33.257  16.879  1.00  0.00     0.002 C 
ATOM     79  C   UNL     1      30.684  34.355  17.602  1.00  0.00     0.002 CG0
ATOM     80  G   UNL     1      31.081  35.742  17.310  1.00  0.00     0.000 G0
ENDBRANCH  77  78
BRANCH  77  81
ATOM     81  O   UNL     1      31.505  31.876  15.059  1.00  0.00    -0.389 OA
ATOM     82  H   UNL     1      30.573  31.527  15.141  1.00  0.00     0.211 HD
ENDBRANCH  77  81
ENDBRANCH  76  77
ENDBRANCH  70  76
ENDBRANCH  68  70
ENDBRANCH  64  65
ENDBRANCH  63  64
ENDBRANCH  60  63
ENDBRANCH  58  59
ENDBRANCH  55  58
ENDBRANCH   1  55
TORSDOF 32
BEGIN_RES LYS A 131
REMARK  4 active torsions:
REMARK  status: ('A' for Active; 'I' for Inactive)
REMARK    1  A    between atoms: CA   and  CB  
REMARK    2  A    between atoms: CB   and  CG  
REMARK    3  A    between atoms: CG   and  CD  
REMARK    4  A    between atoms: CD   and  CE  
ROOT
ATOM      1  CA  LYS A 131      29.867  25.555  16.977  1.00 20.52     0.186 C 
ENDROOT
BRANCH   1   2
ATOM      2  CB  LYS A 131      28.345  25.722  17.026  1.00 20.94     0.034 C 
BRANCH   2   3
ATOM      3  CG  LYS A 131      27.611  24.401  17.198  1.00 22.96     0.005 C 
BRANCH   3   4
ATOM      4  CD  LYS A 131      26.124  24.591  17.321  1.00 24.33     0.041 C 
BRANCH   4   5
ATOM      5  CE  LYS A 131      25.499  23.336  17.921  1.00 26.91     0.338 C 
ATOM      6  NZ  LYS A 131      26.087  22.120  17.309  1.00 27.40     0.618 N 
ENDBRANCH   4   5
ENDBRANCH   3   4
ENDBRANCH   2   3
ENDBRANCH   1   2
END_RES LYS A 131
BEGIN_RES LYS A 135
REMARK  4 active torsions:
REMARK  status: ('A' for Active; 'I' for Inactive)
REMARK    5  A    between atoms: CA   and  CB  
REMARK    6  A    between atoms: CB   and  CG  
REMARK    7  A    between atoms: CG   and  CD  
REMARK    8  A    between atoms: CD   and  CE  
ROOT
ATOM      7  CA  LYS A 135      33.193  34.663   9.290  1.00 25.02     0.186 C 
ENDROOT
BRANCH   7   8
ATOM      8  CB  LYS A 135      32.060  35.360  10.034  1.00 26.63     0.034 C 
BRANCH   8   9
ATOM      9  CG  LYS A 135      30.735  34.651   9.915  1.00 29.45     0.005 C 
BRANCH   9  10
ATOM     10  CD  LYS A 135      30.336  34.502   8.456  1.00 32.00     0.041 C 
BRANCH  10  11
ATOM     11  CE  LYS A 135      28.826  34.503   8.314  1.00 34.25     0.338 C 
ATOM     12  NZ  LYS A 135      28.182  33.759   9.432  1.00 35.99     0.618 N 
ENDBRANCH  10  11
ENDBRANCH   9  10
ENDBRANCH   8   9
ENDBRANCH   7   8
END_RES LYS A 135
