REMARK VINA RESULT:    -4.371      4.506      9.045
REMARK INTER + INTRA:         -22.777
REMARK INTER:                 -12.027
REMARK INTRA:                 -10.750
REMARK UNBOUND:               -11.507
REMARK SMILES COc1ccc(Cn2cc(COC(=O)NC[C@@H](O)C(O)[C@@H]3O[C@@](OC[C@H]4O[C@@H](O[C@H]5[C@H](O)[C@@H](O)[C@H](OCCN=[N+]=[N-])O[C@@H]5CO)[C@H](O)[C@@H](O)[C@H]4O)(C(=O)O)C[C@H](O)[C@H]3NC(C)=O)nn2)cc1
REMARK SMILES IDX 23 1 55 2 56 3 58 4 21 5 22 6 24 7 25 8 26 9 28 10 27 11
REMARK SMILES IDX 46 12 48 13 50 14 29 15 30 16 43 17 42 18 35 19 31 20 33 21
REMARK SMILES IDX 44 22 45 23 36 25 37 26 38 27 39 28 40 29 41 30 32 31 34 33
REMARK SMILES IDX 47 35 49 37 51 39 52 41 53 42 54 43 57 45 19 47 20 48 17 50
REMARK SMILES IDX 18 51 16 53 15 54 13 55 14 57 12 58 11 59 10 60 9 61 63 62
REMARK SMILES IDX 8 63 64 64 7 65 6 66 5 67 65 68 4 69 66 70 3 71 2 72 1 73
REMARK SMILES IDX 59 74 60 75 61 77 62 78
REMARK H PARENT 45 24 32 32 34 34 47 36 49 38 51 40 54 44 57 46 20 49 18 52
REMARK H PARENT 15 56 59 76
REMARK Flexibility Score: inf
ROOT
ATOM      1  C   UNL     1      27.048  36.522  12.292  1.00  0.00     0.272 C 
ATOM      2  C   UNL     1      26.086  37.431  13.028  1.00  0.00     0.113 C 
ATOM      3  C   UNL     1      25.107  38.045  12.047  1.00  0.00     0.145 C 
ATOM      4  C   UNL     1      24.524  37.057  11.080  1.00  0.00     0.142 C 
ATOM      5  C   UNL     1      25.106  35.661  11.219  1.00  0.00     0.178 C 
ATOM      6  O   UNL     1      26.472  35.688  11.422  1.00  0.00    -0.332 OA
ENDROOT
BRANCH   1   7
ATOM      7  O   UNL     1      28.014  36.036  13.106  1.00  0.00    -0.338 OA
BRANCH   7   8
ATOM      8  C   UNL     1      28.894  35.098  12.739  1.00  0.00     0.199 C 
BRANCH   8   9
ATOM      9  C   UNL     1      30.044  34.946  13.711  1.00  0.00     0.179 C 
ATOM     10  C   UNL     1      30.610  33.640  15.488  1.00  0.00     0.282 C 
ATOM     11  O   UNL     1      30.098  33.600  14.173  1.00  0.00    -0.341 OA
ATOM     12  C   UNL     1      31.734  34.600  15.617  1.00  0.00     0.202 C 
ATOM     13  C   UNL     1      32.356  35.086  14.351  1.00  0.00     0.179 C 
ATOM     14  C   UNL     1      31.397  35.253  13.189  1.00  0.00     0.177 C 
BRANCH  10  15
ATOM     15  O   UNL     1      30.781  32.390  16.010  1.00  0.00    -0.341 OA
BRANCH  15  16
ATOM     16  C   UNL     1      29.906  32.002  17.003  1.00  0.00     0.184 C 
ATOM     17  C   UNL     1      30.546  31.695  18.334  1.00  0.00     0.178 C 
ATOM     18  O   UNL     1      29.802  30.748  19.037  1.00  0.00    -0.341 OA
ATOM     19  C   UNL     1      28.423  30.836  18.776  1.00  0.00     0.281 C 
ATOM     20  C   UNL     1      29.372  30.630  16.550  1.00  0.00     0.180 C 
ATOM     21  C   UNL     1      28.111  30.389  17.335  1.00  0.00     0.202 C 
BRANCH  17  22
ATOM     22  C   UNL     1      30.721  32.874  19.239  1.00  0.00     0.191 C 
BRANCH  22  23
ATOM     23  O   UNL     1      30.076  33.979  18.687  1.00  0.00    -0.394 OA
ATOM     24  H   UNL     1      29.856  34.597  19.441  1.00  0.00     0.210 HD
ENDBRANCH  22  23
ENDBRANCH  17  22
BRANCH  19  25
ATOM     25  O   UNL     1      27.874  32.050  19.039  1.00  0.00    -0.350 OA
BRANCH  25  26
ATOM     26  C   UNL     1      26.927  32.161  20.009  1.00  0.00     0.169 C 
BRANCH  26  27
ATOM     27  C   UNL     1      25.504  32.182  19.593  1.00  0.00     0.119 C 
BRANCH  27  28
ATOM     28  N   UNL     1      24.812  30.954  19.775  1.00  0.00    -0.092 NA
ATOM     29  N   UNL     1      24.726  30.062  18.918  1.00  0.00     0.001 N 
ATOM     30  N   UNL     1      24.925  28.967  18.345  1.00  0.00    -0.003 NA
ENDBRANCH  27  28
ENDBRANCH  26  27
ENDBRANCH  25  26
ENDBRANCH  19  25
BRANCH  20  31
ATOM     31  O   UNL     1      29.228  30.547  15.194  1.00  0.00    -0.387 OA
ATOM     32  H   UNL     1      29.513  31.397  14.729  1.00  0.00     0.211 HD
ENDBRANCH  20  31
BRANCH  21  33
ATOM     33  O   UNL     1      27.727  29.050  17.288  1.00  0.00    -0.385 OA
ATOM     34  H   UNL     1      27.333  28.859  16.397  1.00  0.00     0.211 HD
ENDBRANCH  21  33
ENDBRANCH  15  16
ENDBRANCH  10  15
BRANCH  12  35
ATOM     35  O   UNL     1      31.399  35.701  16.446  1.00  0.00    -0.385 OA
ATOM     36  H   UNL     1      30.772  36.308  15.948  1.00  0.00     0.211 HD
ENDBRANCH  12  35
BRANCH  13  37
ATOM     37  O   UNL     1      33.469  34.295  13.978  1.00  0.00    -0.387 OA
ATOM     38  H   UNL     1      33.857  33.909  14.805  1.00  0.00     0.211 HD
ENDBRANCH  13  37
BRANCH  14  39
ATOM     39  O   UNL     1      31.763  34.464  12.104  1.00  0.00    -0.387 OA
ATOM     40  H   UNL     1      30.996  34.256  11.516  1.00  0.00     0.211 HD
ENDBRANCH  14  39
ENDBRANCH   8   9
ENDBRANCH   7   8
ENDBRANCH   1   7
BRANCH   1  41
ATOM     41  C   UNL     1      27.903  37.559  11.491  1.00  0.00     0.364 C 
ATOM     42  O   UNL     1      27.917  37.513  10.242  1.00  0.00    -0.246 OA
BRANCH  41  43
ATOM     43  O   UNL     1      28.639  38.523  12.088  1.00  0.00    -0.477 OA
ATOM     44  H   UNL     1      29.543  38.855  11.860  1.00  0.00     0.296 HD
ENDBRANCH  41  43
ENDBRANCH   1  41
BRANCH   3  45
ATOM     45  O   UNL     1      24.076  38.565  12.884  1.00  0.00    -0.391 OA
ATOM     46  H   UNL     1      23.834  37.901  13.578  1.00  0.00     0.211 HD
ENDBRANCH   3  45
BRANCH   5  47
ATOM     47  C   UNL     1      24.271  34.921  12.191  1.00  0.00     0.176 C 
BRANCH  47  48
ATOM     48  O   UNL     1      24.771  33.625  12.506  1.00  0.00    -0.388 OA
ATOM     49  H   UNL     1      24.586  33.044  11.737  1.00  0.00     0.211 HD
ENDBRANCH  47  48
BRANCH  47  50
ATOM     50  C   UNL     1      22.895  34.473  11.616  1.00  0.00     0.165 C 
BRANCH  50  51
ATOM     51  O   UNL     1      22.599  34.829  10.362  1.00  0.00    -0.388 OA
ATOM     52  H   UNL     1      22.897  34.144   9.713  1.00  0.00     0.211 HD
ENDBRANCH  50  51
BRANCH  50  53
ATOM     53  C   UNL     1      21.828  34.981  12.611  1.00  0.00     0.154 C 
BRANCH  53  54
ATOM     54  N   UNL     1      22.023  34.486  13.934  1.00  0.00    -0.319 N 
ATOM     55  C   UNL     1      22.421  35.388  14.974  1.00  0.00     0.407 C 
ATOM     56  H   UNL     1      21.887  33.496  14.162  1.00  0.00     0.167 HD
ATOM     57  O   UNL     1      22.589  36.608  14.699  1.00  0.00    -0.225 OA
BRANCH  55  58
ATOM     58  O   UNL     1      22.605  34.879  16.247  1.00  0.00    -0.443 OA
BRANCH  58  59
ATOM     59  C   UNL     1      23.933  34.830  16.805  1.00  0.00     0.294 C 
BRANCH  59  60
ATOM     60  C   UNL     1      24.682  33.762  16.110  1.00  0.00     0.120 A 
ATOM     61  C   UNL     1      24.384  32.396  16.101  1.00  0.00     0.138 A 
ATOM     62  N   UNL     1      25.789  33.892  15.370  1.00  0.00    -0.132 NA
ATOM     63  N   UNL     1      25.324  31.791  15.364  1.00  0.00    -0.248 N 
ATOM     64  N   UNL     1      26.170  32.711  14.926  1.00  0.00    -0.067 NA
BRANCH  63  65
ATOM     65  C   UNL     1      25.406  30.378  15.092  1.00  0.00     0.181 C 
BRANCH  65  66
ATOM     66  C   UNL     1      24.190  29.954  14.364  1.00  0.00    -0.026 A 
ATOM     67  C   UNL     1      23.284  29.094  14.979  1.00  0.00     0.009 A 
ATOM     68  C   UNL     1      23.892  30.384  13.097  1.00  0.00     0.009 A 
ATOM     69  C   UNL     1      22.127  28.680  14.354  1.00  0.00     0.047 A 
ATOM     70  C   UNL     1      22.718  29.963  12.464  1.00  0.00     0.047 A 
ATOM     71  C   UNL     1      21.830  29.119  13.071  1.00  0.00     0.118 A 
BRANCH  71  72
ATOM     72  O   UNL     1      20.657  28.676  12.488  1.00  0.00    -0.497 OA
ATOM     73  C   UNL     1      19.662  29.504  11.963  1.00  0.00     0.278 C 
ENDBRANCH  71  72
ENDBRANCH  65  66
ENDBRANCH  63  65
ENDBRANCH  59  60
ENDBRANCH  58  59
ENDBRANCH  55  58
ENDBRANCH  53  54
ENDBRANCH  50  53
ENDBRANCH  47  50
ENDBRANCH   5  47
BRANCH   4  74
ATOM     74  N   UNL     1      24.486  37.495   9.701  1.00  0.00    -0.348 N 
ATOM     75  C   UNL     1      23.298  37.803   8.984  1.00  0.00     0.217 C 
ATOM     76  H   UNL     1      25.372  37.581   9.183  1.00  0.00     0.163 HD
ATOM     77  C   UNL     1      23.379  38.247   7.540  1.00  0.00     0.114 C 
ATOM     78  O   UNL     1      22.184  37.706   9.550  1.00  0.00    -0.275 OA
ENDBRANCH   4  74
TORSDOF 32
BEGIN_RES LYS A 131
REMARK  4 active torsions:
REMARK  status: ('A' for Active; 'I' for Inactive)
REMARK    1  A    between atoms: CA   and  CB  
REMARK    2  A    between atoms: CB   and  CG  
REMARK    3  A    between atoms: CG   and  CD  
REMARK    4  A    between atoms: CD   and  CE  
ROOT
ATOM      1  CA  LYS A 131      29.867  25.555  16.977  1.00 20.52     0.186 C 
ENDROOT
BRANCH   1   2
ATOM      2  CB  LYS A 131      28.345  25.722  17.026  1.00 20.94     0.034 C 
BRANCH   2   3
ATOM      3  CG  LYS A 131      27.601  24.402  16.895  1.00 22.96     0.005 C 
BRANCH   3   4
ATOM      4  CD  LYS A 131      26.536  24.245  17.945  1.00 24.33     0.041 C 
BRANCH   4   5
ATOM      5  CE  LYS A 131      25.171  24.135  17.272  1.00 26.91     0.338 C 
ATOM      6  NZ  LYS A 131      24.460  25.435  17.326  1.00 27.40     0.618 N 
ENDBRANCH   4   5
ENDBRANCH   3   4
ENDBRANCH   2   3
ENDBRANCH   1   2
END_RES LYS A 131
BEGIN_RES LYS A 135
REMARK  4 active torsions:
REMARK  status: ('A' for Active; 'I' for Inactive)
REMARK    5  A    between atoms: CA   and  CB  
REMARK    6  A    between atoms: CB   and  CG  
REMARK    7  A    between atoms: CG   and  CD  
REMARK    8  A    between atoms: CD   and  CE  
ROOT
ATOM      7  CA  LYS A 135      33.193  34.663   9.290  1.00 25.02     0.186 C 
ENDROOT
BRANCH   7   8
ATOM      8  CB  LYS A 135      32.060  35.360  10.034  1.00 26.63     0.034 C 
BRANCH   8   9
ATOM      9  CG  LYS A 135      30.831  35.580   9.190  1.00 29.45     0.005 C 
BRANCH   9  10
ATOM     10  CD  LYS A 135      30.197  34.252   8.808  1.00 32.00     0.041 C 
BRANCH  10  11
ATOM     11  CE  LYS A 135      28.721  34.432   8.512  1.00 34.25     0.338 C 
ATOM     12  NZ  LYS A 135      27.883  33.666   9.476  1.00 35.99     0.618 N 
ENDBRANCH  10  11
ENDBRANCH   9  10
ENDBRANCH   8   9
ENDBRANCH   7   8
END_RES LYS A 135
