REMARK VINA RESULT:    -5.474      5.473     11.202
REMARK INTER + INTRA:         -23.073
REMARK INTER:                 -13.357
REMARK INTRA:                  -9.716
REMARK UNBOUND:                -8.960
REMARK SMILES CC(=O)N[C@@H]1[C@@H](O)C[C@](OC[C@H]2O[C@@H](O[C@H]3[C@H](O)[C@@H](O)[C@H](OCCN=[N+]=[N-])O[C@@H]3CO)[C@H](O)[C@@H](O)[C@H]2O)(C(=O)O)O[C@H]1C(O)[C@H](O)CNC(=O)OCc1cn(Cc2cccc(C#N)c2)nn1
REMARK SMILES IDX 9 1 8 2 6 3 5 4 42 5 41 6 10 7 11 8 12 9 14 10 13 11 32 12
REMARK SMILES IDX 34 13 36 14 15 15 16 16 29 17 28 18 21 19 17 20 19 21 30 22
REMARK SMILES IDX 31 23 22 25 23 26 24 27 25 28 26 29 27 30 18 31 20 33 33 35
REMARK SMILES IDX 35 37 37 39 38 41 39 42 40 43 7 45 43 47 44 48 45 50 46 51
REMARK SMILES IDX 47 53 48 54 49 55 50 57 51 58 52 59 53 60 54 61 66 62 55 63
REMARK SMILES IDX 65 64 56 65 57 66 58 67 64 68 59 69 61 70 60 71 62 72 63 73
REMARK SMILES IDX 4 74 2 75 1 77 3 78
REMARK H PARENT 31 24 18 32 20 34 33 36 35 38 37 40 40 44 7 46 44 49 46 52
REMARK H PARENT 48 56 4 76
REMARK Flexibility Score: inf
ROOT
ATOM      1  C   UNL     1      28.575  35.038   8.673  1.00  0.00     0.272 C 
ATOM      2  C   UNL     1      27.772  33.961   9.361  1.00  0.00     0.113 C 
ATOM      3  C   UNL     1      27.247  34.258  10.702  1.00  0.00     0.145 C 
ATOM      4  C   UNL     1      28.165  35.206  11.481  1.00  0.00     0.142 C 
ATOM      5  C   UNL     1      28.613  36.351  10.689  1.00  0.00     0.178 C 
ATOM      6  O   UNL     1      28.741  36.205   9.347  1.00  0.00    -0.332 OA
ENDROOT
BRANCH   1   7
ATOM      7  O   UNL     1      28.015  35.305   7.508  1.00  0.00    -0.338 OA
BRANCH   7   8
ATOM      8  C   UNL     1      27.922  36.038   6.505  1.00  0.00     0.199 C 
BRANCH   8   9
ATOM      9  C   UNL     1      27.214  37.358   6.382  1.00  0.00     0.179 C 
ATOM     10  C   UNL     1      25.590  38.593   7.339  1.00  0.00     0.282 C 
ATOM     11  O   UNL     1      26.543  37.611   7.638  1.00  0.00    -0.341 OA
ATOM     12  C   UNL     1      26.226  39.910   7.052  1.00  0.00     0.202 C 
ATOM     13  C   UNL     1      27.462  39.781   6.181  1.00  0.00     0.179 C 
ATOM     14  C   UNL     1      28.226  38.520   6.396  1.00  0.00     0.177 C 
BRANCH  10  15
ATOM     15  O   UNL     1      24.712  38.714   8.413  1.00  0.00    -0.341 OA
BRANCH  15  16
ATOM     16  C   UNL     1      23.454  38.252   8.127  1.00  0.00     0.184 C 
ATOM     17  C   UNL     1      22.381  39.057   8.763  1.00  0.00     0.178 C 
ATOM     18  O   UNL     1      21.115  38.561   8.557  1.00  0.00    -0.341 OA
ATOM     19  C   UNL     1      20.935  37.226   8.845  1.00  0.00     0.281 C 
ATOM     20  C   UNL     1      23.365  36.863   8.840  1.00  0.00     0.180 C 
ATOM     21  C   UNL     1      22.028  36.315   8.387  1.00  0.00     0.202 C 
BRANCH  17  22
ATOM     22  C   UNL     1      22.388  40.471   8.228  1.00  0.00     0.191 C 
BRANCH  22  23
ATOM     23  O   UNL     1      22.652  40.456   6.855  1.00  0.00    -0.394 OA
ATOM     24  H   UNL     1      22.715  39.559   6.486  1.00  0.00     0.210 HD
ENDBRANCH  22  23
ENDBRANCH  17  22
BRANCH  19  25
ATOM     25  O   UNL     1      19.773  36.822   8.154  1.00  0.00    -0.350 OA
BRANCH  25  26
ATOM     26  C   UNL     1      18.761  36.580   9.045  1.00  0.00     0.169 C 
BRANCH  26  27
ATOM     27  C   UNL     1      18.344  35.137   9.074  1.00  0.00     0.119 C 
BRANCH  27  28
ATOM     28  N   UNL     1      19.027  34.368  10.087  1.00  0.00    -0.092 NA
ATOM     29  N   UNL     1      18.451  34.160  11.164  1.00  0.00     0.001 N 
ATOM     30  N   UNL     1      18.017  33.958  12.321  1.00  0.00    -0.003 NA
ENDBRANCH  27  28
ENDBRANCH  26  27
ENDBRANCH  25  26
ENDBRANCH  19  25
BRANCH  20  31
ATOM     31  O   UNL     1      24.441  36.120   8.432  1.00  0.00    -0.387 OA
ATOM     32  H   UNL     1      24.169  35.352   7.853  1.00  0.00     0.211 HD
ENDBRANCH  20  31
BRANCH  21  33
ATOM     33  O   UNL     1      21.860  35.073   8.994  1.00  0.00    -0.385 OA
ATOM     34  H   UNL     1      20.905  34.810   8.845  1.00  0.00     0.211 HD
ENDBRANCH  21  33
ENDBRANCH  15  16
ENDBRANCH  10  15
BRANCH  12  35
ATOM     35  O   UNL     1      25.319  40.669   6.277  1.00  0.00    -0.385 OA
ATOM     36  H   UNL     1      24.547  40.075   6.108  1.00  0.00     0.211 HD
ENDBRANCH  12  35
BRANCH  13  37
ATOM     37  O   UNL     1      28.301  40.845   6.548  1.00  0.00    -0.387 OA
ATOM     38  H   UNL     1      27.813  41.634   6.853  1.00  0.00     0.211 HD
ENDBRANCH  13  37
BRANCH  14  39
ATOM     39  O   UNL     1      28.767  38.585   7.690  1.00  0.00    -0.387 OA
ATOM     40  H   UNL     1      29.653  38.176   7.742  1.00  0.00     0.211 HD
ENDBRANCH  14  39
ENDBRANCH   8   9
ENDBRANCH   7   8
ENDBRANCH   1   7
BRANCH   1  41
ATOM     41  C   UNL     1      29.965  34.476   8.520  1.00  0.00     0.364 C 
ATOM     42  O   UNL     1      30.408  33.603   9.340  1.00  0.00    -0.246 OA
BRANCH  41  43
ATOM     43  O   UNL     1      30.798  34.873   7.509  1.00  0.00    -0.477 OA
ATOM     44  H   UNL     1      30.360  35.333   6.694  1.00  0.00     0.296 HD
ENDBRANCH  41  43
ENDBRANCH   1  41
BRANCH   3  45
ATOM     45  O   UNL     1      25.988  34.833  10.608  1.00  0.00    -0.391 OA
ATOM     46  H   UNL     1      25.450  34.733  11.428  1.00  0.00     0.211 HD
ENDBRANCH   3  45
BRANCH   5  47
ATOM     47  C   UNL     1      27.759  37.596  10.814  1.00  0.00     0.176 C 
BRANCH  47  48
ATOM     48  O   UNL     1      26.471  37.176  10.341  1.00  0.00    -0.388 OA
ATOM     49  H   UNL     1      26.285  37.695   9.526  1.00  0.00     0.211 HD
ENDBRANCH  47  48
BRANCH  47  50
ATOM     50  C   UNL     1      27.510  38.157  12.152  1.00  0.00     0.165 C 
BRANCH  50  51
ATOM     51  O   UNL     1      28.817  38.016  12.792  1.00  0.00    -0.388 OA
ATOM     52  H   UNL     1      28.997  38.880  13.271  1.00  0.00     0.211 HD
ENDBRANCH  50  51
BRANCH  50  53
ATOM     53  C   UNL     1      26.605  37.426  13.074  1.00  0.00     0.154 C 
BRANCH  53  54
ATOM     54  N   UNL     1      25.202  37.616  12.896  1.00  0.00    -0.319 N 
ATOM     55  C   UNL     1      24.326  37.562  14.032  1.00  0.00     0.407 C 
ATOM     56  H   UNL     1      24.765  37.798  11.985  1.00  0.00     0.167 HD
ATOM     57  O   UNL     1      24.852  37.349  15.148  1.00  0.00    -0.225 OA
BRANCH  55  58
ATOM     58  O   UNL     1      22.975  37.735  13.945  1.00  0.00    -0.443 OA
BRANCH  58  59
ATOM     59  C   UNL     1      22.248  37.448  12.733  1.00  0.00     0.294 C 
BRANCH  59  60
ATOM     60  C   UNL     1      22.344  35.989  12.446  1.00  0.00     0.120 A 
ATOM     61  C   UNL     1      21.505  34.998  12.904  1.00  0.00     0.138 A 
ATOM     62  N   UNL     1      23.263  35.372  11.696  1.00  0.00    -0.132 NA
ATOM     63  N   UNL     1      21.928  33.794  12.424  1.00  0.00    -0.248 N 
ATOM     64  N   UNL     1      23.000  34.057  11.692  1.00  0.00    -0.067 NA
BRANCH  63  65
ATOM     65  C   UNL     1      21.326  32.518  12.683  1.00  0.00     0.181 C 
BRANCH  65  66
ATOM     66  C   UNL     1      22.341  31.604  13.255  1.00  0.00    -0.025 A 
ATOM     67  C   UNL     1      22.791  30.482  12.610  1.00  0.00     0.006 A 
ATOM     68  C   UNL     1      22.872  31.881  14.510  1.00  0.00     0.025 A 
ATOM     69  C   UNL     1      23.726  29.639  13.148  1.00  0.00     0.002 A 
ATOM     70  C   UNL     1      23.810  31.036  15.050  1.00  0.00     0.052 A 
ATOM     71  C   UNL     1      24.272  29.892  14.399  1.00  0.00     0.019 A 
BRANCH  70  72
ATOM     72  C   UNL     1      24.359  31.333  16.347  1.00  0.00     0.099 C 
ATOM     73  N   UNL     1      24.792  31.567  17.408  1.00  0.00    -0.192 NA
ENDBRANCH  70  72
ENDBRANCH  65  66
ENDBRANCH  63  65
ENDBRANCH  59  60
ENDBRANCH  58  59
ENDBRANCH  55  58
ENDBRANCH  53  54
ENDBRANCH  50  53
ENDBRANCH  47  50
ENDBRANCH   5  47
BRANCH   4  74
ATOM     74  N   UNL     1      29.213  34.412  12.120  1.00  0.00    -0.348 N 
ATOM     75  C   UNL     1      29.469  34.585  13.496  1.00  0.00     0.217 C 
ATOM     76  H   UNL     1      29.799  33.709  11.628  1.00  0.00     0.163 HD
ATOM     77  C   UNL     1      30.517  33.821  14.229  1.00  0.00     0.114 C 
ATOM     78  O   UNL     1      28.792  35.413  14.128  1.00  0.00    -0.275 OA
ENDBRANCH   4  74
TORSDOF 32
BEGIN_RES LYS A 131
REMARK  4 active torsions:
REMARK  status: ('A' for Active; 'I' for Inactive)
REMARK    1  A    between atoms: CA   and  CB  
REMARK    2  A    between atoms: CB   and  CG  
REMARK    3  A    between atoms: CG   and  CD  
REMARK    4  A    between atoms: CD   and  CE  
ROOT
ATOM      1  CA  LYS A 131      29.867  25.555  16.977  1.00 20.52     0.186 C 
ENDROOT
BRANCH   1   2
ATOM      2  CB  LYS A 131      28.345  25.722  17.026  1.00 20.94     0.034 C 
BRANCH   2   3
ATOM      3  CG  LYS A 131      27.601  24.403  16.888  1.00 22.96     0.005 C 
BRANCH   3   4
ATOM      4  CD  LYS A 131      26.612  24.191  18.001  1.00 24.33     0.041 C 
BRANCH   4   5
ATOM      5  CE  LYS A 131      25.856  25.490  18.263  1.00 26.91     0.338 C 
ATOM      6  NZ  LYS A 131      24.410  25.221  18.444  1.00 27.40     0.618 N 
ENDBRANCH   4   5
ENDBRANCH   3   4
ENDBRANCH   2   3
ENDBRANCH   1   2
END_RES LYS A 131
BEGIN_RES LYS A 135
REMARK  4 active torsions:
REMARK  status: ('A' for Active; 'I' for Inactive)
REMARK    5  A    between atoms: CA   and  CB  
REMARK    6  A    between atoms: CB   and  CG  
REMARK    7  A    between atoms: CG   and  CD  
REMARK    8  A    between atoms: CD   and  CE  
ROOT
ATOM      7  CA  LYS A 135      33.193  34.663   9.290  1.00 25.02     0.186 C 
ENDROOT
BRANCH   7   8
ATOM      8  CB  LYS A 135      32.060  35.360  10.034  1.00 26.63     0.034 C 
BRANCH   8   9
ATOM      9  CG  LYS A 135      32.459  35.877  11.392  1.00 29.45     0.005 C 
BRANCH   9  10
ATOM     10  CD  LYS A 135      31.891  37.268  11.625  1.00 32.00     0.041 C 
BRANCH  10  11
ATOM     11  CE  LYS A 135      31.894  38.068  10.337  1.00 34.25     0.338 C 
ATOM     12  NZ  LYS A 135      31.016  39.265  10.446  1.00 35.99     0.618 N 
ENDBRANCH  10  11
ENDBRANCH   9  10
ENDBRANCH   8   9
ENDBRANCH   7   8
END_RES LYS A 135
