REMARK VINA RESULT:    -4.813      3.496      7.471
REMARK INTER + INTRA:         -25.440
REMARK INTER:                 -14.333
REMARK INTRA:                 -11.107
REMARK UNBOUND:               -12.046
REMARK SMILES CC(=O)N[C@@H]1[C@@H](O)C[C@](OC[C@H]2O[C@@H](O[C@H]3[C@H](O)[C@@H](O)[C@H](OCCN=[N+]=[N-])O[C@@H]3CO)[C@H](O)[C@@H](O)[C@H]2O)(C(=O)O)O[C@H]1C(O)[C@H](O)CNC(=O)OCc1cn(C[C@@H](C(=O)O)C(c2ccccc2)c2ccccc2)nn1
REMARK SMILES IDX 43 1 42 2 9 3 8 4 41 5 6 6 5 7 10 8 11 9 12 10 14 11 13 12
REMARK SMILES IDX 32 13 34 14 36 15 15 16 16 17 29 18 28 19 21 20 17 21 19 22
REMARK SMILES IDX 30 23 31 24 22 26 23 27 24 28 25 29 26 30 27 31 18 32 20 34
REMARK SMILES IDX 33 36 35 38 37 40 38 42 39 43 40 44 7 46 4 48 2 49 1 51 3 52
REMARK SMILES IDX 44 53 45 55 46 56 47 58 48 59 49 60 50 62 51 63 52 64 53 65
REMARK SMILES IDX 54 66 75 67 55 68 74 69 56 70 57 71 58 72 59 73 60 74 61 76
REMARK SMILES IDX 62 77 63 78 67 79 64 80 66 81 65 82 68 83 69 84 73 85 70 86
REMARK SMILES IDX 72 87 71 88
REMARK H PARENT 31 25 18 33 20 35 33 37 35 39 37 41 40 45 7 47 4 50 44 54
REMARK H PARENT 46 57 48 61 60 75
REMARK Flexibility Score: inf
ROOT
ATOM      1  C   UNL     1      30.392  31.651  17.798  1.00  0.00     0.176 C 
ENDROOT
BRANCH   1   2
ATOM      2  C   UNL     1      29.374  30.728  18.502  1.00  0.00     0.178 C 
ATOM      3  C   UNL     1      27.226  29.880  18.602  1.00  0.00     0.272 C 
ATOM      4  C   UNL     1      28.011  29.068  19.685  1.00  0.00     0.113 C 
ATOM      5  O   UNL     1      28.122  30.790  18.011  1.00  0.00    -0.332 OA
ATOM      6  C   UNL     1      28.679  29.959  20.675  1.00  0.00     0.145 C 
ATOM      7  C   UNL     1      29.513  30.989  19.984  1.00  0.00     0.142 C 
BRANCH   3   8
ATOM      8  O   UNL     1      26.173  30.377  19.161  1.00  0.00    -0.338 OA
BRANCH   8   9
ATOM      9  C   UNL     1      25.517  31.465  19.253  1.00  0.00     0.199 C 
BRANCH   9  10
ATOM     10  C   UNL     1      24.017  31.584  19.187  1.00  0.00     0.179 C 
ATOM     11  C   UNL     1      22.507  32.141  17.445  1.00  0.00     0.282 C 
ATOM     12  O   UNL     1      23.644  32.350  18.125  1.00  0.00    -0.341 OA
ATOM     13  C   UNL     1      21.528  31.138  17.920  1.00  0.00     0.202 C 
ATOM     14  C   UNL     1      21.997  30.261  19.046  1.00  0.00     0.179 C 
ATOM     15  C   UNL     1      23.483  30.160  18.913  1.00  0.00     0.177 C 
BRANCH  11  16
ATOM     16  O   UNL     1      22.927  31.706  16.153  1.00  0.00    -0.341 OA
BRANCH  16  17
ATOM     17  C   UNL     1      23.528  32.687  15.417  1.00  0.00     0.184 C 
ATOM     18  C   UNL     1      22.793  32.832  14.115  1.00  0.00     0.178 C 
ATOM     19  O   UNL     1      23.243  31.945  13.143  1.00  0.00    -0.341 OA
ATOM     20  C   UNL     1      23.792  30.768  13.673  1.00  0.00     0.281 C 
ATOM     21  C   UNL     1      24.980  32.362  15.090  1.00  0.00     0.180 C 
ATOM     22  C   UNL     1      25.070  31.017  14.398  1.00  0.00     0.202 C 
BRANCH  18  23
ATOM     23  C   UNL     1      22.805  34.224  13.549  1.00  0.00     0.191 C 
BRANCH  23  24
ATOM     24  O   UNL     1      23.221  34.272  12.234  1.00  0.00    -0.394 OA
ATOM     25  H   UNL     1      22.696  35.004  11.790  1.00  0.00     0.210 HD
ENDBRANCH  23  24
ENDBRANCH  18  23
BRANCH  20  26
ATOM     26  O   UNL     1      24.048  29.908  12.629  1.00  0.00    -0.350 OA
BRANCH  26  27
ATOM     27  C   UNL     1      23.315  28.764  12.575  1.00  0.00     0.169 C 
BRANCH  27  28
ATOM     28  C   UNL     1      21.998  28.832  13.277  1.00  0.00     0.119 C 
BRANCH  28  29
ATOM     29  N   UNL     1      20.985  29.049  12.226  1.00  0.00    -0.092 NA
ATOM     30  N   UNL     1      20.486  30.176  12.162  1.00  0.00     0.001 N 
ATOM     31  N   UNL     1      19.877  31.243  12.176  1.00  0.00    -0.003 NA
ENDBRANCH  28  29
ENDBRANCH  27  28
ENDBRANCH  26  27
ENDBRANCH  20  26
BRANCH  21  32
ATOM     32  O   UNL     1      25.421  33.327  14.188  1.00  0.00    -0.387 OA
ATOM     33  H   UNL     1      25.079  33.187  13.275  1.00  0.00     0.211 HD
ENDBRANCH  21  32
BRANCH  22  34
ATOM     34  O   UNL     1      25.272  30.011  15.335  1.00  0.00    -0.385 OA
ATOM     35  H   UNL     1      25.731  30.440  16.125  1.00  0.00     0.211 HD
ENDBRANCH  22  34
ENDBRANCH  16  17
ENDBRANCH  11  16
BRANCH  13  36
ATOM     36  O   UNL     1      20.361  31.782  18.396  1.00  0.00    -0.385 OA
ATOM     37  H   UNL     1      19.549  31.269  18.123  1.00  0.00     0.211 HD
ENDBRANCH  13  36
BRANCH  14  38
ATOM     38  O   UNL     1      21.406  29.017  18.957  1.00  0.00    -0.387 OA
ATOM     39  H   UNL     1      21.746  28.555  18.146  1.00  0.00     0.211 HD
ENDBRANCH  14  38
BRANCH  15  40
ATOM     40  O   UNL     1      23.793  29.758  17.621  1.00  0.00    -0.387 OA
ATOM     41  H   UNL     1      23.361  28.893  17.460  1.00  0.00     0.211 HD
ENDBRANCH  15  40
ENDBRANCH   9  10
ENDBRANCH   8   9
ENDBRANCH   3   8
BRANCH   3  42
ATOM     42  C   UNL     1      26.990  28.858  17.562  1.00  0.00     0.364 C 
ATOM     43  O   UNL     1      26.128  27.957  17.620  1.00  0.00    -0.246 OA
BRANCH  42  44
ATOM     44  O   UNL     1      27.782  28.867  16.395  1.00  0.00    -0.477 OA
ATOM     45  H   UNL     1      27.538  28.224  15.672  1.00  0.00     0.296 HD
ENDBRANCH  42  44
ENDBRANCH   3  42
BRANCH   6  46
ATOM     46  O   UNL     1      27.766  30.556  21.556  1.00  0.00    -0.391 OA
ATOM     47  H   UNL     1      28.124  31.385  21.953  1.00  0.00     0.211 HD
ENDBRANCH   6  46
BRANCH   7  48
ATOM     48  N   UNL     1      30.899  30.801  20.344  1.00  0.00    -0.348 N 
ATOM     49  C   UNL     1      31.432  31.351  21.536  1.00  0.00     0.217 C 
ATOM     50  H   UNL     1      31.519  30.238  19.695  1.00  0.00     0.163 HD
ATOM     51  C   UNL     1      32.874  31.158  21.917  1.00  0.00     0.114 C 
ATOM     52  O   UNL     1      30.649  32.010  22.268  1.00  0.00    -0.275 OA
ENDBRANCH   7  48
ENDBRANCH   1   2
BRANCH   1  53
ATOM     53  O   UNL     1      30.305  32.931  18.275  1.00  0.00    -0.388 OA
ATOM     54  H   UNL     1      30.964  33.553  17.890  1.00  0.00     0.211 HD
ENDBRANCH   1  53
BRANCH   1  55
ATOM     55  C   UNL     1      30.189  31.632  16.334  1.00  0.00     0.165 C 
BRANCH  55  56
ATOM     56  O   UNL     1      29.931  30.343  15.823  1.00  0.00    -0.388 OA
ATOM     57  H   UNL     1      29.152  30.013  16.370  1.00  0.00     0.211 HD
ENDBRANCH  55  56
BRANCH  55  58
ATOM     58  C   UNL     1      31.129  32.333  15.427  1.00  0.00     0.154 C 
BRANCH  58  59
ATOM     59  N   UNL     1      30.578  33.303  14.555  1.00  0.00    -0.319 N 
ATOM     60  C   UNL     1      30.098  34.581  14.912  1.00  0.00     0.407 C 
ATOM     61  H   UNL     1      30.518  33.044  13.494  1.00  0.00     0.167 HD
ATOM     62  O   UNL     1      30.069  34.990  16.086  1.00  0.00    -0.225 OA
BRANCH  60  63
ATOM     63  O   UNL     1      29.647  35.408  13.905  1.00  0.00    -0.443 OA
BRANCH  63  64
ATOM     64  C   UNL     1      29.402  34.949  12.623  1.00  0.00     0.294 C 
BRANCH  64  65
ATOM     65  C   UNL     1      28.026  35.152  12.147  1.00  0.00     0.120 A 
ATOM     66  C   UNL     1      27.371  36.320  11.840  1.00  0.00     0.138 A 
ATOM     67  N   UNL     1      27.093  34.171  11.945  1.00  0.00    -0.132 NA
ATOM     68  N   UNL     1      26.114  36.043  11.477  1.00  0.00    -0.251 N 
ATOM     69  N   UNL     1      25.973  34.732  11.550  1.00  0.00    -0.067 NA
BRANCH  68  70
ATOM     70  C   UNL     1      25.052  36.980  11.063  1.00  0.00     0.162 C 
BRANCH  70  71
ATOM     71  C   UNL     1      24.720  36.767   9.623  1.00  0.00     0.132 C 
BRANCH  71  72
ATOM     72  C   UNL     1      23.241  36.738   9.416  1.00  0.00     0.309 C 
ATOM     73  O   UNL     1      22.672  35.875   8.727  1.00  0.00    -0.252 OA
BRANCH  72  74
ATOM     74  O   UNL     1      22.454  37.708  10.012  1.00  0.00    -0.481 OA
ATOM     75  H   UNL     1      21.435  37.642   9.944  1.00  0.00     0.296 HD
ENDBRANCH  72  74
ENDBRANCH  71  72
BRANCH  71  76
ATOM     76  C   UNL     1      25.425  37.592   8.612  1.00  0.00     0.065 C 
BRANCH  76  77
ATOM     77  C   UNL     1      25.868  38.929   9.010  1.00  0.00    -0.040 A 
ATOM     78  C   UNL     1      27.178  39.153   9.459  1.00  0.00     0.004 A 
ATOM     79  C   UNL     1      25.047  40.059   8.986  1.00  0.00     0.004 A 
ATOM     80  C   UNL     1      27.632  40.375   9.844  1.00  0.00     0.000 A 
ATOM     81  C   UNL     1      25.515  41.290   9.378  1.00  0.00     0.000 A 
ATOM     82  C   UNL     1      26.814  41.461   9.812  1.00  0.00     0.000 A 
ENDBRANCH  76  77
BRANCH  76  83
ATOM     83  C   UNL     1      26.402  36.828   7.792  1.00  0.00    -0.040 A 
ATOM     84  C   UNL     1      26.932  37.474   6.695  1.00  0.00     0.004 A 
ATOM     85  C   UNL     1      26.785  35.549   8.095  1.00  0.00     0.004 A 
ATOM     86  C   UNL     1      27.845  36.853   5.891  1.00  0.00     0.000 A 
ATOM     87  C   UNL     1      27.716  34.929   7.267  1.00  0.00     0.000 A 
ATOM     88  C   UNL     1      28.248  35.568   6.170  1.00  0.00     0.000 A 
ENDBRANCH  76  83
ENDBRANCH  71  76
ENDBRANCH  70  71
ENDBRANCH  68  70
ENDBRANCH  64  65
ENDBRANCH  63  64
ENDBRANCH  60  63
ENDBRANCH  58  59
ENDBRANCH  55  58
ENDBRANCH   1  55
TORSDOF 36
BEGIN_RES LYS A 131
REMARK  4 active torsions:
REMARK  status: ('A' for Active; 'I' for Inactive)
REMARK    1  A    between atoms: CA   and  CB  
REMARK    2  A    between atoms: CB   and  CG  
REMARK    3  A    between atoms: CG   and  CD  
REMARK    4  A    between atoms: CD   and  CE  
ROOT
ATOM      1  CA  LYS A 131      29.867  25.555  16.977  1.00 20.52     0.186 C 
ENDROOT
BRANCH   1   2
ATOM      2  CB  LYS A 131      28.345  25.722  17.026  1.00 20.94     0.034 C 
BRANCH   2   3
ATOM      3  CG  LYS A 131      27.602  24.399  16.919  1.00 22.96     0.005 C 
BRANCH   3   4
ATOM      4  CD  LYS A 131      26.479  24.298  17.914  1.00 24.33     0.041 C 
BRANCH   4   5
ATOM      5  CE  LYS A 131      25.143  24.396  17.185  1.00 26.91     0.338 C 
ATOM      6  NZ  LYS A 131      24.124  25.034  18.052  1.00 27.40     0.618 N 
ENDBRANCH   4   5
ENDBRANCH   3   4
ENDBRANCH   2   3
ENDBRANCH   1   2
END_RES LYS A 131
BEGIN_RES LYS A 135
REMARK  4 active torsions:
REMARK  status: ('A' for Active; 'I' for Inactive)
REMARK    5  A    between atoms: CA   and  CB  
REMARK    6  A    between atoms: CB   and  CG  
REMARK    7  A    between atoms: CG   and  CD  
REMARK    8  A    between atoms: CD   and  CE  
ROOT
ATOM      7  CA  LYS A 135      33.193  34.663   9.290  1.00 25.02     0.186 C 
ENDROOT
BRANCH   7   8
ATOM      8  CB  LYS A 135      32.060  35.360  10.034  1.00 26.63     0.034 C 
BRANCH   8   9
ATOM      9  CG  LYS A 135      30.761  35.382   9.270  1.00 29.45     0.005 C 
BRANCH   9  10
ATOM     10  CD  LYS A 135      30.099  36.747   9.376  1.00 32.00     0.041 C 
BRANCH  10  11
ATOM     11  CE  LYS A 135      31.144  37.835   9.527  1.00 34.25     0.338 C 
ATOM     12  NZ  LYS A 135      31.136  38.753   8.355  1.00 35.99     0.618 N 
ENDBRANCH  10  11
ENDBRANCH   9  10
ENDBRANCH   8   9
ENDBRANCH   7   8
END_RES LYS A 135
