REMARK VINA RESULT:    -4.396      2.758      6.075
REMARK INTER + INTRA:         -22.661
REMARK INTER:                  -9.329
REMARK INTRA:                 -13.332
REMARK UNBOUND:               -11.069
REMARK SMILES COCC(C(N)=O)n1cc(COC(=O)NC[C@@H](O)C(O)[C@@H]2O[C@@](OC[C@H]3O[C@@H](O[C@H]4[C@H](O)[C@@H](O)[C@H](OCCN=[N+]=[N-])O[C@@H]4CO)[C@H](O)[C@@H](O)[C@H]3O)(C(=O)O)C[C@H](O)[C@H]2NC(C)=O)nn1
REMARK SMILES IDX 23 1 55 2 56 3 58 4 21 5 22 6 24 7 25 8 26 9 28 10 27 11
REMARK SMILES IDX 46 12 48 13 50 14 29 15 30 16 43 17 42 18 35 19 31 20 33 21
REMARK SMILES IDX 44 22 45 23 36 25 37 26 38 27 39 28 40 29 41 30 32 31 34 33
REMARK SMILES IDX 47 35 49 37 51 39 52 41 53 42 54 43 57 45 19 47 20 48 17 50
REMARK SMILES IDX 18 51 16 53 15 54 13 55 14 57 12 58 11 59 10 60 9 61 63 62
REMARK SMILES IDX 8 63 64 64 4 65 3 66 2 67 1 68 5 69 7 70 6 71 59 74 60 75
REMARK SMILES IDX 61 77 62 78
REMARK H PARENT 45 24 32 32 34 34 47 36 49 38 51 40 54 44 57 46 20 49 18 52
REMARK H PARENT 15 56 6 72 6 73 59 76
REMARK Flexibility Score: inf
ROOT
ATOM      1  C   UNL     1      32.100  35.049  14.810  1.00  0.00     0.272 C 
ATOM      2  C   UNL     1      33.259  35.958  14.959  1.00  0.00     0.113 C 
ATOM      3  C   UNL     1      33.401  36.669  16.254  1.00  0.00     0.145 C 
ATOM      4  C   UNL     1      32.049  37.081  16.771  1.00  0.00     0.142 C 
ATOM      5  C   UNL     1      31.080  36.995  15.601  1.00  0.00     0.178 C 
ATOM      6  O   UNL     1      30.931  35.685  15.228  1.00  0.00    -0.332 OA
ENDROOT
BRANCH   1   7
ATOM      7  O   UNL     1      32.158  33.843  15.451  1.00  0.00    -0.338 OA
BRANCH   7   8
ATOM      8  C   UNL     1      31.097  33.468  16.208  1.00  0.00     0.199 C 
BRANCH   8   9
ATOM      9  C   UNL     1      30.500  32.128  15.758  1.00  0.00     0.179 C 
ATOM     10  C   UNL     1      29.802  31.001  17.666  1.00  0.00     0.282 C 
ATOM     11  O   UNL     1      30.750  31.133  16.661  1.00  0.00    -0.341 OA
ATOM     12  C   UNL     1      28.411  30.866  17.149  1.00  0.00     0.202 C 
ATOM     13  C   UNL     1      28.024  31.999  16.259  1.00  0.00     0.179 C 
ATOM     14  C   UNL     1      29.103  32.247  15.266  1.00  0.00     0.177 C 
BRANCH  10  15
ATOM     15  O   UNL     1      29.897  31.998  18.620  1.00  0.00    -0.341 OA
BRANCH  15  16
ATOM     16  C   UNL     1      29.554  31.512  19.881  1.00  0.00     0.184 C 
ATOM     17  C   UNL     1      29.187  32.543  20.880  1.00  0.00     0.178 C 
ATOM     18  O   UNL     1      28.691  31.986  22.032  1.00  0.00    -0.341 OA
ATOM     19  C   UNL     1      29.230  30.739  22.354  1.00  0.00     0.281 C 
ATOM     20  C   UNL     1      30.819  30.813  20.409  1.00  0.00     0.180 C 
ATOM     21  C   UNL     1      30.672  30.635  21.882  1.00  0.00     0.202 C 
BRANCH  17  22
ATOM     22  C   UNL     1      28.156  33.549  20.404  1.00  0.00     0.191 C 
BRANCH  22  23
ATOM     23  O   UNL     1      28.678  34.301  19.354  1.00  0.00    -0.394 OA
ATOM     24  H   UNL     1      29.292  33.776  18.789  1.00  0.00     0.210 HD
ENDBRANCH  22  23
ENDBRANCH  17  22
BRANCH  19  25
ATOM     25  O   UNL     1      28.435  29.759  21.874  1.00  0.00    -0.350 OA
BRANCH  25  26
ATOM     26  C   UNL     1      28.628  28.470  22.233  1.00  0.00     0.169 C 
BRANCH  26  27
ATOM     27  C   UNL     1      28.178  27.404  21.296  1.00  0.00     0.119 C 
BRANCH  27  28
ATOM     28  N   UNL     1      28.522  27.665  19.934  1.00  0.00    -0.092 NA
ATOM     29  N   UNL     1      27.682  27.527  19.049  1.00  0.00     0.001 N 
ATOM     30  N   UNL     1      26.830  27.870  18.213  1.00  0.00    -0.003 NA
ENDBRANCH  27  28
ENDBRANCH  26  27
ENDBRANCH  25  26
ENDBRANCH  19  25
BRANCH  20  31
ATOM     31  O   UNL     1      30.982  29.591  19.758  1.00  0.00    -0.387 OA
ATOM     32  H   UNL     1      30.286  28.993  20.115  1.00  0.00     0.211 HD
ENDBRANCH  20  31
BRANCH  21  33
ATOM     33  O   UNL     1      31.388  31.629  22.583  1.00  0.00    -0.385 OA
ATOM     34  H   UNL     1      32.284  31.748  22.152  1.00  0.00     0.211 HD
ENDBRANCH  21  33
ENDBRANCH  15  16
ENDBRANCH  10  15
BRANCH  12  35
ATOM     35  O   UNL     1      28.382  29.702  16.358  1.00  0.00    -0.385 OA
ATOM     36  H   UNL     1      28.397  29.928  15.404  1.00  0.00     0.211 HD
ENDBRANCH  12  35
BRANCH  13  37
ATOM     37  O   UNL     1      27.626  33.132  16.968  1.00  0.00    -0.387 OA
ATOM     38  H   UNL     1      28.461  33.599  17.243  1.00  0.00     0.211 HD
ENDBRANCH  13  37
BRANCH  14  39
ATOM     39  O   UNL     1      28.948  33.496  14.661  1.00  0.00    -0.387 OA
ATOM     40  H   UNL     1      28.566  34.152  15.302  1.00  0.00     0.211 HD
ENDBRANCH  14  39
ENDBRANCH   8   9
ENDBRANCH   7   8
ENDBRANCH   1   7
BRANCH   1  41
ATOM     41  C   UNL     1      31.894  34.839  13.331  1.00  0.00     0.364 C 
ATOM     42  O   UNL     1      30.765  34.611  12.856  1.00  0.00    -0.246 OA
BRANCH  41  43
ATOM     43  O   UNL     1      32.985  34.902  12.505  1.00  0.00    -0.477 OA
ATOM     44  H   UNL     1      33.909  34.619  12.792  1.00  0.00     0.296 HD
ENDBRANCH  41  43
ENDBRANCH   1  41
BRANCH   3  45
ATOM     45  O   UNL     1      34.141  35.975  17.206  1.00  0.00    -0.391 OA
ATOM     46  H   UNL     1      33.631  35.917  18.053  1.00  0.00     0.211 HD
ENDBRANCH   3  45
BRANCH   5  47
ATOM     47  C   UNL     1      29.735  37.560  16.014  1.00  0.00     0.176 C 
BRANCH  47  48
ATOM     48  O   UNL     1      28.820  37.571  15.004  1.00  0.00    -0.388 OA
ATOM     49  H   UNL     1      28.892  36.904  14.309  1.00  0.00     0.211 HD
ENDBRANCH  47  48
BRANCH  47  50
ATOM     50  C   UNL     1      29.198  36.807  17.201  1.00  0.00     0.165 C 
BRANCH  50  51
ATOM     51  O   UNL     1      28.637  35.610  16.689  1.00  0.00    -0.388 OA
ATOM     52  H   UNL     1      28.884  35.521  15.729  1.00  0.00     0.211 HD
ENDBRANCH  50  51
BRANCH  50  53
ATOM     53  C   UNL     1      28.101  37.500  17.935  1.00  0.00     0.154 C 
BRANCH  53  54
ATOM     54  N   UNL     1      26.821  37.488  17.306  1.00  0.00    -0.319 N 
ATOM     55  C   UNL     1      25.847  36.483  17.553  1.00  0.00     0.407 C 
ATOM     56  H   UNL     1      26.551  38.243  16.618  1.00  0.00     0.167 HD
ATOM     57  O   UNL     1      26.110  35.568  18.348  1.00  0.00    -0.225 OA
BRANCH  55  58
ATOM     58  O   UNL     1      24.598  36.495  16.924  1.00  0.00    -0.443 OA
BRANCH  58  59
ATOM     59  C   UNL     1      24.335  35.776  15.757  1.00  0.00     0.294 C 
BRANCH  59  60
ATOM     60  C   UNL     1      25.403  35.816  14.750  1.00  0.00     0.120 A 
ATOM     61  C   UNL     1      25.333  36.521  13.575  1.00  0.00     0.139 A 
ATOM     62  N   UNL     1      26.582  35.187  14.820  1.00  0.00    -0.132 NA
ATOM     63  N   UNL     1      26.490  36.301  12.947  1.00  0.00    -0.237 N 
ATOM     64  N   UNL     1      27.233  35.496  13.710  1.00  0.00    -0.066 NA
BRANCH  63  65
ATOM     65  C   UNL     1      26.861  36.852  11.657  1.00  0.00     0.223 C 
BRANCH  65  66
ATOM     66  C   UNL     1      28.352  36.895  11.569  1.00  0.00     0.197 C 
BRANCH  66  67
ATOM     67  O   UNL     1      28.868  38.037  12.129  1.00  0.00    -0.382 OA
ATOM     68  C   UNL     1      28.294  39.163  11.599  1.00  0.00     0.195 C 
ENDBRANCH  66  67
ENDBRANCH  65  66
BRANCH  65  69
ATOM     69  C   UNL     1      26.296  35.924  10.621  1.00  0.00     0.244 C 
ATOM     70  O   UNL     1      25.805  36.412   9.583  1.00  0.00    -0.273 OA
ATOM     71  N   UNL     1      26.337  34.526  10.855  1.00  0.00    -0.368 N 
ATOM     72  H   UNL     1      25.513  33.953  11.100  1.00  0.00     0.159 HD
ATOM     73  H   UNL     1      27.262  34.052  10.775  1.00  0.00     0.159 HD
ENDBRANCH  65  69
ENDBRANCH  63  65
ENDBRANCH  59  60
ENDBRANCH  58  59
ENDBRANCH  55  58
ENDBRANCH  53  54
ENDBRANCH  50  53
ENDBRANCH  47  50
ENDBRANCH   5  47
BRANCH   4  74
ATOM     74  N   UNL     1      32.089  38.424  17.344  1.00  0.00    -0.348 N 
ATOM     75  C   UNL     1      32.011  38.682  18.739  1.00  0.00     0.217 C 
ATOM     76  H   UNL     1      32.182  39.264  16.721  1.00  0.00     0.163 HD
ATOM     77  C   UNL     1      32.051  40.026  19.339  1.00  0.00     0.114 C 
ATOM     78  O   UNL     1      31.902  37.670  19.511  1.00  0.00    -0.275 OA
ENDBRANCH   4  74
TORSDOF 33
BEGIN_RES LYS A 131
REMARK  4 active torsions:
REMARK  status: ('A' for Active; 'I' for Inactive)
REMARK    1  A    between atoms: CA   and  CB  
REMARK    2  A    between atoms: CB   and  CG  
REMARK    3  A    between atoms: CG   and  CD  
REMARK    4  A    between atoms: CD   and  CE  
ROOT
ATOM      1  CA  LYS A 131      29.867  25.555  16.977  1.00 20.52     0.186 C 
ENDROOT
BRANCH   1   2
ATOM      2  CB  LYS A 131      28.345  25.722  17.026  1.00 20.94     0.034 C 
BRANCH   2   3
ATOM      3  CG  LYS A 131      27.601  24.405  16.866  1.00 22.96     0.005 C 
BRANCH   3   4
ATOM      4  CD  LYS A 131      26.157  24.517  17.273  1.00 24.33     0.041 C 
BRANCH   4   5
ATOM      5  CE  LYS A 131      25.996  24.046  18.714  1.00 26.91     0.338 C 
ATOM      6  NZ  LYS A 131      25.087  24.950  19.457  1.00 27.40     0.618 N 
ENDBRANCH   4   5
ENDBRANCH   3   4
ENDBRANCH   2   3
ENDBRANCH   1   2
END_RES LYS A 131
BEGIN_RES LYS A 135
REMARK  4 active torsions:
REMARK  status: ('A' for Active; 'I' for Inactive)
REMARK    5  A    between atoms: CA   and  CB  
REMARK    6  A    between atoms: CB   and  CG  
REMARK    7  A    between atoms: CG   and  CD  
REMARK    8  A    between atoms: CD   and  CE  
ROOT
ATOM      7  CA  LYS A 135      33.193  34.663   9.290  1.00 25.02     0.186 C 
ENDROOT
BRANCH   7   8
ATOM      8  CB  LYS A 135      32.060  35.360  10.034  1.00 26.63     0.034 C 
BRANCH   8   9
ATOM      9  CG  LYS A 135      30.882  35.699   9.157  1.00 29.45     0.005 C 
BRANCH   9  10
ATOM     10  CD  LYS A 135      30.392  34.464   8.417  1.00 32.00     0.041 C 
BRANCH  10  11
ATOM     11  CE  LYS A 135      28.876  34.433   8.378  1.00 34.25     0.338 C 
ATOM     12  NZ  LYS A 135      28.352  35.259   7.255  1.00 35.99     0.618 N 
ENDBRANCH  10  11
ENDBRANCH   9  10
ENDBRANCH   8   9
ENDBRANCH   7   8
END_RES LYS A 135
