REMARK VINA RESULT:    -5.141      2.837      6.771
REMARK INTER + INTRA:         -22.892
REMARK INTER:                 -13.405
REMARK INTRA:                  -9.487
REMARK UNBOUND:                -9.487
REMARK SMILES CC(=O)N[C@@H]1[C@@H](O)C[C@](OC[C@H]2O[C@@H](O[C@H]3[C@H](O)[C@@H](O)[C@H](OCCN=[N+]=[N-])O[C@@H]3CO)[C@H](O)[C@@H](O)[C@H]2O)(C(=O)O)O[C@H]1C(O)[C@H](O)CNC(=O)OCc1cn(Cc2ccc(C(=O)O)cc2)nn1
REMARK SMILES IDX 43 1 42 2 9 3 8 4 41 5 6 6 5 7 10 8 11 9 12 10 14 11 13 12
REMARK SMILES IDX 32 13 34 14 36 15 15 16 16 17 29 18 28 19 21 20 17 21 19 22
REMARK SMILES IDX 30 23 31 24 22 26 23 27 24 28 25 29 26 30 27 31 18 32 20 34
REMARK SMILES IDX 33 36 35 38 37 40 38 42 39 43 40 44 7 46 4 48 2 49 1 51 3 52
REMARK SMILES IDX 44 53 45 55 46 56 47 58 48 59 49 60 50 62 51 63 52 64 53 65
REMARK SMILES IDX 54 66 67 67 55 68 66 69 56 70 57 71 58 72 65 73 59 74 64 75
REMARK SMILES IDX 60 76 61 77 62 78 63 79
REMARK H PARENT 31 25 18 33 20 35 33 37 35 39 37 41 40 45 7 47 4 50 44 54
REMARK H PARENT 46 57 48 61 63 80
REMARK Flexibility Score: inf
ROOT
ATOM      1  C   UNL     1      30.217  39.695   6.543  1.00  0.00     0.176 C 
ENDROOT
BRANCH   1   2
ATOM      2  C   UNL     1      29.290  40.884   6.206  1.00  0.00     0.178 C 
ATOM      3  C   UNL     1      26.954  41.158   6.466  1.00  0.00     0.272 C 
ATOM      4  C   UNL     1      26.863  41.415   5.015  1.00  0.00     0.113 C 
ATOM      5  O   UNL     1      28.159  40.660   6.891  1.00  0.00    -0.332 OA
ATOM      6  C   UNL     1      27.873  40.632   4.202  1.00  0.00     0.145 C 
ATOM      7  C   UNL     1      29.228  40.991   4.738  1.00  0.00     0.142 C 
BRANCH   3   8
ATOM      8  O   UNL     1      26.017  40.248   6.877  1.00  0.00    -0.338 OA
BRANCH   8   9
ATOM      9  C   UNL     1      24.764  40.290   6.376  1.00  0.00     0.199 C 
BRANCH   9  10
ATOM     10  C   UNL     1      23.794  39.524   7.306  1.00  0.00     0.179 C 
ATOM     11  C   UNL     1      23.787  37.834   8.910  1.00  0.00     0.282 C 
ATOM     12  O   UNL     1      24.472  38.497   7.894  1.00  0.00    -0.341 OA
ATOM     13  C   UNL     1      22.353  38.212   9.027  1.00  0.00     0.202 C 
ATOM     14  C   UNL     1      22.271  39.712   9.210  1.00  0.00     0.179 C 
ATOM     15  C   UNL     1      23.186  40.475   8.305  1.00  0.00     0.177 C 
BRANCH  11  16
ATOM     16  O   UNL     1      24.464  38.069  10.106  1.00  0.00    -0.341 OA
BRANCH  16  17
ATOM     17  C   UNL     1      25.299  37.040  10.433  1.00  0.00     0.184 C 
ATOM     18  C   UNL     1      26.699  37.272   9.999  1.00  0.00     0.178 C 
ATOM     19  O   UNL     1      27.567  36.336  10.581  1.00  0.00    -0.341 OA
ATOM     20  C   UNL     1      27.008  35.056  10.562  1.00  0.00     0.281 C 
ATOM     21  C   UNL     1      24.746  35.791   9.721  1.00  0.00     0.180 C 
ATOM     22  C   UNL     1      25.936  34.874   9.529  1.00  0.00     0.202 C 
BRANCH  18  23
ATOM     23  C   UNL     1      27.164  38.642  10.404  1.00  0.00     0.191 C 
BRANCH  23  24
ATOM     24  O   UNL     1      26.758  39.507   9.362  1.00  0.00    -0.394 OA
ATOM     25  H   UNL     1      25.953  39.995   9.621  1.00  0.00     0.210 HD
ENDBRANCH  23  24
ENDBRANCH  18  23
BRANCH  20  26
ATOM     26  O   UNL     1      26.576  34.736  11.828  1.00  0.00    -0.350 OA
BRANCH  26  27
ATOM     27  C   UNL     1      27.390  35.167  12.851  1.00  0.00     0.169 C 
BRANCH  27  28
ATOM     28  C   UNL     1      26.688  35.593  14.096  1.00  0.00     0.119 C 
BRANCH  28  29
ATOM     29  N   UNL     1      25.380  34.918  14.092  1.00  0.00    -0.092 NA
ATOM     30  N   UNL     1      25.122  33.975  14.830  1.00  0.00     0.001 N 
ATOM     31  N   UNL     1      25.147  32.988  15.558  1.00  0.00    -0.003 NA
ENDBRANCH  28  29
ENDBRANCH  27  28
ENDBRANCH  26  27
ENDBRANCH  20  26
BRANCH  21  32
ATOM     32  O   UNL     1      23.762  35.200  10.484  1.00  0.00    -0.387 OA
ATOM     33  H   UNL     1      22.850  35.585  10.275  1.00  0.00     0.211 HD
ENDBRANCH  21  32
BRANCH  22  34
ATOM     34  O   UNL     1      26.420  35.005   8.248  1.00  0.00    -0.385 OA
ATOM     35  H   UNL     1      27.389  35.098   8.217  1.00  0.00     0.211 HD
ENDBRANCH  22  34
ENDBRANCH  16  17
ENDBRANCH  11  16
BRANCH  13  36
ATOM     36  O   UNL     1      21.616  37.823   7.897  1.00  0.00    -0.385 OA
ATOM     37  H   UNL     1      20.681  38.123   8.065  1.00  0.00     0.211 HD
ENDBRANCH  13  36
BRANCH  14  38
ATOM     38  O   UNL     1      22.520  40.076  10.534  1.00  0.00    -0.387 OA
ATOM     39  H   UNL     1      23.056  39.348  10.957  1.00  0.00     0.211 HD
ENDBRANCH  14  38
BRANCH  15  40
ATOM     40  O   UNL     1      24.171  41.175   9.015  1.00  0.00    -0.387 OA
ATOM     41  H   UNL     1      24.391  40.631   9.816  1.00  0.00     0.211 HD
ENDBRANCH  15  40
ENDBRANCH   9  10
ENDBRANCH   8   9
ENDBRANCH   3   8
BRANCH   3  42
ATOM     42  C   UNL     1      26.781  42.471   7.190  1.00  0.00     0.364 C 
ATOM     43  O   UNL     1      26.761  43.556   6.556  1.00  0.00    -0.246 OA
BRANCH  42  44
ATOM     44  O   UNL     1      26.637  42.529   8.566  1.00  0.00    -0.477 OA
ATOM     45  H   UNL     1      25.901  43.153   8.934  1.00  0.00     0.296 HD
ENDBRANCH  42  44
ENDBRANCH   3  42
BRANCH   6  46
ATOM     46  O   UNL     1      27.555  39.297   4.316  1.00  0.00    -0.391 OA
ATOM     47  H   UNL     1      26.909  39.167   5.058  1.00  0.00     0.211 HD
ENDBRANCH   6  46
BRANCH   7  48
ATOM     48  N   UNL     1      29.529  42.359   4.337  1.00  0.00    -0.348 N 
ATOM     49  C   UNL     1      30.742  42.681   3.633  1.00  0.00     0.217 C 
ATOM     50  H   UNL     1      28.910  43.176   4.526  1.00  0.00     0.163 HD
ATOM     51  C   UNL     1      31.015  44.099   3.239  1.00  0.00     0.114 C 
ATOM     52  O   UNL     1      31.537  41.765   3.369  1.00  0.00    -0.275 OA
ENDBRANCH   7  48
ENDBRANCH   1   2
BRANCH   1  53
ATOM     53  O   UNL     1      29.869  38.534   5.933  1.00  0.00    -0.388 OA
ATOM     54  H   UNL     1      28.952  38.476   5.584  1.00  0.00     0.211 HD
ENDBRANCH   1  53
BRANCH   1  55
ATOM     55  C   UNL     1      31.669  40.066   6.361  1.00  0.00     0.165 C 
BRANCH  55  56
ATOM     56  O   UNL     1      32.174  39.400   5.289  1.00  0.00    -0.388 OA
ATOM     57  H   UNL     1      32.865  39.862   4.776  1.00  0.00     0.211 HD
ENDBRANCH  55  56
BRANCH  55  58
ATOM     58  C   UNL     1      32.385  39.977   7.652  1.00  0.00     0.154 C 
BRANCH  58  59
ATOM     59  N   UNL     1      31.961  38.852   8.438  1.00  0.00    -0.319 N 
ATOM     60  C   UNL     1      31.735  38.894   9.832  1.00  0.00     0.407 C 
ATOM     61  H   UNL     1      31.801  37.918   7.969  1.00  0.00     0.167 HD
ATOM     62  O   UNL     1      31.889  39.932  10.494  1.00  0.00    -0.225 OA
BRANCH  60  63
ATOM     63  O   UNL     1      31.317  37.769  10.570  1.00  0.00    -0.443 OA
BRANCH  63  64
ATOM     64  C   UNL     1      30.491  37.941  11.707  1.00  0.00     0.294 C 
BRANCH  64  65
ATOM     65  C   UNL     1      31.138  37.501  12.955  1.00  0.00     0.120 A 
ATOM     66  C   UNL     1      31.958  36.431  13.185  1.00  0.00     0.138 A 
ATOM     67  N   UNL     1      30.988  38.126  14.138  1.00  0.00    -0.132 NA
ATOM     68  N   UNL     1      32.281  36.435  14.497  1.00  0.00    -0.248 N 
ATOM     69  N   UNL     1      31.680  37.472  15.052  1.00  0.00    -0.067 NA
BRANCH  68  70
ATOM     70  C   UNL     1      33.127  35.463  15.140  1.00  0.00     0.181 C 
BRANCH  70  71
ATOM     71  C   UNL     1      32.317  34.400  15.768  1.00  0.00    -0.026 A 
ATOM     72  C   UNL     1      31.947  34.508  17.092  1.00  0.00     0.006 A 
ATOM     73  C   UNL     1      31.940  33.278  15.036  1.00  0.00     0.006 A 
ATOM     74  C   UNL     1      31.205  33.468  17.623  1.00  0.00     0.016 A 
ATOM     75  C   UNL     1      31.203  32.246  15.571  1.00  0.00     0.016 A 
ATOM     76  C   UNL     1      30.835  32.357  16.891  1.00  0.00     0.059 A 
BRANCH  76  77
ATOM     77  C   UNL     1      30.058  31.295  17.512  1.00  0.00     0.335 C 
ATOM     78  O   UNL     1      29.961  31.231  18.745  1.00  0.00    -0.246 OA
BRANCH  77  79
ATOM     79  O   UNL     1      29.430  30.358  16.723  1.00  0.00    -0.478 OA
ATOM     80  H   UNL     1      29.474  30.387  15.705  1.00  0.00     0.297 HD
ENDBRANCH  77  79
ENDBRANCH  76  77
ENDBRANCH  70  71
ENDBRANCH  68  70
ENDBRANCH  64  65
ENDBRANCH  63  64
ENDBRANCH  60  63
ENDBRANCH  58  59
ENDBRANCH  55  58
ENDBRANCH   1  55
TORSDOF 33
BEGIN_RES LYS A 131
REMARK  4 active torsions:
REMARK  status: ('A' for Active; 'I' for Inactive)
REMARK    1  A    between atoms: CA   and  CB  
REMARK    2  A    between atoms: CB   and  CG  
REMARK    3  A    between atoms: CG   and  CD  
REMARK    4  A    between atoms: CD   and  CE  
ROOT
ATOM      1  CA  LYS A 131      29.867  25.555  16.977  1.00 20.52     0.186 C 
ENDROOT
BRANCH   1   2
ATOM      2  CB  LYS A 131      28.345  25.722  17.026  1.00 20.94     0.034 C 
BRANCH   2   3
ATOM      3  CG  LYS A 131      27.602  24.399  16.926  1.00 22.96     0.005 C 
BRANCH   3   4
ATOM      4  CD  LYS A 131      26.268  24.445  17.617  1.00 24.33     0.041 C 
BRANCH   4   5
ATOM      5  CE  LYS A 131      26.285  25.533  18.686  1.00 26.91     0.338 C 
ATOM      6  NZ  LYS A 131      25.007  25.545  19.435  1.00 27.40     0.618 N 
ENDBRANCH   4   5
ENDBRANCH   3   4
ENDBRANCH   2   3
ENDBRANCH   1   2
END_RES LYS A 131
BEGIN_RES LYS A 135
REMARK  4 active torsions:
REMARK  status: ('A' for Active; 'I' for Inactive)
REMARK    5  A    between atoms: CA   and  CB  
REMARK    6  A    between atoms: CB   and  CG  
REMARK    7  A    between atoms: CG   and  CD  
REMARK    8  A    between atoms: CD   and  CE  
ROOT
ATOM      7  CA  LYS A 135      33.193  34.663   9.290  1.00 25.02     0.186 C 
ENDROOT
BRANCH   7   8
ATOM      8  CB  LYS A 135      32.060  35.360  10.034  1.00 26.63     0.034 C 
BRANCH   8   9
ATOM      9  CG  LYS A 135      30.753  34.613   9.978  1.00 29.45     0.005 C 
BRANCH   9  10
ATOM     10  CD  LYS A 135      30.316  34.403   8.536  1.00 32.00     0.041 C 
BRANCH  10  11
ATOM     11  CE  LYS A 135      29.733  35.681   7.965  1.00 34.25     0.338 C 
ATOM     12  NZ  LYS A 135      29.131  35.443   6.623  1.00 35.99     0.618 N 
ENDBRANCH  10  11
ENDBRANCH   9  10
ENDBRANCH   8   9
ENDBRANCH   7   8
END_RES LYS A 135
