REMARK VINA RESULT:    -4.525      6.337     13.452
REMARK INTER + INTRA:         -21.753
REMARK INTER:                 -11.840
REMARK INTRA:                  -9.913
REMARK UNBOUND:               -10.616
REMARK SMILES CC(=O)N[C@@H]1[C@@H](O)C[C@](OC[C@H]2O[C@@H](O[C@H]3[C@H](O)[C@@H](O)[C@H](OCCN=[N+]=[N-])O[C@@H]3CO)[C@H](O)[C@@H](O)[C@H]2O)(C(=O)O)O[C@H]1C(O)[C@H](O)CNC(=O)OCc1cn(C2CCCC2)nn1
REMARK SMILES IDX 9 1 8 2 6 3 5 4 42 5 41 6 10 7 11 8 12 9 14 10 13 11 32 12
REMARK SMILES IDX 34 13 36 14 15 15 16 16 29 17 28 18 21 19 17 20 19 21 30 22
REMARK SMILES IDX 31 23 22 25 23 26 24 27 25 28 26 29 27 30 18 31 20 33 33 35
REMARK SMILES IDX 35 37 37 39 38 41 39 42 40 43 7 45 43 47 44 48 45 50 46 51
REMARK SMILES IDX 47 53 48 54 49 55 50 57 51 58 52 59 53 60 54 61 62 62 55 63
REMARK SMILES IDX 61 64 56 65 57 66 60 67 58 68 59 69 4 70 2 71 1 73 3 74
REMARK H PARENT 31 24 18 32 20 34 33 36 35 38 37 40 40 44 7 46 44 49 46 52
REMARK H PARENT 48 56 4 72
REMARK Flexibility Score: inf
ROOT
ATOM      1  C   UNL     1      30.209  31.158  21.601  1.00  0.00     0.272 C 
ATOM      2  C   UNL     1      30.946  31.588  22.814  1.00  0.00     0.113 C 
ATOM      3  C   UNL     1      32.427  31.597  22.669  1.00  0.00     0.145 C 
ATOM      4  C   UNL     1      32.914  30.257  22.065  1.00  0.00     0.142 C 
ATOM      5  C   UNL     1      31.715  29.401  21.854  1.00  0.00     0.178 C 
ATOM      6  O   UNL     1      30.924  30.149  20.915  1.00  0.00    -0.332 OA
ENDROOT
BRANCH   1   7
ATOM      7  O   UNL     1      29.964  32.153  20.724  1.00  0.00    -0.338 OA
BRANCH   7   8
ATOM      8  C   UNL     1      30.487  32.088  19.458  1.00  0.00     0.199 C 
BRANCH   8   9
ATOM      9  C   UNL     1      29.361  32.424  18.484  1.00  0.00     0.179 C 
ATOM     10  C   UNL     1      30.501  33.284  16.645  1.00  0.00     0.282 C 
ATOM     11  O   UNL     1      29.617  33.499  17.695  1.00  0.00    -0.341 OA
ATOM     12  C   UNL     1      30.443  31.907  16.082  1.00  0.00     0.202 C 
ATOM     13  C   UNL     1      29.150  31.193  16.324  1.00  0.00     0.179 C 
ATOM     14  C   UNL     1      28.894  31.190  17.811  1.00  0.00     0.177 C 
BRANCH  10  15
ATOM     15  O   UNL     1      31.790  33.708  16.961  1.00  0.00    -0.341 OA
BRANCH  15  16
ATOM     16  C   UNL     1      32.131  34.890  16.304  1.00  0.00     0.184 C 
ATOM     17  C   UNL     1      31.214  36.034  16.580  1.00  0.00     0.178 C 
ATOM     18  O   UNL     1      31.612  37.121  15.804  1.00  0.00    -0.341 OA
ATOM     19  C   UNL     1      31.216  36.932  14.492  1.00  0.00     0.281 C 
ATOM     20  C   UNL     1      32.018  34.583  14.816  1.00  0.00     0.180 C 
ATOM     21  C   UNL     1      32.072  35.801  13.951  1.00  0.00     0.202 C 
BRANCH  17  22
ATOM     22  C   UNL     1      31.277  36.533  18.020  1.00  0.00     0.191 C 
BRANCH  22  23
ATOM     23  O   UNL     1      32.592  36.992  18.198  1.00  0.00    -0.394 OA
ATOM     24  H   UNL     1      33.155  36.306  18.594  1.00  0.00     0.210 HD
ENDBRANCH  22  23
ENDBRANCH  17  22
BRANCH  19  25
ATOM     25  O   UNL     1      31.529  38.072  13.757  1.00  0.00    -0.350 OA
BRANCH  25  26
ATOM     26  C   UNL     1      30.347  38.700  13.330  1.00  0.00     0.169 C 
BRANCH  26  27
ATOM     27  C   UNL     1      30.251  38.678  11.815  1.00  0.00     0.119 C 
BRANCH  27  28
ATOM     28  N   UNL     1      29.063  38.004  11.382  1.00  0.00    -0.092 NA
ATOM     29  N   UNL     1      28.629  36.989  11.965  1.00  0.00     0.001 N 
ATOM     30  N   UNL     1      28.543  35.798  12.253  1.00  0.00    -0.003 NA
ENDBRANCH  27  28
ENDBRANCH  26  27
ENDBRANCH  25  26
ENDBRANCH  19  25
BRANCH  20  31
ATOM     31  O   UNL     1      33.106  33.772  14.504  1.00  0.00    -0.387 OA
ATOM     32  H   UNL     1      33.891  33.939  15.083  1.00  0.00     0.211 HD
ENDBRANCH  20  31
BRANCH  21  33
ATOM     33  O   UNL     1      31.547  35.464  12.693  1.00  0.00    -0.385 OA
ATOM     34  H   UNL     1      32.309  35.528  12.062  1.00  0.00     0.211 HD
ENDBRANCH  21  33
ENDBRANCH  15  16
ENDBRANCH  10  15
BRANCH  12  35
ATOM     35  O   UNL     1      30.620  31.921  14.678  1.00  0.00    -0.385 OA
ATOM     36  H   UNL     1      30.764  32.849  14.415  1.00  0.00     0.211 HD
ENDBRANCH  12  35
BRANCH  13  37
ATOM     37  O   UNL     1      29.260  29.883  15.896  1.00  0.00    -0.387 OA
ATOM     38  H   UNL     1      29.220  29.301  16.686  1.00  0.00     0.211 HD
ENDBRANCH  13  37
BRANCH  14  39
ATOM     39  O   UNL     1      29.420  30.019  18.340  1.00  0.00    -0.387 OA
ATOM     40  H   UNL     1      29.148  29.860  19.256  1.00  0.00     0.211 HD
ENDBRANCH  14  39
ENDBRANCH   8   9
ENDBRANCH   7   8
ENDBRANCH   1   7
BRANCH   1  41
ATOM     41  C   UNL     1      28.944  30.450  22.035  1.00  0.00     0.364 C 
ATOM     42  O   UNL     1      28.538  30.467  23.207  1.00  0.00    -0.246 OA
BRANCH  41  43
ATOM     43  O   UNL     1      28.256  29.768  21.028  1.00  0.00    -0.477 OA
ATOM     44  H   UNL     1      28.154  30.216  20.108  1.00  0.00     0.296 HD
ENDBRANCH  41  43
ENDBRANCH   1  41
BRANCH   3  45
ATOM     45  O   UNL     1      32.958  32.675  22.008  1.00  0.00    -0.391 OA
ATOM     46  H   UNL     1      32.797  33.502  22.519  1.00  0.00     0.211 HD
ENDBRANCH   3  45
BRANCH   5  47
ATOM     47  C   UNL     1      31.972  28.097  21.142  1.00  0.00     0.176 C 
BRANCH  47  48
ATOM     48  O   UNL     1      32.228  28.458  19.754  1.00  0.00    -0.388 OA
ATOM     49  H   UNL     1      31.808  29.347  19.686  1.00  0.00     0.211 HD
ENDBRANCH  47  48
BRANCH  47  50
ATOM     50  C   UNL     1      30.789  27.178  21.006  1.00  0.00     0.165 C 
BRANCH  50  51
ATOM     51  O   UNL     1      29.803  27.532  20.155  1.00  0.00    -0.388 OA
ATOM     52  H   UNL     1      28.961  27.034  20.246  1.00  0.00     0.211 HD
ENDBRANCH  50  51
BRANCH  50  53
ATOM     53  C   UNL     1      30.175  27.008  22.391  1.00  0.00     0.154 C 
BRANCH  53  54
ATOM     54  N   UNL     1      28.722  26.857  22.230  1.00  0.00    -0.319 N 
ATOM     55  C   UNL     1      27.844  27.026  23.330  1.00  0.00     0.407 C 
ATOM     56  H   UNL     1      28.296  26.619  21.297  1.00  0.00     0.167 HD
ATOM     57  O   UNL     1      28.325  27.310  24.457  1.00  0.00    -0.225 OA
BRANCH  55  58
ATOM     58  O   UNL     1      26.482  26.886  23.194  1.00  0.00    -0.443 OA
BRANCH  58  59
ATOM     59  C   UNL     1      25.895  25.797  22.508  1.00  0.00     0.294 C 
BRANCH  59  60
ATOM     60  C   UNL     1      25.346  26.170  21.185  1.00  0.00     0.120 A 
ATOM     61  C   UNL     1      25.980  26.590  20.037  1.00  0.00     0.138 A 
ATOM     62  N   UNL     1      24.033  26.158  20.869  1.00  0.00    -0.132 NA
ATOM     63  N   UNL     1      25.063  26.813  19.092  1.00  0.00    -0.249 N 
ATOM     64  N   UNL     1      23.888  26.538  19.633  1.00  0.00    -0.067 NA
BRANCH  63  65
ATOM     65  C   UNL     1      25.264  27.267  17.721  1.00  0.00     0.109 C 
ATOM     66  C   UNL     1      24.065  27.952  17.153  1.00  0.00     0.027 C 
ATOM     67  C   UNL     1      26.343  28.329  17.722  1.00  0.00     0.027 C 
ATOM     68  C   UNL     1      24.229  29.431  17.387  1.00  0.00     0.002 C 
ATOM     69  C   UNL     1      25.646  29.649  17.854  1.00  0.00     0.002 C 
ENDBRANCH  63  65
ENDBRANCH  59  60
ENDBRANCH  58  59
ENDBRANCH  55  58
ENDBRANCH  53  54
ENDBRANCH  50  53
ENDBRANCH  47  50
ENDBRANCH   5  47
BRANCH   4  70
ATOM     70  N   UNL     1      33.949  29.721  22.918  1.00  0.00    -0.348 N 
ATOM     71  C   UNL     1      35.307  30.213  22.804  1.00  0.00     0.217 C 
ATOM     72  H   UNL     1      33.780  28.997  23.646  1.00  0.00     0.163 HD
ATOM     73  C   UNL     1      36.385  29.677  23.670  1.00  0.00     0.114 C 
ATOM     74  O   UNL     1      35.599  31.107  21.965  1.00  0.00    -0.275 OA
ENDBRANCH   4  70
TORSDOF 30
BEGIN_RES LYS A 131
REMARK  4 active torsions:
REMARK  status: ('A' for Active; 'I' for Inactive)
REMARK    1  A    between atoms: CA   and  CB  
REMARK    2  A    between atoms: CB   and  CG  
REMARK    3  A    between atoms: CG   and  CD  
REMARK    4  A    between atoms: CD   and  CE  
ROOT
ATOM      1  CA  LYS A 131      29.867  25.555  16.977  1.00 20.52     0.186 C 
ENDROOT
BRANCH   1   2
ATOM      2  CB  LYS A 131      28.345  25.722  17.026  1.00 20.94     0.034 C 
BRANCH   2   3
ATOM      3  CG  LYS A 131      27.599  24.468  16.598  1.00 22.96     0.005 C 
BRANCH   3   4
ATOM      4  CD  LYS A 131      26.955  23.767  17.762  1.00 24.33     0.041 C 
BRANCH   4   5
ATOM      5  CE  LYS A 131      25.461  23.608  17.498  1.00 26.91     0.338 C 
ATOM      6  NZ  LYS A 131      25.050  22.195  17.672  1.00 27.40     0.618 N 
ENDBRANCH   4   5
ENDBRANCH   3   4
ENDBRANCH   2   3
ENDBRANCH   1   2
END_RES LYS A 131
BEGIN_RES LYS A 135
REMARK  4 active torsions:
REMARK  status: ('A' for Active; 'I' for Inactive)
REMARK    5  A    between atoms: CA   and  CB  
REMARK    6  A    between atoms: CB   and  CG  
REMARK    7  A    between atoms: CG   and  CD  
REMARK    8  A    between atoms: CD   and  CE  
ROOT
ATOM      7  CA  LYS A 135      33.193  34.663   9.290  1.00 25.02     0.186 C 
ENDROOT
BRANCH   7   8
ATOM      8  CB  LYS A 135      32.060  35.360  10.034  1.00 26.63     0.034 C 
BRANCH   8   9
ATOM      9  CG  LYS A 135      30.883  35.700   9.157  1.00 29.45     0.005 C 
BRANCH   9  10
ATOM     10  CD  LYS A 135      30.387  34.465   8.421  1.00 32.00     0.041 C 
BRANCH  10  11
ATOM     11  CE  LYS A 135      28.872  34.461   8.346  1.00 34.25     0.338 C 
ATOM     12  NZ  LYS A 135      28.280  33.736   9.505  1.00 35.99     0.618 N 
ENDBRANCH  10  11
ENDBRANCH   9  10
ENDBRANCH   8   9
ENDBRANCH   7   8
END_RES LYS A 135
