REMARK VINA RESULT:    -3.840      2.993      5.789
REMARK INTER + INTRA:         -22.147
REMARK INTER:                 -10.303
REMARK INTRA:                 -11.844
REMARK UNBOUND:               -12.359
REMARK SMILES CC(=O)N[C@@H]1[C@@H](O)C[C@](OC[C@H]2O[C@@H](O[C@H]3[C@H](O)[C@@H](O)[C@H](OCCN=[N+]=[N-])O[C@@H]3CO)[C@H](O)[C@@H](O)[C@H]2O)(C(=O)O)O[C@H]1C(O)[C@H](O)CNC(=O)OCc1cn(CC(=O)O)nn1
REMARK SMILES IDX 9 1 8 2 6 3 5 4 42 5 41 6 10 7 11 8 12 9 14 10 13 11 32 12
REMARK SMILES IDX 34 13 36 14 15 15 16 16 29 17 28 18 21 19 17 20 19 21 30 22
REMARK SMILES IDX 31 23 22 25 23 26 24 27 25 28 26 29 27 30 18 31 20 33 33 35
REMARK SMILES IDX 35 37 37 39 38 41 39 42 40 43 7 45 43 47 44 48 45 50 46 51
REMARK SMILES IDX 47 53 48 54 49 55 50 57 51 58 52 59 53 60 54 61 61 62 55 63
REMARK SMILES IDX 60 64 56 65 57 66 58 67 59 68 4 70 2 71 1 73 3 74
REMARK H PARENT 31 24 18 32 20 34 33 36 35 38 37 40 40 44 7 46 44 49 46 52
REMARK H PARENT 48 56 59 69 4 72
REMARK Flexibility Score: inf
ROOT
ATOM      1  C   UNL     1      27.562  36.277   7.748  1.00  0.00     0.272 C 
ATOM      2  C   UNL     1      27.280  34.893   8.258  1.00  0.00     0.113 C 
ATOM      3  C   UNL     1      27.290  34.709   9.717  1.00  0.00     0.145 C 
ATOM      4  C   UNL     1      27.966  35.810  10.527  1.00  0.00     0.142 C 
ATOM      5  C   UNL     1      28.920  36.491   9.596  1.00  0.00     0.178 C 
ATOM      6  O   UNL     1      28.049  37.140   8.680  1.00  0.00    -0.332 OA
ENDROOT
BRANCH   1   7
ATOM      7  O   UNL     1      26.419  36.857   7.157  1.00  0.00    -0.338 OA
BRANCH   7   8
ATOM      8  C   UNL     1      26.129  38.115   7.587  1.00  0.00     0.199 C 
BRANCH   8   9
ATOM      9  C   UNL     1      24.655  38.181   8.020  1.00  0.00     0.179 C 
ATOM     10  C   UNL     1      23.438  36.874   9.480  1.00  0.00     0.282 C 
ATOM     11  O   UNL     1      24.107  36.939   8.217  1.00  0.00    -0.341 OA
ATOM     12  C   UNL     1      24.522  37.009  10.485  1.00  0.00     0.202 C 
ATOM     13  C   UNL     1      24.892  38.501  10.509  1.00  0.00     0.179 C 
ATOM     14  C   UNL     1      24.504  39.125   9.196  1.00  0.00     0.177 C 
BRANCH  10  15
ATOM     15  O   UNL     1      22.699  35.728   9.495  1.00  0.00    -0.341 OA
BRANCH  15  16
ATOM     16  C   UNL     1      21.321  35.944   9.517  1.00  0.00     0.184 C 
ATOM     17  C   UNL     1      20.702  34.946  10.452  1.00  0.00     0.178 C 
ATOM     18  O   UNL     1      19.425  34.636  10.073  1.00  0.00    -0.341 OA
ATOM     19  C   UNL     1      18.664  35.651   9.552  1.00  0.00     0.281 C 
ATOM     20  C   UNL     1      20.713  35.750   8.144  1.00  0.00     0.180 C 
ATOM     21  C   UNL     1      19.247  36.179   8.252  1.00  0.00     0.202 C 
BRANCH  17  22
ATOM     22  C   UNL     1      20.691  35.519  11.857  1.00  0.00     0.191 C 
BRANCH  22  23
ATOM     23  O   UNL     1      21.171  36.826  11.746  1.00  0.00    -0.394 OA
ATOM     24  H   UNL     1      20.452  37.443  11.486  1.00  0.00     0.210 HD
ENDBRANCH  22  23
ENDBRANCH  17  22
BRANCH  19  25
ATOM     25  O   UNL     1      18.459  36.638  10.477  1.00  0.00    -0.350 OA
BRANCH  25  26
ATOM     26  C   UNL     1      18.042  37.835   9.952  1.00  0.00     0.169 C 
BRANCH  26  27
ATOM     27  C   UNL     1      18.529  39.052  10.693  1.00  0.00     0.119 C 
BRANCH  27  28
ATOM     28  N   UNL     1      19.978  39.213  10.550  1.00  0.00    -0.092 NA
ATOM     29  N   UNL     1      20.375  39.494   9.401  1.00  0.00     0.001 N 
ATOM     30  N   UNL     1      21.110  39.409   8.398  1.00  0.00    -0.003 NA
ENDBRANCH  27  28
ENDBRANCH  26  27
ENDBRANCH  25  26
ENDBRANCH  19  25
BRANCH  20  31
ATOM     31  O   UNL     1      21.291  36.528   7.172  1.00  0.00    -0.387 OA
ATOM     32  H   UNL     1      21.994  36.103   6.655  1.00  0.00     0.211 HD
ENDBRANCH  20  31
BRANCH  21  33
ATOM     33  O   UNL     1      18.507  35.705   7.186  1.00  0.00    -0.385 OA
ATOM     34  H   UNL     1      18.667  36.233   6.363  1.00  0.00     0.211 HD
ENDBRANCH  21  33
ENDBRANCH  15  16
ENDBRANCH  10  15
BRANCH  12  35
ATOM     35  O   UNL     1      24.288  36.506  11.731  1.00  0.00    -0.385 OA
ATOM     36  H   UNL     1      24.007  37.210  12.337  1.00  0.00     0.211 HD
ENDBRANCH  12  35
BRANCH  13  37
ATOM     37  O   UNL     1      26.263  38.573  10.707  1.00  0.00    -0.387 OA
ATOM     38  H   UNL     1      26.782  38.445   9.864  1.00  0.00     0.211 HD
ENDBRANCH  13  37
BRANCH  14  39
ATOM     39  O   UNL     1      25.374  40.197   8.998  1.00  0.00    -0.387 OA
ATOM     40  H   UNL     1      25.492  40.416   8.044  1.00  0.00     0.211 HD
ENDBRANCH  14  39
ENDBRANCH   8   9
ENDBRANCH   7   8
ENDBRANCH   1   7
BRANCH   1  41
ATOM     41  C   UNL     1      28.546  36.168   6.646  1.00  0.00     0.364 C 
ATOM     42  O   UNL     1      28.463  36.873   5.623  1.00  0.00    -0.246 OA
BRANCH  41  43
ATOM     43  O   UNL     1      29.606  35.278   6.702  1.00  0.00    -0.477 OA
ATOM     44  H   UNL     1      29.877  34.787   7.563  1.00  0.00     0.296 HD
ENDBRANCH  41  43
ENDBRANCH   1  41
BRANCH   3  45
ATOM     45  O   UNL     1      26.052  34.353  10.263  1.00  0.00    -0.391 OA
ATOM     46  H   UNL     1      25.351  34.226   9.602  1.00  0.00     0.211 HD
ENDBRANCH   3  45
BRANCH   5  47
ATOM     47  C   UNL     1      29.843  37.506  10.178  1.00  0.00     0.176 C 
BRANCH  47  48
ATOM     48  O   UNL     1      28.971  38.505  10.727  1.00  0.00    -0.388 OA
ATOM     49  H   UNL     1      28.023  38.218  10.596  1.00  0.00     0.211 HD
ENDBRANCH  47  48
BRANCH  47  50
ATOM     50  C   UNL     1      30.742  38.184   9.168  1.00  0.00     0.165 C 
BRANCH  50  51
ATOM     51  O   UNL     1      31.249  37.202   8.278  1.00  0.00    -0.388 OA
ATOM     52  H   UNL     1      31.389  36.384   8.803  1.00  0.00     0.211 HD
ENDBRANCH  50  51
BRANCH  50  53
ATOM     53  C   UNL     1      31.870  38.918   9.779  1.00  0.00     0.154 C 
BRANCH  53  54
ATOM     54  N   UNL     1      31.497  40.222  10.246  1.00  0.00    -0.319 N 
ATOM     55  C   UNL     1      31.477  41.424   9.503  1.00  0.00     0.407 C 
ATOM     56  H   UNL     1      31.183  40.363  11.273  1.00  0.00     0.167 HD
ATOM     57  O   UNL     1      31.811  41.457   8.316  1.00  0.00    -0.225 OA
BRANCH  55  58
ATOM     58  O   UNL     1      31.080  42.641  10.069  1.00  0.00    -0.443 OA
BRANCH  58  59
ATOM     59  C   UNL     1      29.780  43.159   9.848  1.00  0.00     0.294 C 
BRANCH  59  60
ATOM     60  C   UNL     1      28.779  42.449  10.704  1.00  0.00     0.120 A 
ATOM     61  C   UNL     1      28.536  42.673  12.052  1.00  0.00     0.139 A 
ATOM     62  N   UNL     1      27.933  41.473  10.344  1.00  0.00    -0.132 NA
ATOM     63  N   UNL     1      27.563  41.831  12.447  1.00  0.00    -0.241 N 
ATOM     64  N   UNL     1      27.214  41.111  11.392  1.00  0.00    -0.066 NA
BRANCH  63  65
ATOM     65  C   UNL     1      26.975  41.707  13.784  1.00  0.00     0.268 C 
BRANCH  65  66
ATOM     66  C   UNL     1      27.022  40.286  14.172  1.00  0.00     0.325 C 
ATOM     67  O   UNL     1      27.888  39.881  14.962  1.00  0.00    -0.250 OA
BRANCH  66  68
ATOM     68  O   UNL     1      26.097  39.404  13.653  1.00  0.00    -0.480 OA
ATOM     69  H   UNL     1      25.472  38.870  14.220  1.00  0.00     0.296 HD
ENDBRANCH  66  68
ENDBRANCH  65  66
ENDBRANCH  63  65
ENDBRANCH  59  60
ENDBRANCH  58  59
ENDBRANCH  55  58
ENDBRANCH  53  54
ENDBRANCH  50  53
ENDBRANCH  47  50
ENDBRANCH   5  47
BRANCH   4  70
ATOM     70  N   UNL     1      28.481  35.307  11.754  1.00  0.00    -0.348 N 
ATOM     71  C   UNL     1      28.237  35.954  13.015  1.00  0.00     0.217 C 
ATOM     72  H   UNL     1      29.045  34.435  11.782  1.00  0.00     0.163 HD
ATOM     73  C   UNL     1      28.811  35.359  14.244  1.00  0.00     0.114 C 
ATOM     74  O   UNL     1      27.552  37.002  13.081  1.00  0.00    -0.275 OA
ENDBRANCH   4  70
TORSDOF 32
BEGIN_RES LYS A 131
REMARK  4 active torsions:
REMARK  status: ('A' for Active; 'I' for Inactive)
REMARK    1  A    between atoms: CA   and  CB  
REMARK    2  A    between atoms: CB   and  CG  
REMARK    3  A    between atoms: CG   and  CD  
REMARK    4  A    between atoms: CD   and  CE  
ROOT
ATOM      1  CA  LYS A 131      29.867  25.555  16.977  1.00 20.52     0.186 C 
ENDROOT
BRANCH   1   2
ATOM      2  CB  LYS A 131      28.345  25.722  17.026  1.00 20.94     0.034 C 
BRANCH   2   3
ATOM      3  CG  LYS A 131      27.601  24.402  16.889  1.00 22.96     0.005 C 
BRANCH   3   4
ATOM      4  CD  LYS A 131      26.145  24.534  17.240  1.00 24.33     0.041 C 
BRANCH   4   5
ATOM      5  CE  LYS A 131      25.569  23.155  17.546  1.00 26.91     0.338 C 
ATOM      6  NZ  LYS A 131      24.155  23.075  17.109  1.00 27.40     0.618 N 
ENDBRANCH   4   5
ENDBRANCH   3   4
ENDBRANCH   2   3
ENDBRANCH   1   2
END_RES LYS A 131
BEGIN_RES LYS A 135
REMARK  4 active torsions:
REMARK  status: ('A' for Active; 'I' for Inactive)
REMARK    5  A    between atoms: CA   and  CB  
REMARK    6  A    between atoms: CB   and  CG  
REMARK    7  A    between atoms: CG   and  CD  
REMARK    8  A    between atoms: CD   and  CE  
ROOT
ATOM      7  CA  LYS A 135      33.193  34.663   9.290  1.00 25.02     0.186 C 
ENDROOT
BRANCH   7   8
ATOM      8  CB  LYS A 135      32.060  35.360  10.034  1.00 26.63     0.034 C 
BRANCH   8   9
ATOM      9  CG  LYS A 135      31.984  34.995  11.494  1.00 29.45     0.005 C 
BRANCH   9  10
ATOM     10  CD  LYS A 135      32.440  36.157  12.362  1.00 32.00     0.041 C 
BRANCH  10  11
ATOM     11  CE  LYS A 135      32.546  35.729  13.813  1.00 34.25     0.338 C 
ATOM     12  NZ  LYS A 135      32.230  36.858  14.731  1.00 35.99     0.618 N 
ENDBRANCH  10  11
ENDBRANCH   9  10
ENDBRANCH   8   9
ENDBRANCH   7   8
END_RES LYS A 135
