REMARK VINA RESULT:    -4.800      3.236      6.940
REMARK INTER + INTRA:         -22.752
REMARK INTER:                 -11.588
REMARK INTRA:                 -11.164
REMARK UNBOUND:               -10.516
REMARK SMILES CC(=O)N[C@@H]1[C@@H](O)C[C@](OC[C@H]2O[C@@H](O[C@H]3[C@H](O)[C@@H](O)[C@H](OCCN=[N+]=[N-])O[C@@H]3CO)[C@H](O)[C@@H](O)[C@H]2O)(C(=O)O)O[C@H]1C(O)[C@H](O)CNC(=O)OCc1cn(C(C)(C)C(=O)O)nn1
REMARK SMILES IDX 9 1 8 2 6 3 5 4 42 5 41 6 10 7 11 8 12 9 14 10 13 11 32 12
REMARK SMILES IDX 34 13 36 14 15 15 16 16 29 17 28 18 21 19 17 20 19 21 30 22
REMARK SMILES IDX 31 23 22 25 23 26 24 27 25 28 26 29 27 30 18 31 20 33 33 35
REMARK SMILES IDX 35 37 37 39 38 41 39 42 40 43 7 45 43 47 44 48 45 50 46 51
REMARK SMILES IDX 47 53 48 54 49 55 50 57 51 58 52 59 53 60 54 61 63 62 55 63
REMARK SMILES IDX 62 64 56 65 57 66 58 67 59 68 60 69 61 70 4 72 2 73 1 75
REMARK SMILES IDX 3 76
REMARK H PARENT 31 24 18 32 20 34 33 36 35 38 37 40 40 44 7 46 44 49 46 52
REMARK H PARENT 48 56 61 71 4 74
REMARK Flexibility Score: inf
ROOT
ATOM      1  C   UNL     1      29.250  36.114   7.917  1.00  0.00     0.272 C 
ATOM      2  C   UNL     1      28.717  36.041   6.546  1.00  0.00     0.113 C 
ATOM      3  C   UNL     1      27.588  36.987   6.249  1.00  0.00     0.145 C 
ATOM      4  C   UNL     1      26.854  37.323   7.511  1.00  0.00     0.142 C 
ATOM      5  C   UNL     1      27.007  36.087   8.417  1.00  0.00     0.178 C 
ATOM      6  O   UNL     1      28.284  36.119   8.928  1.00  0.00    -0.332 OA
ENDROOT
BRANCH   1   7
ATOM      7  O   UNL     1      30.095  37.157   8.148  1.00  0.00    -0.338 OA
BRANCH   7   8
ATOM      8  C   UNL     1      30.779  37.193   9.322  1.00  0.00     0.199 C 
BRANCH   8   9
ATOM      9  C   UNL     1      30.815  38.591   9.898  1.00  0.00     0.179 C 
ATOM     10  C   UNL     1      30.675  40.801   9.245  1.00  0.00     0.282 C 
ATOM     11  O   UNL     1      30.402  39.436   8.869  1.00  0.00    -0.341 OA
ATOM     12  C   UNL     1      29.715  41.130  10.324  1.00  0.00     0.202 C 
ATOM     13  C   UNL     1      28.963  39.896  10.819  1.00  0.00     0.179 C 
ATOM     14  C   UNL     1      29.918  38.738  11.069  1.00  0.00     0.177 C 
BRANCH  10  15
ATOM     15  O   UNL     1      30.590  41.476   8.065  1.00  0.00    -0.341 OA
BRANCH  15  16
ATOM     16  C   UNL     1      29.719  40.935   7.136  1.00  0.00     0.184 C 
ATOM     17  C   UNL     1      30.268  41.128   5.757  1.00  0.00     0.178 C 
ATOM     18  O   UNL     1      29.256  41.057   4.787  1.00  0.00    -0.341 OA
ATOM     19  C   UNL     1      28.441  42.179   4.781  1.00  0.00     0.281 C 
ATOM     20  C   UNL     1      28.368  41.649   7.192  1.00  0.00     0.180 C 
ATOM     21  C   UNL     1      28.338  42.761   6.175  1.00  0.00     0.202 C 
BRANCH  17  22
ATOM     22  C   UNL     1      31.241  39.999   5.375  1.00  0.00     0.191 C 
BRANCH  22  23
ATOM     23  O   UNL     1      30.987  38.935   6.216  1.00  0.00    -0.394 OA
ATOM     24  H   UNL     1      31.266  38.091   5.750  1.00  0.00     0.210 HD
ENDBRANCH  22  23
ENDBRANCH  17  22
BRANCH  19  25
ATOM     25  O   UNL     1      27.197  41.754   4.317  1.00  0.00    -0.350 OA
BRANCH  25  26
ATOM     26  C   UNL     1      26.298  42.759   4.071  1.00  0.00     0.169 C 
BRANCH  26  27
ATOM     27  C   UNL     1      24.907  42.154   4.311  1.00  0.00     0.119 C 
BRANCH  27  28
ATOM     28  N   UNL     1      24.766  41.627   5.648  1.00  0.00    -0.092 NA
ATOM     29  N   UNL     1      24.637  42.431   6.584  1.00  0.00     0.001 N 
ATOM     30  N   UNL     1      24.756  43.231   7.502  1.00  0.00    -0.003 NA
ENDBRANCH  27  28
ENDBRANCH  26  27
ENDBRANCH  25  26
ENDBRANCH  19  25
BRANCH  20  31
ATOM     31  O   UNL     1      27.358  40.748   6.871  1.00  0.00    -0.387 OA
ATOM     32  H   UNL     1      26.564  40.832   7.454  1.00  0.00     0.211 HD
ENDBRANCH  20  31
BRANCH  21  33
ATOM     33  O   UNL     1      29.386  43.630   6.451  1.00  0.00    -0.385 OA
ATOM     34  H   UNL     1      30.274  43.202   6.409  1.00  0.00     0.211 HD
ENDBRANCH  21  33
ENDBRANCH  15  16
ENDBRANCH  10  15
BRANCH  12  35
ATOM     35  O   UNL     1      30.448  41.569  11.448  1.00  0.00    -0.385 OA
ATOM     36  H   UNL     1      30.288  42.494  11.688  1.00  0.00     0.211 HD
ENDBRANCH  12  35
BRANCH  13  37
ATOM     37  O   UNL     1      27.965  39.550   9.929  1.00  0.00    -0.387 OA
ATOM     38  H   UNL     1      28.282  38.847   9.305  1.00  0.00     0.211 HD
ENDBRANCH  13  37
BRANCH  14  39
ATOM     39  O   UNL     1      29.139  37.607  11.253  1.00  0.00    -0.387 OA
ATOM     40  H   UNL     1      28.993  37.496  12.236  1.00  0.00     0.211 HD
ENDBRANCH  14  39
ENDBRANCH   8   9
ENDBRANCH   7   8
ENDBRANCH   1   7
BRANCH   1  41
ATOM     41  C   UNL     1      29.987  34.793   8.167  1.00  0.00     0.364 C 
ATOM     42  O   UNL     1      29.493  33.932   8.927  1.00  0.00    -0.246 OA
BRANCH  41  43
ATOM     43  O   UNL     1      31.201  34.527   7.565  1.00  0.00    -0.477 OA
ATOM     44  H   UNL     1      31.562  35.037   6.775  1.00  0.00     0.296 HD
ENDBRANCH  41  43
ENDBRANCH   1  41
BRANCH   3  45
ATOM     45  O   UNL     1      28.100  38.145   5.701  1.00  0.00    -0.391 OA
ATOM     46  H   UNL     1      27.927  38.943   6.266  1.00  0.00     0.211 HD
ENDBRANCH   3  45
BRANCH   5  47
ATOM     47  C   UNL     1      25.988  36.084   9.521  1.00  0.00     0.176 C 
BRANCH  47  48
ATOM     48  O   UNL     1      24.943  35.226   9.186  1.00  0.00    -0.388 OA
ATOM     49  H   UNL     1      25.190  34.657   8.398  1.00  0.00     0.211 HD
ENDBRANCH  47  48
BRANCH  47  50
ATOM     50  C   UNL     1      26.615  35.579  10.800  1.00  0.00     0.165 C 
BRANCH  50  51
ATOM     51  O   UNL     1      26.602  34.179  10.846  1.00  0.00    -0.388 OA
ATOM     52  H   UNL     1      27.426  33.881  11.292  1.00  0.00     0.211 HD
ENDBRANCH  50  51
BRANCH  50  53
ATOM     53  C   UNL     1      25.929  36.100  12.034  1.00  0.00     0.154 C 
BRANCH  53  54
ATOM     54  N   UNL     1      24.702  36.786  11.709  1.00  0.00    -0.319 N 
ATOM     55  C   UNL     1      24.651  38.194  11.576  1.00  0.00     0.407 C 
ATOM     56  H   UNL     1      23.825  36.245  11.566  1.00  0.00     0.167 HD
ATOM     57  O   UNL     1      25.667  38.918  11.732  1.00  0.00    -0.225 OA
BRANCH  55  58
ATOM     58  O   UNL     1      23.451  38.849  11.263  1.00  0.00    -0.443 OA
BRANCH  58  59
ATOM     59  C   UNL     1      22.222  38.310  11.762  1.00  0.00     0.294 C 
BRANCH  59  60
ATOM     60  C   UNL     1      21.583  37.442  10.774  1.00  0.00     0.120 A 
ATOM     61  C   UNL     1      20.283  37.513  10.346  1.00  0.00     0.139 A 
ATOM     62  N   UNL     1      22.156  36.428  10.121  1.00  0.00    -0.132 NA
ATOM     63  N   UNL     1      20.086  36.538   9.436  1.00  0.00    -0.235 N 
ATOM     64  N   UNL     1      21.258  35.903   9.331  1.00  0.00    -0.066 NA
BRANCH  63  65
ATOM     65  C   UNL     1      18.890  36.198   8.694  1.00  0.00     0.155 C 
ATOM     66  C   UNL     1      18.658  37.190   7.593  1.00  0.00     0.049 C 
ATOM     67  C   UNL     1      17.667  36.214   9.606  1.00  0.00     0.049 C 
BRANCH  65  68
ATOM     68  C   UNL     1      19.050  34.819   8.181  1.00  0.00     0.331 C 
ATOM     69  O   UNL     1      18.390  33.901   8.690  1.00  0.00    -0.250 OA
BRANCH  68  70
ATOM     70  O   UNL     1      19.935  34.589   7.142  1.00  0.00    -0.479 OA
ATOM     71  H   UNL     1      19.745  33.930   6.395  1.00  0.00     0.296 HD
ENDBRANCH  68  70
ENDBRANCH  65  68
ENDBRANCH  63  65
ENDBRANCH  59  60
ENDBRANCH  58  59
ENDBRANCH  55  58
ENDBRANCH  53  54
ENDBRANCH  50  53
ENDBRANCH  47  50
ENDBRANCH   5  47
BRANCH   4  72
ATOM     72  N   UNL     1      25.439  37.491   7.306  1.00  0.00    -0.348 N 
ATOM     73  C   UNL     1      24.695  38.614   7.767  1.00  0.00     0.217 C 
ATOM     74  H   UNL     1      24.927  36.751   6.788  1.00  0.00     0.163 HD
ATOM     75  C   UNL     1      23.224  38.711   7.512  1.00  0.00     0.114 C 
ATOM     76  O   UNL     1      25.288  39.530   8.394  1.00  0.00    -0.275 OA
ENDBRANCH   4  72
TORSDOF 32
BEGIN_RES LYS A 131
REMARK  4 active torsions:
REMARK  status: ('A' for Active; 'I' for Inactive)
REMARK    1  A    between atoms: CA   and  CB  
REMARK    2  A    between atoms: CB   and  CG  
REMARK    3  A    between atoms: CG   and  CD  
REMARK    4  A    between atoms: CD   and  CE  
ROOT
ATOM      1  CA  LYS A 131      29.867  25.555  16.977  1.00 20.52     0.186 C 
ENDROOT
BRANCH   1   2
ATOM      2  CB  LYS A 131      28.345  25.722  17.026  1.00 20.94     0.034 C 
BRANCH   2   3
ATOM      3  CG  LYS A 131      27.601  24.405  16.869  1.00 22.96     0.005 C 
BRANCH   3   4
ATOM      4  CD  LYS A 131      26.523  24.236  17.904  1.00 24.33     0.041 C 
BRANCH   4   5
ATOM      5  CE  LYS A 131      25.163  24.176  17.216  1.00 26.91     0.338 C 
ATOM      6  NZ  LYS A 131      24.517  22.864  17.459  1.00 27.40     0.618 N 
ENDBRANCH   4   5
ENDBRANCH   3   4
ENDBRANCH   2   3
ENDBRANCH   1   2
END_RES LYS A 131
BEGIN_RES LYS A 135
REMARK  4 active torsions:
REMARK  status: ('A' for Active; 'I' for Inactive)
REMARK    5  A    between atoms: CA   and  CB  
REMARK    6  A    between atoms: CB   and  CG  
REMARK    7  A    between atoms: CG   and  CD  
REMARK    8  A    between atoms: CD   and  CE  
ROOT
ATOM      7  CA  LYS A 135      33.193  34.663   9.290  1.00 25.02     0.186 C 
ENDROOT
BRANCH   7   8
ATOM      8  CB  LYS A 135      32.060  35.360  10.034  1.00 26.63     0.034 C 
BRANCH   8   9
ATOM      9  CG  LYS A 135      31.972  34.981  11.490  1.00 29.45     0.005 C 
BRANCH   9  10
ATOM     10  CD  LYS A 135      32.607  36.052  12.363  1.00 32.00     0.041 C 
BRANCH  10  11
ATOM     11  CE  LYS A 135      32.688  35.586  13.804  1.00 34.25     0.338 C 
ATOM     12  NZ  LYS A 135      31.438  34.890  14.214  1.00 35.99     0.618 N 
ENDBRANCH  10  11
ENDBRANCH   9  10
ENDBRANCH   8   9
ENDBRANCH   7   8
END_RES LYS A 135
