REMARK VINA RESULT:    -4.345      4.258     10.267
REMARK INTER + INTRA:         -24.456
REMARK INTER:                 -13.464
REMARK INTRA:                 -10.992
REMARK UNBOUND:               -13.000
REMARK SMILES CC(=O)N[C@@H]1[C@@H](O)C[C@](OC[C@H]2O[C@@H](O[C@H]3[C@H](O)[C@@H](O)[C@H](OCCN=[N+]=[N-])O[C@@H]3CO)[C@H](O)[C@@H](O)[C@H]2O)(C(=O)O)O[C@H]1C(O)[C@H](O)CNC(=O)OCc1cn(C(C)CC(=O)c2ccccc2)nn1
REMARK SMILES IDX 43 1 42 2 9 3 8 4 41 5 6 6 5 7 10 8 11 9 12 10 14 11 13 12
REMARK SMILES IDX 32 13 34 14 36 15 15 16 16 17 29 18 28 19 21 20 17 21 19 22
REMARK SMILES IDX 30 23 31 24 22 26 23 27 24 28 25 29 26 30 27 31 18 32 20 34
REMARK SMILES IDX 33 36 35 38 37 40 38 42 39 43 40 44 7 46 4 48 2 49 1 51 3 52
REMARK SMILES IDX 44 53 45 55 46 56 47 58 48 59 49 60 50 62 51 63 52 64 53 65
REMARK SMILES IDX 54 66 68 67 55 68 67 69 56 70 57 71 58 72 59 73 60 74 61 75
REMARK SMILES IDX 62 76 66 77 63 78 65 79 64 80
REMARK H PARENT 31 25 18 33 20 35 33 37 35 39 37 41 40 45 7 47 4 50 44 54
REMARK H PARENT 46 57 48 61
REMARK Flexibility Score: inf
ROOT
ATOM      1  C   UNL     1      30.515  31.292  18.936  1.00  0.00     0.176 C 
ENDROOT
BRANCH   1   2
ATOM      2  C   UNL     1      29.672  32.479  19.106  1.00  0.00     0.178 C 
ATOM      3  C   UNL     1      28.225  33.081  17.343  1.00  0.00     0.272 C 
ATOM      4  C   UNL     1      28.325  34.540  17.630  1.00  0.00     0.113 C 
ATOM      5  O   UNL     1      28.422  32.452  18.627  1.00  0.00    -0.332 OA
ATOM      6  C   UNL     1      29.391  34.832  18.669  1.00  0.00     0.145 C 
ATOM      7  C   UNL     1      30.423  33.769  18.702  1.00  0.00     0.142 C 
BRANCH   3   8
ATOM      8  O   UNL     1      29.006  32.476  16.498  1.00  0.00    -0.338 OA
BRANCH   8   9
ATOM      9  C   UNL     1      29.175  32.362  15.228  1.00  0.00     0.199 C 
BRANCH   9  10
ATOM     10  C   UNL     1      29.815  33.334  14.291  1.00  0.00     0.179 C 
ATOM     11  C   UNL     1      29.135  35.317  13.190  1.00  0.00     0.282 C 
ATOM     12  O   UNL     1      28.874  34.145  13.795  1.00  0.00    -0.341 OA
ATOM     13  C   UNL     1      30.021  36.180  14.026  1.00  0.00     0.202 C 
ATOM     14  C   UNL     1      31.119  35.452  14.657  1.00  0.00     0.179 C 
ATOM     15  C   UNL     1      31.084  33.962  14.713  1.00  0.00     0.177 C 
BRANCH  11  16
ATOM     16  O   UNL     1      27.865  35.929  13.011  1.00  0.00    -0.341 OA
BRANCH  16  17
ATOM     17  C   UNL     1      27.528  35.892  11.680  1.00  0.00     0.184 C 
ATOM     18  C   UNL     1      26.469  36.905  11.353  1.00  0.00     0.178 C 
ATOM     19  O   UNL     1      25.270  36.620  11.988  1.00  0.00    -0.341 OA
ATOM     20  C   UNL     1      24.744  35.380  11.796  1.00  0.00     0.281 C 
ATOM     21  C   UNL     1      26.994  34.482  11.351  1.00  0.00     0.180 C 
ATOM     22  C   UNL     1      25.679  34.239  11.997  1.00  0.00     0.202 C 
BRANCH  18  23
ATOM     23  C   UNL     1      26.290  37.063   9.857  1.00  0.00     0.191 C 
BRANCH  23  24
ATOM     24  O   UNL     1      25.833  38.326   9.505  1.00  0.00    -0.394 OA
ATOM     25  H   UNL     1      26.075  38.506   8.557  1.00  0.00     0.210 HD
ENDBRANCH  23  24
ENDBRANCH  18  23
BRANCH  20  26
ATOM     26  O   UNL     1      24.023  35.228  10.639  1.00  0.00    -0.350 OA
BRANCH  26  27
ATOM     27  C   UNL     1      22.810  35.859  10.614  1.00  0.00     0.169 C 
BRANCH  27  28
ATOM     28  C   UNL     1      22.087  35.687   9.305  1.00  0.00     0.119 C 
BRANCH  28  29
ATOM     29  N   UNL     1      21.761  37.002   8.784  1.00  0.00    -0.092 NA
ATOM     30  N   UNL     1      22.641  37.682   8.263  1.00  0.00     0.001 N 
ATOM     31  N   UNL     1      23.480  38.260   7.570  1.00  0.00    -0.003 NA
ENDBRANCH  28  29
ENDBRANCH  27  28
ENDBRANCH  26  27
ENDBRANCH  20  26
BRANCH  21  32
ATOM     32  O   UNL     1      26.987  34.267   9.978  1.00  0.00    -0.387 OA
ATOM     33  H   UNL     1      27.848  34.497   9.554  1.00  0.00     0.211 HD
ENDBRANCH  21  32
BRANCH  22  34
ATOM     34  O   UNL     1      25.809  33.862  13.335  1.00  0.00    -0.385 OA
ATOM     35  H   UNL     1      25.807  32.871  13.333  1.00  0.00     0.211 HD
ENDBRANCH  22  34
ENDBRANCH  16  17
ENDBRANCH  11  16
BRANCH  13  36
ATOM     36  O   UNL     1      30.575  37.219  13.223  1.00  0.00    -0.385 OA
ATOM     37  H   UNL     1      29.836  37.876  13.120  1.00  0.00     0.211 HD
ENDBRANCH  13  36
BRANCH  14  38
ATOM     38  O   UNL     1      31.283  35.972  15.973  1.00  0.00    -0.387 OA
ATOM     39  H   UNL     1      31.901  35.419  16.506  1.00  0.00     0.211 HD
ENDBRANCH  14  38
BRANCH  15  40
ATOM     40  O   UNL     1      31.574  33.568  15.942  1.00  0.00    -0.387 OA
ATOM     41  H   UNL     1      31.156  32.826  16.385  1.00  0.00     0.211 HD
ENDBRANCH  15  40
ENDBRANCH   9  10
ENDBRANCH   8   9
ENDBRANCH   3   8
BRANCH   3  42
ATOM     42  C   UNL     1      26.750  32.779  17.080  1.00  0.00     0.364 C 
ATOM     43  O   UNL     1      26.167  33.344  16.147  1.00  0.00    -0.246 OA
BRANCH  42  44
ATOM     44  O   UNL     1      26.063  31.882  17.867  1.00  0.00    -0.477 OA
ATOM     45  H   UNL     1      25.380  32.258  18.513  1.00  0.00     0.296 HD
ENDBRANCH  42  44
ENDBRANCH   3  42
BRANCH   6  46
ATOM     46  O   UNL     1      29.919  36.107  18.508  1.00  0.00    -0.391 OA
ATOM     47  H   UNL     1      30.032  36.271  17.514  1.00  0.00     0.211 HD
ENDBRANCH   6  46
BRANCH   7  48
ATOM     48  N   UNL     1      31.387  34.028  19.767  1.00  0.00    -0.348 N 
ATOM     49  C   UNL     1      32.607  34.726  19.555  1.00  0.00     0.217 C 
ATOM     50  H   UNL     1      31.176  33.690  20.723  1.00  0.00     0.163 HD
ATOM     51  C   UNL     1      33.572  34.982  20.626  1.00  0.00     0.114 C 
ATOM     52  O   UNL     1      32.875  35.146  18.378  1.00  0.00    -0.275 OA
ENDBRANCH   7  48
ENDBRANCH   1   2
BRANCH   1  53
ATOM     53  O   UNL     1      30.024  30.360  17.990  1.00  0.00    -0.388 OA
ATOM     54  H   UNL     1      30.807  30.130  17.400  1.00  0.00     0.211 HD
ENDBRANCH   1  53
BRANCH   1  55
ATOM     55  C   UNL     1      30.852  30.487  20.173  1.00  0.00     0.165 C 
BRANCH  55  56
ATOM     56  O   UNL     1      31.441  29.289  19.932  1.00  0.00    -0.388 OA
ATOM     57  H   UNL     1      31.324  28.695  20.710  1.00  0.00     0.211 HD
ENDBRANCH  55  56
BRANCH  55  58
ATOM     58  C   UNL     1      29.527  30.279  20.923  1.00  0.00     0.154 C 
BRANCH  58  59
ATOM     59  N   UNL     1      28.651  29.412  20.168  1.00  0.00    -0.319 N 
ATOM     60  C   UNL     1      28.630  28.001  20.225  1.00  0.00     0.407 C 
ATOM     61  H   UNL     1      27.931  29.834  19.502  1.00  0.00     0.167 HD
ATOM     62  O   UNL     1      29.377  27.380  21.006  1.00  0.00    -0.225 OA
BRANCH  60  63
ATOM     63  O   UNL     1      27.770  27.247  19.401  1.00  0.00    -0.443 OA
BRANCH  63  64
ATOM     64  C   UNL     1      26.363  27.570  19.405  1.00  0.00     0.294 C 
BRANCH  64  65
ATOM     65  C   UNL     1      26.178  28.344  18.122  1.00  0.00     0.120 A 
ATOM     66  C   UNL     1      24.922  28.510  17.507  1.00  0.00     0.138 A 
ATOM     67  N   UNL     1      27.042  28.941  17.325  1.00  0.00    -0.132 NA
ATOM     68  N   UNL     1      25.088  29.195  16.365  1.00  0.00    -0.249 N 
ATOM     69  N   UNL     1      26.369  29.449  16.270  1.00  0.00    -0.067 NA
BRANCH  68  70
ATOM     70  C   UNL     1      23.992  29.526  15.452  1.00  0.00     0.114 C 
ATOM     71  C   UNL     1      22.910  30.213  16.224  1.00  0.00     0.034 C 
BRANCH  70  72
ATOM     72  C   UNL     1      24.505  30.263  14.259  1.00  0.00     0.108 C 
BRANCH  72  73
ATOM     73  C   UNL     1      23.636  29.919  13.102  1.00  0.00     0.164 C 
ATOM     74  O   UNL     1      23.846  28.918  12.414  1.00  0.00    -0.294 OA
BRANCH  73  75
ATOM     75  C   UNL     1      22.512  30.822  12.810  1.00  0.00     0.018 A 
ATOM     76  C   UNL     1      22.634  32.163  12.808  1.00  0.00     0.012 A 
ATOM     77  C   UNL     1      21.277  30.219  12.522  1.00  0.00     0.012 A 
ATOM     78  C   UNL     1      21.526  32.975  12.513  1.00  0.00     0.001 A 
ATOM     79  C   UNL     1      20.212  31.025  12.239  1.00  0.00     0.001 A 
ATOM     80  C   UNL     1      20.313  32.391  12.229  1.00  0.00     0.000 A 
ENDBRANCH  73  75
ENDBRANCH  72  73
ENDBRANCH  70  72
ENDBRANCH  68  70
ENDBRANCH  64  65
ENDBRANCH  63  64
ENDBRANCH  60  63
ENDBRANCH  58  59
ENDBRANCH  55  58
ENDBRANCH   1  55
TORSDOF 33
BEGIN_RES LYS A 131
REMARK  4 active torsions:
REMARK  status: ('A' for Active; 'I' for Inactive)
REMARK    1  A    between atoms: CA   and  CB  
REMARK    2  A    between atoms: CB   and  CG  
REMARK    3  A    between atoms: CG   and  CD  
REMARK    4  A    between atoms: CD   and  CE  
ROOT
ATOM      1  CA  LYS A 131      29.867  25.555  16.977  1.00 20.52     0.186 C 
ENDROOT
BRANCH   1   2
ATOM      2  CB  LYS A 131      28.345  25.722  17.026  1.00 20.94     0.034 C 
BRANCH   2   3
ATOM      3  CG  LYS A 131      27.601  24.401  16.901  1.00 22.96     0.005 C 
BRANCH   3   4
ATOM      4  CD  LYS A 131      26.530  24.253  17.945  1.00 24.33     0.041 C 
BRANCH   4   5
ATOM      5  CE  LYS A 131      25.245  23.759  17.290  1.00 26.91     0.338 C 
ATOM      6  NZ  LYS A 131      24.353  24.899  16.972  1.00 27.40     0.618 N 
ENDBRANCH   4   5
ENDBRANCH   3   4
ENDBRANCH   2   3
ENDBRANCH   1   2
END_RES LYS A 131
BEGIN_RES LYS A 135
REMARK  4 active torsions:
REMARK  status: ('A' for Active; 'I' for Inactive)
REMARK    5  A    between atoms: CA   and  CB  
REMARK    6  A    between atoms: CB   and  CG  
REMARK    7  A    between atoms: CG   and  CD  
REMARK    8  A    between atoms: CD   and  CE  
ROOT
ATOM      7  CA  LYS A 135      33.193  34.663   9.290  1.00 25.02     0.186 C 
ENDROOT
BRANCH   7   8
ATOM      8  CB  LYS A 135      32.060  35.360  10.034  1.00 26.63     0.034 C 
BRANCH   8   9
ATOM      9  CG  LYS A 135      30.698  34.796   9.722  1.00 29.45     0.005 C 
BRANCH   9  10
ATOM     10  CD  LYS A 135      30.571  34.490   8.238  1.00 32.00     0.041 C 
BRANCH  10  11
ATOM     11  CE  LYS A 135      29.434  35.285   7.625  1.00 34.25     0.338 C 
ATOM     12  NZ  LYS A 135      29.442  36.693   8.110  1.00 35.99     0.618 N 
ENDBRANCH  10  11
ENDBRANCH   9  10
ENDBRANCH   8   9
ENDBRANCH   7   8
END_RES LYS A 135
