REMARK VINA RESULT:    -4.204      4.186      7.327
REMARK INTER + INTRA:         -21.759
REMARK INTER:                 -11.078
REMARK INTRA:                 -10.681
REMARK UNBOUND:               -10.427
REMARK SMILES CCN(CC)CCn1cc(COC(=O)NC[C@@H](O)C(O)[C@@H]2O[C@@](OC[C@H]3O[C@@H](O[C@H]4[C@H](O)[C@@H](O)[C@H](OCCN=[N+]=[N-])O[C@@H]4CO)[C@H](O)[C@@H](O)[C@H]3O)(C(=O)O)C[C@H](O)[C@H]2NC(C)=O)nn1
REMARK SMILES IDX 19 1 21 2 23 3 55 4 22 5 56 6 58 7 24 8 25 9 26 10 28 11
REMARK SMILES IDX 27 12 46 13 48 14 50 15 29 16 30 17 43 18 42 19 35 20 31 21
REMARK SMILES IDX 33 22 44 23 45 24 36 26 37 27 38 28 39 29 40 30 41 31 32 32
REMARK SMILES IDX 34 34 47 36 49 38 51 40 52 42 53 43 54 44 57 46 59 48 60 49
REMARK SMILES IDX 61 51 62 52 20 53 17 55 18 56 16 58 15 59 13 60 14 62 12 63
REMARK SMILES IDX 11 64 10 65 9 66 63 67 8 68 64 69 7 70 6 71 3 72 2 73 1 74
REMARK SMILES IDX 4 75 5 76
REMARK H PARENT 45 25 32 33 34 35 47 37 49 39 51 41 54 45 57 47 59 50 20 54
REMARK H PARENT 18 57 15 61
REMARK Flexibility Score: inf
ROOT
ATOM      1  C   UNL     1      28.974  38.528   8.424  1.00  0.00     0.176 C 
ENDROOT
BRANCH   1   2
ATOM      2  C   UNL     1      28.722  38.817   9.881  1.00  0.00     0.178 C 
ATOM      3  C   UNL     1      29.746  39.110  11.921  1.00  0.00     0.272 C 
ATOM      4  C   UNL     1      28.294  39.498  12.244  1.00  0.00     0.113 C 
ATOM      5  O   UNL     1      29.908  38.895  10.571  1.00  0.00    -0.332 OA
ATOM      6  C   UNL     1      27.292  38.485  11.796  1.00  0.00     0.145 C 
ATOM      7  C   UNL     1      27.880  37.767  10.571  1.00  0.00     0.142 C 
BRANCH   3   8
ATOM      8  O   UNL     1      30.047  38.030  12.716  1.00  0.00    -0.338 OA
BRANCH   8   9
ATOM      9  C   UNL     1      31.095  37.246  12.302  1.00  0.00     0.199 C 
BRANCH   9  10
ATOM     10  C   UNL     1      31.920  36.743  13.500  1.00  0.00     0.179 C 
ATOM     11  C   UNL     1      31.409  35.169  15.172  1.00  0.00     0.282 C 
ATOM     12  O   UNL     1      31.034  36.252  14.390  1.00  0.00    -0.341 OA
ATOM     13  C   UNL     1      32.870  35.094  15.371  1.00  0.00     0.202 C 
ATOM     14  C   UNL     1      33.664  35.080  14.095  1.00  0.00     0.179 C 
ATOM     15  C   UNL     1      32.839  35.680  12.978  1.00  0.00     0.177 C 
BRANCH  11  16
ATOM     16  O   UNL     1      30.772  34.079  14.596  1.00  0.00    -0.341 OA
BRANCH  16  17
ATOM     17  C   UNL     1      29.867  33.466  15.389  1.00  0.00     0.184 C 
ATOM     18  C   UNL     1      28.499  34.093  15.317  1.00  0.00     0.178 C 
ATOM     19  O   UNL     1      27.615  33.298  16.102  1.00  0.00    -0.341 OA
ATOM     20  C   UNL     1      27.792  33.645  17.423  1.00  0.00     0.281 C 
ATOM     21  C   UNL     1      30.261  33.453  16.862  1.00  0.00     0.180 C 
ATOM     22  C   UNL     1      29.182  33.963  17.763  1.00  0.00     0.202 C 
BRANCH  18  23
ATOM     23  C   UNL     1      27.958  34.318  13.952  1.00  0.00     0.191 C 
BRANCH  23  24
ATOM     24  O   UNL     1      28.451  35.532  13.489  1.00  0.00    -0.394 OA
ATOM     25  H   UNL     1      28.311  35.676  12.520  1.00  0.00     0.210 HD
ENDBRANCH  23  24
ENDBRANCH  18  23
BRANCH  20  26
ATOM     26  O   UNL     1      27.172  32.743  18.284  1.00  0.00    -0.350 OA
BRANCH  26  27
ATOM     27  C   UNL     1      26.314  31.872  17.684  1.00  0.00     0.169 C 
BRANCH  27  28
ATOM     28  C   UNL     1      26.558  30.429  18.084  1.00  0.00     0.119 C 
BRANCH  28  29
ATOM     29  N   UNL     1      26.893  29.613  16.933  1.00  0.00    -0.092 NA
ATOM     30  N   UNL     1      27.973  29.706  16.338  1.00  0.00     0.001 N 
ATOM     31  N   UNL     1      28.793  30.112  15.511  1.00  0.00    -0.003 NA
ENDBRANCH  28  29
ENDBRANCH  27  28
ENDBRANCH  26  27
ENDBRANCH  20  26
BRANCH  21  32
ATOM     32  O   UNL     1      30.580  32.156  17.216  1.00  0.00    -0.387 OA
ATOM     33  H   UNL     1      30.954  31.619  16.487  1.00  0.00     0.211 HD
ENDBRANCH  21  32
BRANCH  22  34
ATOM     34  O   UNL     1      29.307  35.359  17.971  1.00  0.00    -0.385 OA
ATOM     35  H   UNL     1      28.381  35.699  18.084  1.00  0.00     0.211 HD
ENDBRANCH  22  34
ENDBRANCH  16  17
ENDBRANCH  11  16
BRANCH  13  36
ATOM     36  O   UNL     1      33.280  36.256  16.089  1.00  0.00    -0.385 OA
ATOM     37  H   UNL     1      32.511  36.778  16.378  1.00  0.00     0.211 HD
ENDBRANCH  13  36
BRANCH  14  38
ATOM     38  O   UNL     1      34.164  33.834  13.754  1.00  0.00    -0.387 OA
ATOM     39  H   UNL     1      35.131  33.817  13.660  1.00  0.00     0.211 HD
ENDBRANCH  14  38
BRANCH  15  40
ATOM     40  O   UNL     1      32.074  34.664  12.421  1.00  0.00    -0.387 OA
ATOM     41  H   UNL     1      31.161  35.004  12.194  1.00  0.00     0.211 HD
ENDBRANCH  15  40
ENDBRANCH   9  10
ENDBRANCH   8   9
ENDBRANCH   3   8
BRANCH   3  42
ATOM     42  C   UNL     1      30.538  40.301  12.318  1.00  0.00     0.364 C 
ATOM     43  O   UNL     1      30.814  40.520  13.547  1.00  0.00    -0.246 OA
BRANCH  42  44
ATOM     44  O   UNL     1      31.030  41.243  11.437  1.00  0.00    -0.477 OA
ATOM     45  H   UNL     1      31.177  40.999  10.464  1.00  0.00     0.296 HD
ENDBRANCH  42  44
ENDBRANCH   3  42
BRANCH   6  46
ATOM     46  O   UNL     1      26.858  37.618  12.768  1.00  0.00    -0.391 OA
ATOM     47  H   UNL     1      26.588  38.163  13.551  1.00  0.00     0.211 HD
ENDBRANCH   6  46
BRANCH   7  48
ATOM     48  N   UNL     1      26.861  37.190   9.761  1.00  0.00    -0.348 N 
ATOM     49  C   UNL     1      26.545  35.796   9.955  1.00  0.00     0.217 C 
ATOM     50  H   UNL     1      26.311  37.681   9.035  1.00  0.00     0.163 HD
ATOM     51  C   UNL     1      25.496  35.126   9.146  1.00  0.00     0.114 C 
ATOM     52  O   UNL     1      27.148  35.099  10.814  1.00  0.00    -0.275 OA
ENDBRANCH   7  48
ENDBRANCH   1   2
BRANCH   1  53
ATOM     53  O   UNL     1      27.828  38.852   7.711  1.00  0.00    -0.388 OA
ATOM     54  H   UNL     1      27.294  39.530   8.234  1.00  0.00     0.211 HD
ENDBRANCH   1  53
BRANCH   1  55
ATOM     55  C   UNL     1      30.097  39.433   7.988  1.00  0.00     0.165 C 
BRANCH  55  56
ATOM     56  O   UNL     1      29.784  40.752   8.338  1.00  0.00    -0.388 OA
ATOM     57  H   UNL     1      28.801  40.828   8.393  1.00  0.00     0.211 HD
ENDBRANCH  55  56
BRANCH  55  58
ATOM     58  C   UNL     1      30.449  39.370   6.548  1.00  0.00     0.154 C 
BRANCH  58  59
ATOM     59  N   UNL     1      29.403  39.766   5.669  1.00  0.00    -0.319 N 
ATOM     60  C   UNL     1      29.551  40.969   4.898  1.00  0.00     0.407 C 
ATOM     61  H   UNL     1      28.543  39.225   5.575  1.00  0.00     0.167 HD
ATOM     62  O   UNL     1      30.577  41.671   4.992  1.00  0.00    -0.225 OA
BRANCH  60  63
ATOM     63  O   UNL     1      28.521  41.331   4.045  1.00  0.00    -0.443 OA
BRANCH  63  64
ATOM     64  C   UNL     1      27.590  42.333   4.488  1.00  0.00     0.294 C 
BRANCH  64  65
ATOM     65  C   UNL     1      26.789  41.746   5.570  1.00  0.00     0.120 A 
ATOM     66  C   UNL     1      25.507  41.218   5.387  1.00  0.00     0.138 A 
ATOM     67  N   UNL     1      27.052  41.584   6.864  1.00  0.00    -0.132 NA
ATOM     68  N   UNL     1      25.056  40.762   6.569  1.00  0.00    -0.251 N 
ATOM     69  N   UNL     1      26.002  40.994   7.439  1.00  0.00    -0.067 NA
BRANCH  68  70
ATOM     70  C   UNL     1      23.777  40.136   6.843  1.00  0.00     0.161 C 
BRANCH  70  71
ATOM     71  C   UNL     1      24.005  39.061   7.884  1.00  0.00     0.108 C 
BRANCH  71  72
ATOM     72  N   UNL     1      22.806  38.375   8.268  1.00  0.00    -0.302 NA
BRANCH  72  73
ATOM     73  C   UNL     1      22.696  38.225   9.694  1.00  0.00     0.081 C 
ATOM     74  C   UNL     1      23.885  38.921  10.345  1.00  0.00     0.021 C 
ENDBRANCH  72  73
BRANCH  72  75
ATOM     75  C   UNL     1      22.598  37.156   7.550  1.00  0.00     0.081 C 
ATOM     76  C   UNL     1      21.982  36.098   8.443  1.00  0.00     0.021 C 
ENDBRANCH  72  75
ENDBRANCH  71  72
ENDBRANCH  70  71
ENDBRANCH  68  70
ENDBRANCH  64  65
ENDBRANCH  63  64
ENDBRANCH  60  63
ENDBRANCH  58  59
ENDBRANCH  55  58
ENDBRANCH   1  55
TORSDOF 34
BEGIN_RES LYS A 131
REMARK  4 active torsions:
REMARK  status: ('A' for Active; 'I' for Inactive)
REMARK    1  A    between atoms: CA   and  CB  
REMARK    2  A    between atoms: CB   and  CG  
REMARK    3  A    between atoms: CG   and  CD  
REMARK    4  A    between atoms: CD   and  CE  
ROOT
ATOM      1  CA  LYS A 131      29.867  25.555  16.977  1.00 20.52     0.186 C 
ENDROOT
BRANCH   1   2
ATOM      2  CB  LYS A 131      28.345  25.722  17.026  1.00 20.94     0.034 C 
BRANCH   2   3
ATOM      3  CG  LYS A 131      27.602  24.400  16.909  1.00 22.96     0.005 C 
BRANCH   3   4
ATOM      4  CD  LYS A 131      26.151  24.531  17.283  1.00 24.33     0.041 C 
BRANCH   4   5
ATOM      5  CE  LYS A 131      26.038  25.147  18.674  1.00 26.91     0.338 C 
ATOM      6  NZ  LYS A 131      25.483  24.163  19.633  1.00 27.40     0.618 N 
ENDBRANCH   4   5
ENDBRANCH   3   4
ENDBRANCH   2   3
ENDBRANCH   1   2
END_RES LYS A 131
BEGIN_RES LYS A 135
REMARK  4 active torsions:
REMARK  status: ('A' for Active; 'I' for Inactive)
REMARK    5  A    between atoms: CA   and  CB  
REMARK    6  A    between atoms: CB   and  CG  
REMARK    7  A    between atoms: CG   and  CD  
REMARK    8  A    between atoms: CD   and  CE  
ROOT
ATOM      7  CA  LYS A 135      33.193  34.663   9.290  1.00 25.02     0.186 C 
ENDROOT
BRANCH   7   8
ATOM      8  CB  LYS A 135      32.060  35.360  10.034  1.00 26.63     0.034 C 
BRANCH   8   9
ATOM      9  CG  LYS A 135      30.689  34.892   9.619  1.00 29.45     0.005 C 
BRANCH   9  10
ATOM     10  CD  LYS A 135      30.566  34.871   8.103  1.00 32.00     0.041 C 
BRANCH  10  11
ATOM     11  CE  LYS A 135      29.107  34.886   7.687  1.00 34.25     0.338 C 
ATOM     12  NZ  LYS A 135      28.922  35.627   6.408  1.00 35.99     0.618 N 
ENDBRANCH  10  11
ENDBRANCH   9  10
ENDBRANCH   8   9
ENDBRANCH   7   8
END_RES LYS A 135
