REMARK VINA RESULT:    -5.101      3.046      7.358
REMARK INTER + INTRA:         -22.624
REMARK INTER:                  -9.750
REMARK INTRA:                 -12.874
REMARK UNBOUND:               -10.068
REMARK SMILES CC(=O)N[C@@H]1[C@@H](O)C[C@](OC[C@H]2O[C@@H](O[C@H]3[C@H](O)[C@@H](O)[C@H](OCCN=[N+]=[N-])O[C@@H]3CO)[C@H](O)[C@@H](O)[C@H]2O)(C(=O)O)O[C@H]1C(O)[C@H](O)CNC(=O)OCc1cn(-c2cnc3ccccc3c2)nn1
REMARK SMILES IDX 9 1 8 2 6 3 5 4 42 5 41 6 10 7 11 8 12 9 14 10 13 11 32 12
REMARK SMILES IDX 34 13 36 14 15 15 16 16 29 17 28 18 21 19 17 20 19 21 30 22
REMARK SMILES IDX 31 23 22 25 23 26 24 27 25 28 26 29 27 30 18 31 20 33 33 35
REMARK SMILES IDX 35 37 37 39 38 41 39 42 40 43 7 45 43 47 44 48 45 50 46 51
REMARK SMILES IDX 47 53 48 54 49 55 50 57 51 58 52 59 53 60 54 61 67 62 55 63
REMARK SMILES IDX 66 64 56 65 57 66 65 67 58 68 64 69 59 70 63 71 60 72 62 73
REMARK SMILES IDX 61 74 4 75 2 76 1 78 3 79
REMARK H PARENT 31 24 18 32 20 34 33 36 35 38 37 40 40 44 7 46 44 49 46 52
REMARK H PARENT 48 56 4 77
REMARK Flexibility Score: inf
ROOT
ATOM      1  C   UNL     1      29.355  32.419  17.162  1.00  0.00     0.272 C 
ATOM      2  C   UNL     1      29.511  31.144  16.415  1.00  0.00     0.113 C 
ATOM      3  C   UNL     1      28.342  30.203  16.630  1.00  0.00     0.145 C 
ATOM      4  C   UNL     1      27.093  31.053  16.393  1.00  0.00     0.142 C 
ATOM      5  C   UNL     1      27.054  32.067  17.547  1.00  0.00     0.178 C 
ATOM      6  O   UNL     1      28.101  32.953  17.212  1.00  0.00    -0.332 OA
ENDROOT
BRANCH   1   7
ATOM      7  O   UNL     1      30.159  33.437  16.607  1.00  0.00    -0.338 OA
BRANCH   7   8
ATOM      8  C   UNL     1      31.222  32.983  15.876  1.00  0.00     0.199 C 
BRANCH   8   9
ATOM      9  C   UNL     1      31.629  34.064  14.898  1.00  0.00     0.179 C 
ATOM     10  C   UNL     1      30.898  35.481  13.247  1.00  0.00     0.282 C 
ATOM     11  O   UNL     1      30.566  34.791  14.401  1.00  0.00    -0.341 OA
ATOM     12  C   UNL     1      32.362  35.807  13.169  1.00  0.00     0.202 C 
ATOM     13  C   UNL     1      33.008  36.020  14.492  1.00  0.00     0.179 C 
ATOM     14  C   UNL     1      32.806  34.813  15.362  1.00  0.00     0.177 C 
BRANCH  10  15
ATOM     15  O   UNL     1      30.091  36.592  13.132  1.00  0.00    -0.341 OA
BRANCH  15  16
ATOM     16  C   UNL     1      28.978  36.544  13.973  1.00  0.00     0.184 C 
ATOM     17  C   UNL     1      27.693  36.265  13.233  1.00  0.00     0.178 C 
ATOM     18  O   UNL     1      26.649  37.085  13.531  1.00  0.00    -0.341 OA
ATOM     19  C   UNL     1      26.418  37.373  14.848  1.00  0.00     0.281 C 
ATOM     20  C   UNL     1      28.904  37.732  14.891  1.00  0.00     0.180 C 
ATOM     21  C   UNL     1      27.629  37.688  15.670  1.00  0.00     0.202 C 
BRANCH  17  22
ATOM     22  C   UNL     1      27.350  34.775  13.291  1.00  0.00     0.191 C 
BRANCH  22  23
ATOM     23  O   UNL     1      27.767  34.187  14.481  1.00  0.00    -0.394 OA
ATOM     24  H   UNL     1      28.738  34.079  14.534  1.00  0.00     0.210 HD
ENDBRANCH  22  23
ENDBRANCH  17  22
BRANCH  19  25
ATOM     25  O   UNL     1      25.593  36.437  15.478  1.00  0.00    -0.350 OA
BRANCH  25  26
ATOM     26  C   UNL     1      24.269  36.820  15.491  1.00  0.00     0.169 C 
BRANCH  26  27
ATOM     27  C   UNL     1      24.037  38.031  16.364  1.00  0.00     0.119 C 
BRANCH  27  28
ATOM     28  N   UNL     1      24.133  37.681  17.766  1.00  0.00    -0.092 NA
ATOM     29  N   UNL     1      25.174  37.815  18.408  1.00  0.00     0.001 N 
ATOM     30  N   UNL     1      26.049  38.311  19.120  1.00  0.00    -0.003 NA
ENDBRANCH  27  28
ENDBRANCH  26  27
ENDBRANCH  25  26
ENDBRANCH  19  25
BRANCH  20  31
ATOM     31  O   UNL     1      29.969  37.632  15.814  1.00  0.00    -0.387 OA
ATOM     32  H   UNL     1      30.771  37.248  15.367  1.00  0.00     0.211 HD
ENDBRANCH  20  31
BRANCH  21  33
ATOM     33  O   UNL     1      27.512  38.933  16.332  1.00  0.00    -0.385 OA
ATOM     34  H   UNL     1      28.422  39.343  16.432  1.00  0.00     0.211 HD
ENDBRANCH  21  33
ENDBRANCH  15  16
ENDBRANCH  10  15
BRANCH  12  35
ATOM     35  O   UNL     1      33.103  34.873  12.452  1.00  0.00    -0.385 OA
ATOM     36  H   UNL     1      32.564  34.084  12.207  1.00  0.00     0.211 HD
ENDBRANCH  12  35
BRANCH  13  37
ATOM     37  O   UNL     1      32.529  37.183  15.100  1.00  0.00    -0.387 OA
ATOM     38  H   UNL     1      33.029  37.952  14.780  1.00  0.00     0.211 HD
ENDBRANCH  13  37
BRANCH  14  39
ATOM     39  O   UNL     1      32.723  35.266  16.674  1.00  0.00    -0.387 OA
ATOM     40  H   UNL     1      31.936  35.817  16.845  1.00  0.00     0.211 HD
ENDBRANCH  14  39
ENDBRANCH   8   9
ENDBRANCH   7   8
ENDBRANCH   1   7
BRANCH   1  41
ATOM     41  C   UNL     1      29.783  32.185  18.585  1.00  0.00     0.364 C 
ATOM     42  O   UNL     1      29.524  33.043  19.491  1.00  0.00    -0.246 OA
BRANCH  41  43
ATOM     43  O   UNL     1      30.465  31.072  19.017  1.00  0.00    -0.477 OA
ATOM     44  H   UNL     1      30.002  30.266  19.462  1.00  0.00     0.296 HD
ENDBRANCH  41  43
ENDBRANCH   1  41
BRANCH   3  45
ATOM     45  O   UNL     1      28.384  29.110  15.798  1.00  0.00    -0.391 OA
ATOM     46  H   UNL     1      28.084  28.327  16.304  1.00  0.00     0.211 HD
ENDBRANCH   3  45
BRANCH   5  47
ATOM     47  C   UNL     1      25.801  32.898  17.507  1.00  0.00     0.176 C 
BRANCH  47  48
ATOM     48  O   UNL     1      25.712  33.453  16.203  1.00  0.00    -0.388 OA
ATOM     49  H   UNL     1      25.718  34.443  16.239  1.00  0.00     0.211 HD
ENDBRANCH  47  48
BRANCH  47  50
ATOM     50  C   UNL     1      25.800  34.089  18.455  1.00  0.00     0.165 C 
BRANCH  50  51
ATOM     51  O   UNL     1      26.516  33.572  19.593  1.00  0.00    -0.388 OA
ATOM     52  H   UNL     1      27.181  32.934  19.244  1.00  0.00     0.211 HD
ENDBRANCH  50  51
BRANCH  50  53
ATOM     53  C   UNL     1      24.412  34.312  19.017  1.00  0.00     0.154 C 
BRANCH  53  54
ATOM     54  N   UNL     1      23.387  34.585  18.082  1.00  0.00    -0.319 N 
ATOM     55  C   UNL     1      22.061  34.113  18.180  1.00  0.00     0.407 C 
ATOM     56  H   UNL     1      23.647  35.193  17.242  1.00  0.00     0.167 HD
ATOM     57  O   UNL     1      21.745  33.390  19.145  1.00  0.00    -0.225 OA
BRANCH  55  58
ATOM     58  O   UNL     1      21.169  34.472  17.196  1.00  0.00    -0.443 OA
BRANCH  58  59
ATOM     59  C   UNL     1      20.857  33.638  16.113  1.00  0.00     0.294 C 
BRANCH  59  60
ATOM     60  C   UNL     1      21.813  33.887  14.987  1.00  0.00     0.121 A 
ATOM     61  C   UNL     1      21.626  34.630  13.870  1.00  0.00     0.144 A 
ATOM     62  N   UNL     1      23.061  33.367  14.930  1.00  0.00    -0.131 NA
ATOM     63  N   UNL     1      22.767  34.541  13.161  1.00  0.00    -0.219 N 
ATOM     64  N   UNL     1      23.637  33.769  13.816  1.00  0.00    -0.062 NA
BRANCH  63  65
ATOM     65  C   UNL     1      22.986  35.182  11.907  1.00  0.00     0.085 A 
ATOM     66  C   UNL     1      24.173  35.791  11.656  1.00  0.00     0.140 A 
ATOM     67  C   UNL     1      21.972  35.159  10.963  1.00  0.00     0.040 A 
ATOM     68  N   UNL     1      24.366  36.387  10.462  1.00  0.00    -0.254 NA
ATOM     69  C   UNL     1      22.187  35.767   9.760  1.00  0.00     0.002 A 
ATOM     70  C   UNL     1      23.393  36.370   9.545  1.00  0.00     0.070 A 
ATOM     71  C   UNL     1      21.192  35.758   8.803  1.00  0.00     0.010 A 
ATOM     72  C   UNL     1      23.605  36.989   8.312  1.00  0.00     0.029 A 
ATOM     73  C   UNL     1      21.425  36.378   7.587  1.00  0.00     0.001 A 
ATOM     74  C   UNL     1      22.648  37.003   7.338  1.00  0.00     0.002 A 
ENDBRANCH  63  65
ENDBRANCH  59  60
ENDBRANCH  58  59
ENDBRANCH  55  58
ENDBRANCH  53  54
ENDBRANCH  50  53
ENDBRANCH  47  50
ENDBRANCH   5  47
BRANCH   4  75
ATOM     75  N   UNL     1      25.933  30.263  16.237  1.00  0.00    -0.348 N 
ATOM     76  C   UNL     1      25.137  30.354  15.035  1.00  0.00     0.217 C 
ATOM     77  H   UNL     1      25.586  29.574  16.936  1.00  0.00     0.163 HD
ATOM     78  C   UNL     1      23.931  29.543  14.858  1.00  0.00     0.114 C 
ATOM     79  O   UNL     1      25.537  31.169  14.149  1.00  0.00    -0.275 OA
ENDBRANCH   4  75
TORSDOF 30
BEGIN_RES LYS A 131
REMARK  4 active torsions:
REMARK  status: ('A' for Active; 'I' for Inactive)
REMARK    1  A    between atoms: CA   and  CB  
REMARK    2  A    between atoms: CB   and  CG  
REMARK    3  A    between atoms: CG   and  CD  
REMARK    4  A    between atoms: CD   and  CE  
ROOT
ATOM      1  CA  LYS A 131      29.867  25.555  16.977  1.00 20.52     0.186 C 
ENDROOT
BRANCH   1   2
ATOM      2  CB  LYS A 131      28.345  25.722  17.026  1.00 20.94     0.034 C 
BRANCH   2   3
ATOM      3  CG  LYS A 131      27.602  24.400  16.917  1.00 22.96     0.005 C 
BRANCH   3   4
ATOM      4  CD  LYS A 131      26.659  24.183  18.068  1.00 24.33     0.041 C 
BRANCH   4   5
ATOM      5  CE  LYS A 131      26.411  25.509  18.779  1.00 26.91     0.338 C 
ATOM      6  NZ  LYS A 131      25.208  25.419  19.640  1.00 27.40     0.618 N 
ENDBRANCH   4   5
ENDBRANCH   3   4
ENDBRANCH   2   3
ENDBRANCH   1   2
END_RES LYS A 131
BEGIN_RES LYS A 135
REMARK  4 active torsions:
REMARK  status: ('A' for Active; 'I' for Inactive)
REMARK    5  A    between atoms: CA   and  CB  
REMARK    6  A    between atoms: CB   and  CG  
REMARK    7  A    between atoms: CG   and  CD  
REMARK    8  A    between atoms: CD   and  CE  
ROOT
ATOM      7  CA  LYS A 135      33.193  34.663   9.290  1.00 25.02     0.186 C 
ENDROOT
BRANCH   7   8
ATOM      8  CB  LYS A 135      32.060  35.360  10.034  1.00 26.63     0.034 C 
BRANCH   8   9
ATOM      9  CG  LYS A 135      30.807  35.519   9.212  1.00 29.45     0.005 C 
BRANCH   9  10
ATOM     10  CD  LYS A 135      29.849  34.366   9.466  1.00 32.00     0.041 C 
BRANCH  10  11
ATOM     11  CE  LYS A 135      28.418  34.866   9.526  1.00 34.25     0.338 C 
ATOM     12  NZ  LYS A 135      27.465  33.742   9.738  1.00 35.99     0.618 N 
ENDBRANCH  10  11
ENDBRANCH   9  10
ENDBRANCH   8   9
ENDBRANCH   7   8
END_RES LYS A 135
