REMARK VINA RESULT:    -4.305      4.057      9.355
REMARK INTER + INTRA:         -22.294
REMARK INTER:                 -10.104
REMARK INTRA:                 -12.190
REMARK UNBOUND:               -11.447
REMARK SMILES CC(=O)N[C@@H]1[C@@H](O)C[C@](OC[C@H]2O[C@@H](O[C@H]3[C@H](O)[C@@H](O)[C@H](OCCN=[N+]=[N-])O[C@@H]3CO)[C@H](O)[C@@H](O)[C@H]2O)(C(=O)O)O[C@H]1C(O)[C@H](O)CNC(=O)OCc1cn(-c2ccccc2C(C)C)nn1
REMARK SMILES IDX 9 1 8 2 6 3 5 4 42 5 41 6 10 7 11 8 12 9 14 10 13 11 32 12
REMARK SMILES IDX 34 13 36 14 15 15 16 16 29 17 28 18 21 19 17 20 19 21 30 22
REMARK SMILES IDX 31 23 22 25 23 26 24 27 25 28 26 29 27 30 18 31 20 33 33 35
REMARK SMILES IDX 35 37 37 39 38 41 39 42 40 43 7 45 43 47 44 48 45 50 46 51
REMARK SMILES IDX 47 53 48 54 49 55 50 57 51 58 52 59 53 60 54 61 66 62 55 63
REMARK SMILES IDX 65 64 56 65 61 66 57 67 60 68 58 69 59 70 62 71 63 72 64 73
REMARK SMILES IDX 4 74 2 75 1 77 3 78
REMARK H PARENT 31 24 18 32 20 34 33 36 35 38 37 40 40 44 7 46 44 49 46 52
REMARK H PARENT 48 56 4 76
REMARK Flexibility Score: inf
ROOT
ATOM      1  C   UNL     1      29.256  31.696  16.837  1.00  0.00     0.272 C 
ATOM      2  C   UNL     1      28.014  31.000  16.329  1.00  0.00     0.113 C 
ATOM      3  C   UNL     1      27.067  32.073  15.815  1.00  0.00     0.145 C 
ATOM      4  C   UNL     1      26.581  32.861  17.045  1.00  0.00     0.142 C 
ATOM      5  C   UNL     1      27.779  33.251  17.823  1.00  0.00     0.178 C 
ATOM      6  O   UNL     1      28.918  33.065  17.054  1.00  0.00    -0.332 OA
ENDROOT
BRANCH   1   7
ATOM      7  O   UNL     1      30.228  31.757  15.908  1.00  0.00    -0.338 OA
BRANCH   7   8
ATOM      8  C   UNL     1      31.307  32.456  15.834  1.00  0.00     0.199 C 
BRANCH   8   9
ATOM      9  C   UNL     1      31.524  33.592  14.888  1.00  0.00     0.179 C 
ATOM     10  C   UNL     1      30.495  35.142  13.582  1.00  0.00     0.282 C 
ATOM     11  O   UNL     1      30.397  33.954  14.194  1.00  0.00    -0.341 OA
ATOM     12  C   UNL     1      31.898  35.706  13.412  1.00  0.00     0.202 C 
ATOM     13  C   UNL     1      32.635  35.767  14.724  1.00  0.00     0.179 C 
ATOM     14  C   UNL     1      31.974  34.833  15.694  1.00  0.00     0.177 C 
BRANCH  10  15
ATOM     15  O   UNL     1      29.691  36.154  14.009  1.00  0.00    -0.341 OA
BRANCH  15  16
ATOM     16  C   UNL     1      28.556  36.461  13.302  1.00  0.00     0.184 C 
ATOM     17  C   UNL     1      28.531  35.881  11.926  1.00  0.00     0.178 C 
ATOM     18  O   UNL     1      28.405  36.802  10.946  1.00  0.00    -0.341 OA
ATOM     19  C   UNL     1      27.374  37.689  10.967  1.00  0.00     0.281 C 
ATOM     20  C   UNL     1      28.172  37.884  13.300  1.00  0.00     0.180 C 
ATOM     21  C   UNL     1      26.961  38.043  12.396  1.00  0.00     0.202 C 
BRANCH  17  22
ATOM     22  C   UNL     1      27.432  34.824  11.729  1.00  0.00     0.191 C 
BRANCH  22  23
ATOM     23  O   UNL     1      26.898  34.539  13.007  1.00  0.00    -0.394 OA
ATOM     24  H   UNL     1      26.405  33.665  12.906  1.00  0.00     0.210 HD
ENDBRANCH  22  23
ENDBRANCH  17  22
BRANCH  19  25
ATOM     25  O   UNL     1      26.276  37.173  10.332  1.00  0.00    -0.350 OA
BRANCH  25  26
ATOM     26  C   UNL     1      26.036  37.549   9.049  1.00  0.00     0.169 C 
BRANCH  26  27
ATOM     27  C   UNL     1      27.038  38.404   8.366  1.00  0.00     0.119 C 
BRANCH  27  28
ATOM     28  N   UNL     1      26.576  38.870   7.103  1.00  0.00    -0.092 NA
ATOM     29  N   UNL     1      27.160  38.813   6.039  1.00  0.00     0.001 N 
ATOM     30  N   UNL     1      27.807  38.542   5.034  1.00  0.00    -0.003 NA
ENDBRANCH  27  28
ENDBRANCH  26  27
ENDBRANCH  25  26
ENDBRANCH  19  25
BRANCH  20  31
ATOM     31  O   UNL     1      27.792  38.382  14.545  1.00  0.00    -0.387 OA
ATOM     32  H   UNL     1      27.161  37.747  14.950  1.00  0.00     0.211 HD
ENDBRANCH  20  31
BRANCH  21  33
ATOM     33  O   UNL     1      26.516  39.367  12.396  1.00  0.00    -0.385 OA
ATOM     34  H   UNL     1      25.617  39.367  12.813  1.00  0.00     0.211 HD
ENDBRANCH  21  33
ENDBRANCH  15  16
ENDBRANCH  10  15
BRANCH  12  35
ATOM     35  O   UNL     1      32.570  34.909  12.502  1.00  0.00    -0.385 OA
ATOM     36  H   UNL     1      33.101  35.487  11.869  1.00  0.00     0.211 HD
ENDBRANCH  12  35
BRANCH  13  37
ATOM     37  O   UNL     1      32.624  37.088  15.195  1.00  0.00    -0.387 OA
ATOM     38  H   UNL     1      32.316  37.046  16.134  1.00  0.00     0.211 HD
ENDBRANCH  13  37
BRANCH  14  39
ATOM     39  O   UNL     1      30.835  35.419  16.206  1.00  0.00    -0.387 OA
ATOM     40  H   UNL     1      30.244  35.652  15.446  1.00  0.00     0.211 HD
ENDBRANCH  14  39
ENDBRANCH   8   9
ENDBRANCH   7   8
ENDBRANCH   1   7
BRANCH   1  41
ATOM     41  C   UNL     1      29.709  31.138  18.117  1.00  0.00     0.364 C 
ATOM     42  O   UNL     1      30.642  31.782  18.719  1.00  0.00    -0.246 OA
BRANCH  41  43
ATOM     43  O   UNL     1      29.275  30.013  18.766  1.00  0.00    -0.477 OA
ATOM     44  H   UNL     1      28.864  29.967  19.681  1.00  0.00     0.296 HD
ENDBRANCH  41  43
ENDBRANCH   1  41
BRANCH   3  45
ATOM     45  O   UNL     1      27.779  33.005  15.053  1.00  0.00    -0.391 OA
ATOM     46  H   UNL     1      28.609  33.214  15.550  1.00  0.00     0.211 HD
ENDBRANCH   3  45
BRANCH   5  47
ATOM     47  C   UNL     1      27.858  34.668  18.305  1.00  0.00     0.176 C 
BRANCH  47  48
ATOM     48  O   UNL     1      26.919  34.697  19.396  1.00  0.00    -0.388 OA
ATOM     49  H   UNL     1      26.207  35.310  19.028  1.00  0.00     0.211 HD
ENDBRANCH  47  48
BRANCH  47  50
ATOM     50  C   UNL     1      27.393  35.730  17.360  1.00  0.00     0.165 C 
BRANCH  50  51
ATOM     51  O   UNL     1      28.405  36.447  16.780  1.00  0.00    -0.388 OA
ATOM     52  H   UNL     1      28.896  35.821  16.188  1.00  0.00     0.211 HD
ENDBRANCH  50  51
BRANCH  50  53
ATOM     53  C   UNL     1      26.194  36.467  17.823  1.00  0.00     0.154 C 
BRANCH  53  54
ATOM     54  N   UNL     1      24.932  36.017  17.267  1.00  0.00    -0.319 N 
ATOM     55  C   UNL     1      24.731  35.922  15.868  1.00  0.00     0.407 C 
ATOM     56  H   UNL     1      24.124  35.745  17.866  1.00  0.00     0.167 HD
ATOM     57  O   UNL     1      25.601  36.215  15.018  1.00  0.00    -0.225 OA
BRANCH  55  58
ATOM     58  O   UNL     1      23.511  35.479  15.301  1.00  0.00    -0.443 OA
BRANCH  58  59
ATOM     59  C   UNL     1      23.479  35.031  13.981  1.00  0.00     0.294 C 
BRANCH  59  60
ATOM     60  C   UNL     1      23.712  33.559  13.974  1.00  0.00     0.121 A 
ATOM     61  C   UNL     1      23.247  32.576  14.819  1.00  0.00     0.144 A 
ATOM     62  N   UNL     1      24.478  32.876  13.065  1.00  0.00    -0.131 NA
ATOM     63  N   UNL     1      23.701  31.367  14.450  1.00  0.00    -0.220 N 
ATOM     64  N   UNL     1      24.455  31.595  13.366  1.00  0.00    -0.062 NA
BRANCH  63  65
ATOM     65  C   UNL     1      23.462  30.090  15.033  1.00  0.00     0.070 A 
ATOM     66  C   UNL     1      22.372  29.354  14.623  1.00  0.00    -0.020 A 
ATOM     67  C   UNL     1      24.263  29.542  16.010  1.00  0.00     0.029 A 
ATOM     68  C   UNL     1      22.099  28.117  15.174  1.00  0.00     0.006 A 
ATOM     69  C   UNL     1      24.003  28.305  16.571  1.00  0.00     0.002 A 
ATOM     70  C   UNL     1      22.906  27.582  16.148  1.00  0.00     0.000 A 
BRANCH  66  71
ATOM     71  C   UNL     1      21.493  29.900  13.569  1.00  0.00     0.015 C 
ATOM     72  C   UNL     1      20.054  29.579  13.942  1.00  0.00     0.012 C 
ATOM     73  C   UNL     1      21.798  29.197  12.237  1.00  0.00     0.012 C 
ENDBRANCH  66  71
ENDBRANCH  63  65
ENDBRANCH  59  60
ENDBRANCH  58  59
ENDBRANCH  55  58
ENDBRANCH  53  54
ENDBRANCH  50  53
ENDBRANCH  47  50
ENDBRANCH   5  47
BRANCH   4  74
ATOM     74  N   UNL     1      25.689  31.990  17.776  1.00  0.00    -0.348 N 
ATOM     75  C   UNL     1      24.532  32.402  18.455  1.00  0.00     0.217 C 
ATOM     76  H   UNL     1      25.929  30.954  17.807  1.00  0.00     0.163 HD
ATOM     77  C   UNL     1      23.711  31.371  19.174  1.00  0.00     0.114 C 
ATOM     78  O   UNL     1      24.190  33.592  18.465  1.00  0.00    -0.275 OA
ENDBRANCH   4  74
TORSDOF 31
BEGIN_RES LYS A 131
REMARK  4 active torsions:
REMARK  status: ('A' for Active; 'I' for Inactive)
REMARK    1  A    between atoms: CA   and  CB  
REMARK    2  A    between atoms: CB   and  CG  
REMARK    3  A    between atoms: CG   and  CD  
REMARK    4  A    between atoms: CD   and  CE  
ROOT
ATOM      1  CA  LYS A 131      29.867  25.555  16.977  1.00 20.52     0.186 C 
ENDROOT
BRANCH   1   2
ATOM      2  CB  LYS A 131      28.345  25.722  17.026  1.00 20.94     0.034 C 
BRANCH   2   3
ATOM      3  CG  LYS A 131      27.601  24.401  16.899  1.00 22.96     0.005 C 
BRANCH   3   4
ATOM      4  CD  LYS A 131      26.149  24.532  17.264  1.00 24.33     0.041 C 
BRANCH   4   5
ATOM      5  CE  LYS A 131      25.632  23.194  17.783  1.00 26.91     0.338 C 
ATOM      6  NZ  LYS A 131      24.312  22.881  17.188  1.00 27.40     0.618 N 
ENDBRANCH   4   5
ENDBRANCH   3   4
ENDBRANCH   2   3
ENDBRANCH   1   2
END_RES LYS A 131
BEGIN_RES LYS A 135
REMARK  4 active torsions:
REMARK  status: ('A' for Active; 'I' for Inactive)
REMARK    5  A    between atoms: CA   and  CB  
REMARK    6  A    between atoms: CB   and  CG  
REMARK    7  A    between atoms: CG   and  CD  
REMARK    8  A    between atoms: CD   and  CE  
ROOT
ATOM      7  CA  LYS A 135      33.193  34.663   9.290  1.00 25.02     0.186 C 
ENDROOT
BRANCH   7   8
ATOM      8  CB  LYS A 135      32.060  35.360  10.034  1.00 26.63     0.034 C 
BRANCH   8   9
ATOM      9  CG  LYS A 135      30.702  34.769   9.755  1.00 29.45     0.005 C 
BRANCH   9  10
ATOM     10  CD  LYS A 135      30.430  34.732   8.259  1.00 32.00     0.041 C 
BRANCH  10  11
ATOM     11  CE  LYS A 135      28.943  34.840   7.985  1.00 34.25     0.338 C 
ATOM     12  NZ  LYS A 135      28.684  35.543   6.698  1.00 35.99     0.618 N 
ENDBRANCH  10  11
ENDBRANCH   9  10
ENDBRANCH   8   9
ENDBRANCH   7   8
END_RES LYS A 135
