REMARK VINA RESULT:    -5.224      3.559      9.941
REMARK INTER + INTRA:         -22.672
REMARK INTER:                 -13.055
REMARK INTRA:                  -9.617
REMARK UNBOUND:                -9.203
REMARK SMILES CC(=O)N[C@@H]1[C@@H](O)C[C@](OC[C@H]2O[C@@H](O[C@H]3[C@H](O)[C@@H](O)[C@H](OCCN=[N+]=[N-])O[C@@H]3CO)[C@H](O)[C@@H](O)[C@H]2O)(C(=O)O)O[C@H]1C(O)[C@H](O)CNC(=O)OCc1cn(Cc2ccc(C#N)cc2)nn1
REMARK SMILES IDX 9 1 8 2 6 3 5 4 42 5 41 6 10 7 11 8 12 9 14 10 13 11 32 12
REMARK SMILES IDX 34 13 36 14 15 15 16 16 29 17 28 18 21 19 17 20 19 21 30 22
REMARK SMILES IDX 31 23 22 25 23 26 24 27 25 28 26 29 27 30 18 31 20 33 33 35
REMARK SMILES IDX 35 37 37 39 38 41 39 42 40 43 7 45 43 47 44 48 45 50 46 51
REMARK SMILES IDX 47 53 48 54 49 55 50 57 51 58 52 59 53 60 54 61 66 62 55 63
REMARK SMILES IDX 65 64 56 65 57 66 58 67 64 68 59 69 63 70 60 71 61 72 62 73
REMARK SMILES IDX 4 74 2 75 1 77 3 78
REMARK H PARENT 31 24 18 32 20 34 33 36 35 38 37 40 40 44 7 46 44 49 46 52
REMARK H PARENT 48 56 4 76
REMARK Flexibility Score: inf
ROOT
ATOM      1  C   UNL     1      29.164  34.685  14.306  1.00  0.00     0.272 C 
ATOM      2  C   UNL     1      30.430  34.489  13.547  1.00  0.00     0.113 C 
ATOM      3  C   UNL     1      31.668  34.464  14.370  1.00  0.00     0.145 C 
ATOM      4  C   UNL     1      31.438  35.364  15.595  1.00  0.00     0.142 C 
ATOM      5  C   UNL     1      30.431  36.391  15.174  1.00  0.00     0.178 C 
ATOM      6  O   UNL     1      29.186  35.832  15.115  1.00  0.00    -0.332 OA
ENDROOT
BRANCH   1   7
ATOM      7  O   UNL     1      28.717  33.602  15.030  1.00  0.00    -0.338 OA
BRANCH   7   8
ATOM      8  C   UNL     1      28.563  33.820  16.358  1.00  0.00     0.199 C 
BRANCH   8   9
ATOM      9  C   UNL     1      28.023  32.579  17.090  1.00  0.00     0.179 C 
ATOM     10  C   UNL     1      26.621  30.787  16.705  1.00  0.00     0.282 C 
ATOM     11  O   UNL     1      27.051  32.033  16.250  1.00  0.00    -0.341 OA
ATOM     12  C   UNL     1      27.713  29.767  16.746  1.00  0.00     0.202 C 
ATOM     13  C   UNL     1      29.017  30.412  16.339  1.00  0.00     0.179 C 
ATOM     14  C   UNL     1      29.177  31.625  17.245  1.00  0.00     0.177 C 
BRANCH  10  15
ATOM     15  O   UNL     1      25.649  30.346  15.810  1.00  0.00    -0.341 OA
BRANCH  15  16
ATOM     16  C   UNL     1      24.939  31.385  15.213  1.00  0.00     0.184 C 
ATOM     17  C   UNL     1      23.750  31.720  16.041  1.00  0.00     0.178 C 
ATOM     18  O   UNL     1      22.568  31.150  15.666  1.00  0.00    -0.341 OA
ATOM     19  C   UNL     1      22.633  30.171  14.708  1.00  0.00     0.281 C 
ATOM     20  C   UNL     1      24.664  31.138  13.764  1.00  0.00     0.180 C 
ATOM     21  C   UNL     1      23.241  30.756  13.453  1.00  0.00     0.202 C 
BRANCH  17  22
ATOM     22  C   UNL     1      23.643  33.237  16.173  1.00  0.00     0.191 C 
BRANCH  22  23
ATOM     23  O   UNL     1      24.792  33.793  15.611  1.00  0.00    -0.394 OA
ATOM     24  H   UNL     1      25.552  33.134  15.618  1.00  0.00     0.210 HD
ENDBRANCH  22  23
ENDBRANCH  17  22
BRANCH  19  25
ATOM     25  O   UNL     1      21.300  29.820  14.411  1.00  0.00    -0.350 OA
BRANCH  25  26
ATOM     26  C   UNL     1      21.183  28.452  14.211  1.00  0.00     0.169 C 
BRANCH  26  27
ATOM     27  C   UNL     1      20.062  28.141  13.239  1.00  0.00     0.119 C 
BRANCH  27  28
ATOM     28  N   UNL     1      19.033  27.312  13.836  1.00  0.00    -0.092 NA
ATOM     29  N   UNL     1      18.910  26.146  13.496  1.00  0.00     0.001 N 
ATOM     30  N   UNL     1      18.896  24.910  13.602  1.00  0.00    -0.003 NA
ENDBRANCH  27  28
ENDBRANCH  26  27
ENDBRANCH  25  26
ENDBRANCH  19  25
BRANCH  20  31
ATOM     31  O   UNL     1      25.089  32.188  12.941  1.00  0.00    -0.387 OA
ATOM     32  H   UNL     1      25.411  32.953  13.501  1.00  0.00     0.211 HD
ENDBRANCH  20  31
BRANCH  21  33
ATOM     33  O   UNL     1      23.165  29.849  12.394  1.00  0.00    -0.385 OA
ATOM     34  H   UNL     1      23.237  30.380  11.559  1.00  0.00     0.211 HD
ENDBRANCH  21  33
ENDBRANCH  15  16
ENDBRANCH  10  15
BRANCH  12  35
ATOM     35  O   UNL     1      27.888  29.160  17.969  1.00  0.00    -0.385 OA
ATOM     36  H   UNL     1      28.782  28.716  17.999  1.00  0.00     0.211 HD
ENDBRANCH  12  35
BRANCH  13  37
ATOM     37  O   UNL     1      28.930  30.760  15.001  1.00  0.00    -0.387 OA
ATOM     38  H   UNL     1      29.073  31.713  14.812  1.00  0.00     0.211 HD
ENDBRANCH  13  37
BRANCH  14  39
ATOM     39  O   UNL     1      30.403  32.234  17.129  1.00  0.00    -0.387 OA
ATOM     40  H   UNL     1      30.909  31.831  16.392  1.00  0.00     0.211 HD
ENDBRANCH  14  39
ENDBRANCH   8   9
ENDBRANCH   7   8
ENDBRANCH   1   7
BRANCH   1  41
ATOM     41  C   UNL     1      28.111  35.015  13.288  1.00  0.00     0.364 C 
ATOM     42  O   UNL     1      28.334  35.859  12.414  1.00  0.00    -0.246 OA
BRANCH  41  43
ATOM     43  O   UNL     1      26.905  34.358  13.351  1.00  0.00    -0.477 OA
ATOM     44  H   UNL     1      26.628  33.756  14.116  1.00  0.00     0.296 HD
ENDBRANCH  41  43
ENDBRANCH   1  41
BRANCH   3  45
ATOM     45  O   UNL     1      32.158  33.232  14.701  1.00  0.00    -0.391 OA
ATOM     46  H   UNL     1      32.822  32.925  14.051  1.00  0.00     0.211 HD
ENDBRANCH   3  45
BRANCH   5  47
ATOM     47  C   UNL     1      30.440  37.643  16.062  1.00  0.00     0.176 C 
BRANCH  47  48
ATOM     48  O   UNL     1      29.799  38.634  15.283  1.00  0.00    -0.388 OA
ATOM     49  H   UNL     1      30.492  39.267  14.967  1.00  0.00     0.211 HD
ENDBRANCH  47  48
BRANCH  47  50
ATOM     50  C   UNL     1      29.684  37.443  17.299  1.00  0.00     0.165 C 
BRANCH  50  51
ATOM     51  O   UNL     1      29.748  36.081  17.725  1.00  0.00    -0.388 OA
ATOM     52  H   UNL     1      30.221  35.618  16.964  1.00  0.00     0.211 HD
ENDBRANCH  50  51
BRANCH  50  53
ATOM     53  C   UNL     1      28.279  37.897  17.327  1.00  0.00     0.154 C 
BRANCH  53  54
ATOM     54  N   UNL     1      27.255  37.231  16.650  1.00  0.00    -0.319 N 
ATOM     55  C   UNL     1      26.602  37.553  15.446  1.00  0.00     0.407 C 
ATOM     56  H   UNL     1      26.890  36.321  17.101  1.00  0.00     0.167 HD
ATOM     57  O   UNL     1      26.889  38.543  14.758  1.00  0.00    -0.225 OA
BRANCH  55  58
ATOM     58  O   UNL     1      25.567  36.746  14.948  1.00  0.00    -0.443 OA
BRANCH  58  59
ATOM     59  C   UNL     1      24.631  37.282  14.028  1.00  0.00     0.294 C 
BRANCH  59  60
ATOM     60  C   UNL     1      24.473  36.300  12.897  1.00  0.00     0.120 A 
ATOM     61  C   UNL     1      24.718  36.601  11.573  1.00  0.00     0.138 A 
ATOM     62  N   UNL     1      24.079  35.014  12.926  1.00  0.00    -0.132 NA
ATOM     63  N   UNL     1      24.463  35.487  10.839  1.00  0.00    -0.248 N 
ATOM     64  N   UNL     1      24.091  34.584  11.685  1.00  0.00    -0.067 NA
BRANCH  63  65
ATOM     65  C   UNL     1      24.601  35.458   9.391  1.00  0.00     0.181 C 
BRANCH  65  66
ATOM     66  C   UNL     1      26.063  35.174   9.151  1.00  0.00    -0.026 A 
ATOM     67  C   UNL     1      26.736  35.954   8.244  1.00  0.00     0.007 A 
ATOM     68  C   UNL     1      26.695  34.138   9.842  1.00  0.00     0.007 A 
ATOM     69  C   UNL     1      28.069  35.765   7.958  1.00  0.00     0.020 A 
ATOM     70  C   UNL     1      28.023  33.950   9.557  1.00  0.00     0.020 A 
ATOM     71  C   UNL     1      28.685  34.722   8.659  1.00  0.00     0.052 A 
BRANCH  71  72
ATOM     72  C   UNL     1      30.092  34.489   8.358  1.00  0.00     0.099 C 
ATOM     73  N   UNL     1      31.213  34.308   8.099  1.00  0.00    -0.192 NA
ENDBRANCH  71  72
ENDBRANCH  65  66
ENDBRANCH  63  65
ENDBRANCH  59  60
ENDBRANCH  58  59
ENDBRANCH  55  58
ENDBRANCH  53  54
ENDBRANCH  50  53
ENDBRANCH  47  50
ENDBRANCH   5  47
BRANCH   4  74
ATOM     74  N   UNL     1      32.693  35.903  16.056  1.00  0.00    -0.348 N 
ATOM     75  C   UNL     1      33.127  35.587  17.370  1.00  0.00     0.217 C 
ATOM     76  H   UNL     1      33.290  36.506  15.469  1.00  0.00     0.163 HD
ATOM     77  C   UNL     1      34.399  36.099  17.911  1.00  0.00     0.114 C 
ATOM     78  O   UNL     1      32.424  34.843  18.132  1.00  0.00    -0.275 OA
ENDBRANCH   4  74
TORSDOF 32
BEGIN_RES LYS A 131
REMARK  4 active torsions:
REMARK  status: ('A' for Active; 'I' for Inactive)
REMARK    1  A    between atoms: CA   and  CB  
REMARK    2  A    between atoms: CB   and  CG  
REMARK    3  A    between atoms: CG   and  CD  
REMARK    4  A    between atoms: CD   and  CE  
ROOT
ATOM      1  CA  LYS A 131      29.867  25.555  16.977  1.00 20.52     0.186 C 
ENDROOT
BRANCH   1   2
ATOM      2  CB  LYS A 131      28.345  25.722  17.026  1.00 20.94     0.034 C 
BRANCH   2   3
ATOM      3  CG  LYS A 131      27.601  24.400  16.907  1.00 22.96     0.005 C 
BRANCH   3   4
ATOM      4  CD  LYS A 131      26.436  24.319  17.854  1.00 24.33     0.041 C 
BRANCH   4   5
ATOM      5  CE  LYS A 131      25.867  25.716  18.082  1.00 26.91     0.338 C 
ATOM      6  NZ  LYS A 131      24.441  25.768  17.681  1.00 27.40     0.618 N 
ENDBRANCH   4   5
ENDBRANCH   3   4
ENDBRANCH   2   3
ENDBRANCH   1   2
END_RES LYS A 131
BEGIN_RES LYS A 135
REMARK  4 active torsions:
REMARK  status: ('A' for Active; 'I' for Inactive)
REMARK    5  A    between atoms: CA   and  CB  
REMARK    6  A    between atoms: CB   and  CG  
REMARK    7  A    between atoms: CG   and  CD  
REMARK    8  A    between atoms: CD   and  CE  
ROOT
ATOM      7  CA  LYS A 135      33.193  34.663   9.290  1.00 25.02     0.186 C 
ENDROOT
BRANCH   7   8
ATOM      8  CB  LYS A 135      32.060  35.360  10.034  1.00 26.63     0.034 C 
BRANCH   8   9
ATOM      9  CG  LYS A 135      32.532  36.238  11.164  1.00 29.45     0.005 C 
BRANCH   9  10
ATOM     10  CD  LYS A 135      31.616  37.442  11.327  1.00 32.00     0.041 C 
BRANCH  10  11
ATOM     11  CE  LYS A 135      30.886  37.734  10.030  1.00 34.25     0.338 C 
ATOM     12  NZ  LYS A 135      29.517  38.259  10.292  1.00 35.99     0.618 N 
ENDBRANCH  10  11
ENDBRANCH   9  10
ENDBRANCH   8   9
ENDBRANCH   7   8
END_RES LYS A 135
