REMARK VINA RESULT:    -4.476      4.570     10.410
REMARK INTER + INTRA:         -22.800
REMARK INTER:                 -12.064
REMARK INTRA:                 -10.737
REMARK UNBOUND:               -10.737
REMARK SMILES CC(=O)N[C@@H]1[C@@H](O)C[C@](OC[C@H]2O[C@@H](O[C@H]3[C@H](O)[C@@H](O)[C@H](OCCN=[N+]=[N-])O[C@@H]3CO)[C@H](O)[C@@H](O)[C@H]2O)(C(=O)O)O[C@H]1C(O)[C@H](O)CNC(=O)OCc1cn(CCNC(=O)NCc2ccco2)nn1
REMARK SMILES IDX 43 1 42 2 9 3 8 4 41 5 6 6 5 7 10 8 11 9 12 10 14 11 13 12
REMARK SMILES IDX 32 13 34 14 36 15 15 16 16 17 29 18 28 19 21 20 17 21 19 22
REMARK SMILES IDX 30 23 31 24 22 26 23 27 24 28 25 29 26 30 27 31 18 32 20 34
REMARK SMILES IDX 33 36 35 38 37 40 38 42 39 43 40 44 7 46 4 48 2 49 1 51 3 52
REMARK SMILES IDX 44 53 45 55 46 56 47 58 48 59 49 60 50 62 51 63 52 64 53 65
REMARK SMILES IDX 54 66 69 67 55 68 68 69 56 70 57 71 58 72 59 73 60 75 61 76
REMARK SMILES IDX 62 78 63 79 64 80 67 81 65 82 66 83
REMARK H PARENT 31 25 18 33 20 35 33 37 35 39 37 41 40 45 7 47 4 50 44 54
REMARK H PARENT 46 57 48 61 58 74 61 77
REMARK Flexibility Score: inf
ROOT
ATOM      1  C   UNL     1      25.122  35.183  12.473  1.00  0.00     0.176 C 
ENDROOT
BRANCH   1   2
ATOM      2  C   UNL     1      24.077  34.133  12.266  1.00  0.00     0.178 C 
ATOM      3  C   UNL     1      21.959  35.166  12.577  1.00  0.00     0.272 C 
ATOM      4  C   UNL     1      22.333  34.966  14.082  1.00  0.00     0.113 C 
ATOM      5  O   UNL     1      22.898  34.611  11.784  1.00  0.00    -0.332 OA
ATOM      6  C   UNL     1      22.904  33.633  14.356  1.00  0.00     0.145 C 
ATOM      7  C   UNL     1      23.925  33.140  13.359  1.00  0.00     0.142 C 
BRANCH   3   8
ATOM      8  O   UNL     1      22.007  36.534  12.418  1.00  0.00    -0.338 OA
BRANCH   8   9
ATOM      9  C   UNL     1      21.554  37.115  11.310  1.00  0.00     0.199 C 
BRANCH   9  10
ATOM     10  C   UNL     1      22.336  37.633  10.204  1.00  0.00     0.179 C 
ATOM     11  C   UNL     1      24.356  38.267   9.323  1.00  0.00     0.282 C 
ATOM     12  O   UNL     1      23.711  37.516  10.306  1.00  0.00    -0.341 OA
ATOM     13  C   UNL     1      23.533  38.586   8.130  1.00  0.00     0.202 C 
ATOM     14  C   UNL     1      22.488  37.573   7.762  1.00  0.00     0.179 C 
ATOM     15  C   UNL     1      21.973  36.814   8.950  1.00  0.00     0.177 C 
BRANCH  11  16
ATOM     16  O   UNL     1      25.548  37.688   8.919  1.00  0.00    -0.341 OA
BRANCH  16  17
ATOM     17  C   UNL     1      26.221  38.452   7.944  1.00  0.00     0.184 C 
ATOM     18  C   UNL     1      27.307  37.589   7.372  1.00  0.00     0.178 C 
ATOM     19  O   UNL     1      28.437  38.325   7.020  1.00  0.00    -0.341 OA
ATOM     20  C   UNL     1      28.983  38.799   8.206  1.00  0.00     0.281 C 
ATOM     21  C   UNL     1      26.679  39.714   8.596  1.00  0.00     0.180 C 
ATOM     22  C   UNL     1      28.141  39.914   8.730  1.00  0.00     0.202 C 
BRANCH  18  23
ATOM     23  C   UNL     1      26.785  36.970   6.075  1.00  0.00     0.191 C 
BRANCH  23  24
ATOM     24  O   UNL     1      27.477  37.594   5.015  1.00  0.00    -0.394 OA
ATOM     25  H   UNL     1      26.934  38.411   4.811  1.00  0.00     0.210 HD
ENDBRANCH  23  24
ENDBRANCH  18  23
BRANCH  20  26
ATOM     26  O   UNL     1      30.231  39.334   7.874  1.00  0.00    -0.350 OA
BRANCH  26  27
ATOM     27  C   UNL     1      31.271  38.595   8.439  1.00  0.00     0.169 C 
BRANCH  27  28
ATOM     28  C   UNL     1      32.315  39.610   8.911  1.00  0.00     0.119 C 
BRANCH  28  29
ATOM     29  N   UNL     1      32.688  40.391   7.744  1.00  0.00    -0.092 NA
ATOM     30  N   UNL     1      33.442  39.922   6.879  1.00  0.00     0.001 N 
ATOM     31  N   UNL     1      33.929  39.334   5.899  1.00  0.00    -0.003 NA
ENDBRANCH  28  29
ENDBRANCH  27  28
ENDBRANCH  26  27
ENDBRANCH  20  26
BRANCH  21  32
ATOM     32  O   UNL     1      26.110  40.784   7.876  1.00  0.00    -0.387 OA
ATOM     33  H   UNL     1      26.725  41.154   7.217  1.00  0.00     0.211 HD
ENDBRANCH  21  32
BRANCH  22  34
ATOM     34  O   UNL     1      28.447  40.019  10.110  1.00  0.00    -0.385 OA
ATOM     35  H   UNL     1      29.445  40.138  10.146  1.00  0.00     0.211 HD
ENDBRANCH  22  34
ENDBRANCH  16  17
ENDBRANCH  11  16
BRANCH  13  36
ATOM     36  O   UNL     1      23.017  39.889   8.155  1.00  0.00    -0.385 OA
ATOM     37  H   UNL     1      22.419  40.063   7.394  1.00  0.00     0.211 HD
ENDBRANCH  13  36
BRANCH  14  38
ATOM     38  O   UNL     1      22.940  36.692   6.771  1.00  0.00    -0.387 OA
ATOM     39  H   UNL     1      23.903  36.916   6.644  1.00  0.00     0.211 HD
ENDBRANCH  14  38
BRANCH  15  40
ATOM     40  O   UNL     1      22.446  35.527   9.041  1.00  0.00    -0.387 OA
ATOM     41  H   UNL     1      23.221  35.528   9.633  1.00  0.00     0.211 HD
ENDBRANCH  15  40
ENDBRANCH   9  10
ENDBRANCH   8   9
ENDBRANCH   3   8
BRANCH   3  42
ATOM     42  C   UNL     1      20.592  34.657  12.499  1.00  0.00     0.364 C 
ATOM     43  O   UNL     1      20.258  33.822  11.646  1.00  0.00    -0.246 OA
BRANCH  42  44
ATOM     44  O   UNL     1      19.569  35.063  13.363  1.00  0.00    -0.477 OA
ATOM     45  H   UNL     1      19.609  35.998  13.771  1.00  0.00     0.296 HD
ENDBRANCH  42  44
ENDBRANCH   3  42
BRANCH   6  46
ATOM     46  O   UNL     1      23.507  33.684  15.627  1.00  0.00    -0.391 OA
ATOM     47  H   UNL     1      23.154  34.468  16.119  1.00  0.00     0.211 HD
ENDBRANCH   6  46
BRANCH   7  48
ATOM     48  N   UNL     1      23.487  31.840  12.850  1.00  0.00    -0.348 N 
ATOM     49  C   UNL     1      24.065  30.647  13.303  1.00  0.00     0.217 C 
ATOM     50  H   UNL     1      22.727  31.827  12.136  1.00  0.00     0.163 HD
ATOM     51  C   UNL     1      23.654  29.297  12.812  1.00  0.00     0.114 C 
ATOM     52  O   UNL     1      24.987  30.739  14.175  1.00  0.00    -0.275 OA
ENDBRANCH   7  48
ENDBRANCH   1   2
BRANCH   1  53
ATOM     53  O   UNL     1      25.734  35.448  11.196  1.00  0.00    -0.388 OA
ATOM     54  H   UNL     1      24.996  35.593  10.584  1.00  0.00     0.211 HD
ENDBRANCH   1  53
BRANCH   1  55
ATOM     55  C   UNL     1      26.298  34.796  13.322  1.00  0.00     0.165 C 
BRANCH  55  56
ATOM     56  O   UNL     1      26.422  35.427  14.536  1.00  0.00    -0.388 OA
ATOM     57  H   UNL     1      26.862  34.873  15.229  1.00  0.00     0.211 HD
ENDBRANCH  55  56
BRANCH  55  58
ATOM     58  C   UNL     1      27.607  34.887  12.531  1.00  0.00     0.154 C 
BRANCH  58  59
ATOM     59  N   UNL     1      28.359  36.059  12.911  1.00  0.00    -0.319 N 
ATOM     60  C   UNL     1      28.657  37.113  12.017  1.00  0.00     0.407 C 
ATOM     61  H   UNL     1      28.694  36.132  13.891  1.00  0.00     0.167 HD
ATOM     62  O   UNL     1      28.255  37.044  10.826  1.00  0.00    -0.225 OA
BRANCH  60  63
ATOM     63  O   UNL     1      29.387  38.230  12.411  1.00  0.00    -0.443 OA
BRANCH  63  64
ATOM     64  C   UNL     1      30.762  38.314  12.049  1.00  0.00     0.294 C 
BRANCH  64  65
ATOM     65  C   UNL     1      31.467  37.369  12.970  1.00  0.00     0.120 A 
ATOM     66  C   UNL     1      31.380  37.384  14.336  1.00  0.00     0.138 A 
ATOM     67  N   UNL     1      32.293  36.354  12.617  1.00  0.00    -0.132 NA
ATOM     68  N   UNL     1      32.146  36.394  14.768  1.00  0.00    -0.250 N 
ATOM     69  N   UNL     1      32.696  35.774  13.724  1.00  0.00    -0.067 NA
BRANCH  68  70
ATOM     70  C   UNL     1      32.355  36.054  16.175  1.00  0.00     0.167 C 
BRANCH  70  71
ATOM     71  C   UNL     1      32.290  34.530  16.280  1.00  0.00     0.141 C 
BRANCH  71  72
ATOM     72  N   UNL     1      31.035  34.124  15.718  1.00  0.00    -0.336 N 
ATOM     73  C   UNL     1      29.911  33.758  16.486  1.00  0.00     0.315 C 
ATOM     74  H   UNL     1      30.978  34.105  14.665  1.00  0.00     0.165 HD
ATOM     75  O   UNL     1      29.954  33.749  17.735  1.00  0.00    -0.249 OA
ATOM     76  N   UNL     1      28.700  33.394  15.804  1.00  0.00    -0.331 N 
ATOM     77  H   UNL     1      28.711  33.416  14.753  1.00  0.00     0.165 HD
BRANCH  76  78
ATOM     78  C   UNL     1      27.533  33.018  16.551  1.00  0.00     0.193 C 
BRANCH  78  79
ATOM     79  C   UNL     1      27.412  31.537  16.613  1.00  0.00     0.122 A 
ATOM     80  C   UNL     1      28.219  30.655  15.904  1.00  0.00     0.047 A 
ATOM     81  O   UNL     1      26.569  30.853  17.310  1.00  0.00    -0.467 OA
ATOM     82  C   UNL     1      27.789  29.403  16.236  1.00  0.00     0.042 A 
ATOM     83  C   UNL     1      26.755  29.565  17.117  1.00  0.00     0.195 A 
ENDBRANCH  78  79
ENDBRANCH  76  78
ENDBRANCH  71  72
ENDBRANCH  70  71
ENDBRANCH  68  70
ENDBRANCH  64  65
ENDBRANCH  63  64
ENDBRANCH  60  63
ENDBRANCH  58  59
ENDBRANCH  55  58
ENDBRANCH   1  55
TORSDOF 34
BEGIN_RES LYS A 131
REMARK  4 active torsions:
REMARK  status: ('A' for Active; 'I' for Inactive)
REMARK    1  A    between atoms: CA   and  CB  
REMARK    2  A    between atoms: CB   and  CG  
REMARK    3  A    between atoms: CG   and  CD  
REMARK    4  A    between atoms: CD   and  CE  
ROOT
ATOM      1  CA  LYS A 131      29.867  25.555  16.977  1.00 20.52     0.186 C 
ENDROOT
BRANCH   1   2
ATOM      2  CB  LYS A 131      28.345  25.722  17.026  1.00 20.94     0.034 C 
BRANCH   2   3
ATOM      3  CG  LYS A 131      27.601  24.405  16.868  1.00 22.96     0.005 C 
BRANCH   3   4
ATOM      4  CD  LYS A 131      26.265  24.423  17.557  1.00 24.33     0.041 C 
BRANCH   4   5
ATOM      5  CE  LYS A 131      26.094  25.743  18.302  1.00 26.91     0.338 C 
ATOM      6  NZ  LYS A 131      25.548  25.507  19.659  1.00 27.40     0.618 N 
ENDBRANCH   4   5
ENDBRANCH   3   4
ENDBRANCH   2   3
ENDBRANCH   1   2
END_RES LYS A 131
BEGIN_RES LYS A 135
REMARK  4 active torsions:
REMARK  status: ('A' for Active; 'I' for Inactive)
REMARK    5  A    between atoms: CA   and  CB  
REMARK    6  A    between atoms: CB   and  CG  
REMARK    7  A    between atoms: CG   and  CD  
REMARK    8  A    between atoms: CD   and  CE  
ROOT
ATOM      7  CA  LYS A 135      33.193  34.663   9.290  1.00 25.02     0.186 C 
ENDROOT
BRANCH   7   8
ATOM      8  CB  LYS A 135      32.060  35.360  10.034  1.00 26.63     0.034 C 
BRANCH   8   9
ATOM      9  CG  LYS A 135      30.715  34.713   9.826  1.00 29.45     0.005 C 
BRANCH   9  10
ATOM     10  CD  LYS A 135      30.288  34.819   8.370  1.00 32.00     0.041 C 
BRANCH  10  11
ATOM     11  CE  LYS A 135      28.809  34.518   8.225  1.00 34.25     0.338 C 
ATOM     12  NZ  LYS A 135      28.298  33.760   9.401  1.00 35.99     0.618 N 
ENDBRANCH  10  11
ENDBRANCH   9  10
ENDBRANCH   8   9
ENDBRANCH   7   8
END_RES LYS A 135
