REMARK VINA RESULT:    -5.052      4.549     10.387
REMARK INTER + INTRA:         -21.845
REMARK INTER:                 -10.275
REMARK INTRA:                 -11.569
REMARK UNBOUND:                -9.408
REMARK SMILES CC(=O)N[C@@H]1[C@@H](O)C[C@](OC[C@H]2O[C@@H](O[C@H]3[C@H](O)[C@@H](O)[C@H](OCCN=[N+]=[N-])O[C@@H]3CO)[C@H](O)[C@@H](O)[C@H]2O)(C(=O)O)O[C@H]1C(O)[C@H](O)CNC(=O)OCc1cn(-c2cccc(Cl)c2)nn1
REMARK SMILES IDX 9 1 8 2 6 3 5 4 42 5 41 6 10 7 11 8 12 9 14 10 13 11 32 12
REMARK SMILES IDX 34 13 36 14 15 15 16 16 29 17 28 18 21 19 17 20 19 21 30 22
REMARK SMILES IDX 31 23 22 25 23 26 24 27 25 28 26 29 27 30 18 31 20 33 33 35
REMARK SMILES IDX 35 37 37 39 38 41 39 42 40 43 7 45 43 47 44 48 45 50 46 51
REMARK SMILES IDX 47 53 48 54 49 55 50 57 51 58 52 59 53 60 54 61 64 62 55 63
REMARK SMILES IDX 63 64 56 65 57 66 62 67 58 68 60 69 59 70 61 71 4 72 2 73
REMARK SMILES IDX 1 75 3 76
REMARK H PARENT 31 24 18 32 20 34 33 36 35 38 37 40 40 44 7 46 44 49 46 52
REMARK H PARENT 48 56 4 74
REMARK Flexibility Score: inf
ROOT
ATOM      1  C   UNL     1      22.757  36.476   9.012  1.00  0.00     0.272 C 
ATOM      2  C   UNL     1      21.804  35.609   8.317  1.00  0.00     0.113 C 
ATOM      3  C   UNL     1      20.385  35.584   8.777  1.00  0.00     0.145 C 
ATOM      4  C   UNL     1      20.129  36.453   9.982  1.00  0.00     0.142 C 
ATOM      5  C   UNL     1      21.409  36.340  10.827  1.00  0.00     0.178 C 
ATOM      6  O   UNL     1      22.319  37.116  10.174  1.00  0.00    -0.332 OA
ENDROOT
BRANCH   1   7
ATOM      7  O   UNL     1      23.462  37.412   8.320  1.00  0.00    -0.338 OA
BRANCH   7   8
ATOM      8  C   UNL     1      23.912  38.553   8.839  1.00  0.00     0.199 C 
BRANCH   8   9
ATOM      9  C   UNL     1      25.354  38.921   8.719  1.00  0.00     0.179 C 
ATOM     10  C   UNL     1      27.448  38.401   9.541  1.00  0.00     0.282 C 
ATOM     11  O   UNL     1      26.100  38.005   9.490  1.00  0.00    -0.341 OA
ATOM     12  C   UNL     1      28.013  38.400   8.153  1.00  0.00     0.202 C 
ATOM     13  C   UNL     1      27.216  39.099   7.097  1.00  0.00     0.179 C 
ATOM     14  C   UNL     1      25.767  38.691   7.246  1.00  0.00     0.177 C 
BRANCH  10  15
ATOM     15  O   UNL     1      28.076  37.402  10.236  1.00  0.00    -0.341 OA
BRANCH  15  16
ATOM     16  C   UNL     1      28.104  37.496  11.626  1.00  0.00     0.184 C 
ATOM     17  C   UNL     1      29.401  37.839  12.196  1.00  0.00     0.178 C 
ATOM     18  O   UNL     1      29.777  37.060  13.264  1.00  0.00    -0.341 OA
ATOM     19  C   UNL     1      29.376  35.729  13.195  1.00  0.00     0.281 C 
ATOM     20  C   UNL     1      27.328  36.327  12.126  1.00  0.00     0.180 C 
ATOM     21  C   UNL     1      27.869  35.796  13.417  1.00  0.00     0.202 C 
BRANCH  17  22
ATOM     22  C   UNL     1      29.392  39.275  12.746  1.00  0.00     0.191 C 
BRANCH  22  23
ATOM     23  O   UNL     1      28.074  39.768  12.580  1.00  0.00    -0.394 OA
ATOM     24  H   UNL     1      27.645  39.826  13.453  1.00  0.00     0.210 HD
ENDBRANCH  22  23
ENDBRANCH  17  22
BRANCH  19  25
ATOM     25  O   UNL     1      29.971  35.043  14.214  1.00  0.00    -0.350 OA
BRANCH  25  26
ATOM     26  C   UNL     1      30.388  33.767  13.932  1.00  0.00     0.169 C 
BRANCH  26  27
ATOM     27  C   UNL     1      30.411  32.825  15.106  1.00  0.00     0.119 C 
BRANCH  27  28
ATOM     28  N   UNL     1      29.022  32.405  15.346  1.00  0.00    -0.092 NA
ATOM     29  N   UNL     1      28.817  31.173  15.371  1.00  0.00     0.001 N 
ATOM     30  N   UNL     1      28.603  30.030  15.813  1.00  0.00    -0.003 NA
ENDBRANCH  27  28
ENDBRANCH  26  27
ENDBRANCH  25  26
ENDBRANCH  19  25
BRANCH  20  31
ATOM     31  O   UNL     1      25.964  36.659  12.243  1.00  0.00    -0.387 OA
ATOM     32  H   UNL     1      25.942  37.535  12.704  1.00  0.00     0.211 HD
ENDBRANCH  20  31
BRANCH  21  33
ATOM     33  O   UNL     1      27.367  34.502  13.597  1.00  0.00    -0.385 OA
ATOM     34  H   UNL     1      28.000  33.922  14.049  1.00  0.00     0.211 HD
ENDBRANCH  21  33
ENDBRANCH  15  16
ENDBRANCH  10  15
BRANCH  12  35
ATOM     35  O   UNL     1      29.283  38.995   8.118  1.00  0.00    -0.385 OA
ATOM     36  H   UNL     1      29.606  39.114   7.197  1.00  0.00     0.211 HD
ENDBRANCH  12  35
BRANCH  13  37
ATOM     37  O   UNL     1      27.648  38.646   5.849  1.00  0.00    -0.387 OA
ATOM     38  H   UNL     1      28.003  37.742   5.852  1.00  0.00     0.211 HD
ENDBRANCH  13  37
BRANCH  14  39
ATOM     39  O   UNL     1      25.754  37.282   7.123  1.00  0.00    -0.387 OA
ATOM     40  H   UNL     1      26.175  36.970   6.307  1.00  0.00     0.211 HD
ENDBRANCH  14  39
ENDBRANCH   8   9
ENDBRANCH   7   8
ENDBRANCH   1   7
BRANCH   1  41
ATOM     41  C   UNL     1      23.854  35.546   9.552  1.00  0.00     0.364 C 
ATOM     42  O   UNL     1      24.803  35.146   8.854  1.00  0.00    -0.246 OA
BRANCH  41  43
ATOM     43  O   UNL     1      23.787  35.127  10.886  1.00  0.00    -0.477 OA
ATOM     44  H   UNL     1      24.256  34.249  11.137  1.00  0.00     0.296 HD
ENDBRANCH  41  43
ENDBRANCH   1  41
BRANCH   3  45
ATOM     45  O   UNL     1      19.472  35.917   7.791  1.00  0.00    -0.391 OA
ATOM     46  H   UNL     1      19.877  35.931   6.894  1.00  0.00     0.211 HD
ENDBRANCH   3  45
BRANCH   5  47
ATOM     47  C   UNL     1      21.152  36.721  12.275  1.00  0.00     0.176 C 
BRANCH  47  48
ATOM     48  O   UNL     1      21.611  35.592  13.002  1.00  0.00    -0.388 OA
ATOM     49  H   UNL     1      22.114  35.942  13.796  1.00  0.00     0.211 HD
ENDBRANCH  47  48
BRANCH  47  50
ATOM     50  C   UNL     1      22.083  37.854  12.653  1.00  0.00     0.165 C 
BRANCH  50  51
ATOM     51  O   UNL     1      23.392  37.405  12.649  1.00  0.00    -0.388 OA
ATOM     52  H   UNL     1      23.764  37.272  13.550  1.00  0.00     0.211 HD
ENDBRANCH  50  51
BRANCH  50  53
ATOM     53  C   UNL     1      21.761  38.302  14.082  1.00  0.00     0.154 C 
BRANCH  53  54
ATOM     54  N   UNL     1      22.796  37.931  15.008  1.00  0.00    -0.319 N 
ATOM     55  C   UNL     1      22.637  37.119  16.141  1.00  0.00     0.407 C 
ATOM     56  H   UNL     1      23.780  38.306  14.821  1.00  0.00     0.167 HD
ATOM     57  O   UNL     1      21.515  36.626  16.407  1.00  0.00    -0.225 OA
BRANCH  55  58
ATOM     58  O   UNL     1      23.725  36.830  17.013  1.00  0.00    -0.443 OA
BRANCH  58  59
ATOM     59  C   UNL     1      24.314  35.557  16.989  1.00  0.00     0.294 C 
BRANCH  59  60
ATOM     60  C   UNL     1      24.214  34.867  15.677  1.00  0.00     0.121 A 
ATOM     61  C   UNL     1      23.766  33.564  15.435  1.00  0.00     0.144 A 
ATOM     62  N   UNL     1      24.536  35.322  14.454  1.00  0.00    -0.131 NA
ATOM     63  N   UNL     1      23.836  33.297  14.119  1.00  0.00    -0.220 N 
ATOM     64  N   UNL     1      24.304  34.369  13.535  1.00  0.00    -0.062 NA
BRANCH  63  65
ATOM     65  C   UNL     1      23.460  32.045  13.561  1.00  0.00     0.068 A 
ATOM     66  C   UNL     1      24.327  30.989  13.399  1.00  0.00     0.028 A 
ATOM     67  C   UNL     1      22.138  31.829  13.136  1.00  0.00     0.049 A 
ATOM     68  C   UNL     1      23.909  29.781  12.848  1.00  0.00     0.004 A 
ATOM     69  C   UNL     1      21.729  30.636  12.591  1.00  0.00     0.043 A 
ATOM     70  C   UNL     1      22.608  29.589  12.436  1.00  0.00     0.020 A 
ATOM     71  Cl  UNL     1      20.071  30.382  12.065  1.00  0.00    -0.084 Cl
ENDBRANCH  63  65
ENDBRANCH  59  60
ENDBRANCH  58  59
ENDBRANCH  55  58
ENDBRANCH  53  54
ENDBRANCH  50  53
ENDBRANCH  47  50
ENDBRANCH   5  47
BRANCH   4  72
ATOM     72  N   UNL     1      18.946  36.096  10.693  1.00  0.00    -0.348 N 
ATOM     73  C   UNL     1      17.778  36.937  10.678  1.00  0.00     0.217 C 
ATOM     74  H   UNL     1      18.828  35.224  11.262  1.00  0.00     0.163 HD
ATOM     75  C   UNL     1      16.547  36.592  11.402  1.00  0.00     0.114 C 
ATOM     76  O   UNL     1      17.827  37.999  10.021  1.00  0.00    -0.275 OA
ENDBRANCH   4  72
TORSDOF 30
BEGIN_RES LYS A 131
REMARK  4 active torsions:
REMARK  status: ('A' for Active; 'I' for Inactive)
REMARK    1  A    between atoms: CA   and  CB  
REMARK    2  A    between atoms: CB   and  CG  
REMARK    3  A    between atoms: CG   and  CD  
REMARK    4  A    between atoms: CD   and  CE  
ROOT
ATOM      1  CA  LYS A 131      29.867  25.555  16.977  1.00 20.52     0.186 C 
ENDROOT
BRANCH   1   2
ATOM      2  CB  LYS A 131      28.345  25.722  17.026  1.00 20.94     0.034 C 
BRANCH   2   3
ATOM      3  CG  LYS A 131      27.601  24.404  16.878  1.00 22.96     0.005 C 
BRANCH   3   4
ATOM      4  CD  LYS A 131      26.149  24.528  17.247  1.00 24.33     0.041 C 
BRANCH   4   5
ATOM      5  CE  LYS A 131      25.832  23.576  18.396  1.00 26.91     0.338 C 
ATOM      6  NZ  LYS A 131      25.021  22.434  17.915  1.00 27.40     0.618 N 
ENDBRANCH   4   5
ENDBRANCH   3   4
ENDBRANCH   2   3
ENDBRANCH   1   2
END_RES LYS A 131
BEGIN_RES LYS A 135
REMARK  4 active torsions:
REMARK  status: ('A' for Active; 'I' for Inactive)
REMARK    5  A    between atoms: CA   and  CB  
REMARK    6  A    between atoms: CB   and  CG  
REMARK    7  A    between atoms: CG   and  CD  
REMARK    8  A    between atoms: CD   and  CE  
ROOT
ATOM      7  CA  LYS A 135      33.193  34.663   9.290  1.00 25.02     0.186 C 
ENDROOT
BRANCH   7   8
ATOM      8  CB  LYS A 135      32.060  35.360  10.034  1.00 26.63     0.034 C 
BRANCH   8   9
ATOM      9  CG  LYS A 135      30.731  34.662   9.899  1.00 29.45     0.005 C 
BRANCH   9  10
ATOM     10  CD  LYS A 135      30.369  34.477   8.433  1.00 32.00     0.041 C 
BRANCH  10  11
ATOM     11  CE  LYS A 135      28.866  34.549   8.244  1.00 34.25     0.338 C 
ATOM     12  NZ  LYS A 135      28.518  35.256   6.980  1.00 35.99     0.618 N 
ENDBRANCH  10  11
ENDBRANCH   9  10
ENDBRANCH   8   9
ENDBRANCH   7   8
END_RES LYS A 135
