REMARK VINA RESULT:    -4.145      2.550      4.873
REMARK INTER + INTRA:         -22.295
REMARK INTER:                 -13.169
REMARK INTRA:                  -9.126
REMARK UNBOUND:               -11.851
REMARK SMILES CC(=O)N[C@@H]1[C@@H](O)C[C@](OC[C@H]2O[C@@H](O[C@H]3[C@H](O)[C@@H](O)[C@H](OCCN=[N+]=[N-])O[C@@H]3CO)[C@H](O)[C@@H](O)[C@H]2O)(C(=O)O)O[C@H]1C(O)[C@H](O)CNC(=O)OCc1cn(Cc2ccccc2)nn1
REMARK SMILES IDX 9 1 8 2 6 3 5 4 42 5 41 6 10 7 11 8 12 9 14 10 13 11 32 12
REMARK SMILES IDX 34 13 36 14 15 15 16 16 29 17 28 18 21 19 17 20 19 21 30 22
REMARK SMILES IDX 31 23 22 25 23 26 24 27 25 28 26 29 27 30 18 31 20 33 33 35
REMARK SMILES IDX 35 37 37 39 38 41 39 42 40 43 7 45 43 47 44 48 45 50 46 51
REMARK SMILES IDX 47 53 48 54 49 55 50 57 51 58 52 59 53 60 54 61 64 62 55 63
REMARK SMILES IDX 63 64 56 65 57 66 58 67 62 68 59 69 61 70 60 71 4 72 2 73
REMARK SMILES IDX 1 75 3 76
REMARK H PARENT 31 24 18 32 20 34 33 36 35 38 37 40 40 44 7 46 44 49 46 52
REMARK H PARENT 48 56 4 74
REMARK Flexibility Score: inf
ROOT
ATOM      1  C   UNL     1      32.642  35.686  15.415  1.00  0.00     0.272 C 
ATOM      2  C   UNL     1      33.877  35.881  16.216  1.00  0.00     0.113 C 
ATOM      3  C   UNL     1      33.620  36.870  17.287  1.00  0.00     0.145 C 
ATOM      4  C   UNL     1      32.225  37.513  17.227  1.00  0.00     0.142 C 
ATOM      5  C   UNL     1      31.850  37.845  15.846  1.00  0.00     0.178 C 
ATOM      6  O   UNL     1      32.309  36.940  14.870  1.00  0.00    -0.332 OA
ENDROOT
BRANCH   1   7
ATOM      7  O   UNL     1      31.570  35.121  16.074  1.00  0.00    -0.338 OA
BRANCH   7   8
ATOM      8  C   UNL     1      31.954  33.936  16.680  1.00  0.00     0.199 C 
BRANCH   8   9
ATOM      9  C   UNL     1      30.780  33.025  16.957  1.00  0.00     0.179 C 
ATOM     10  C   UNL     1      28.452  33.037  16.806  1.00  0.00     0.282 C 
ATOM     11  O   UNL     1      29.612  33.718  17.181  1.00  0.00    -0.341 OA
ATOM     12  C   UNL     1      28.503  31.586  17.113  1.00  0.00     0.202 C 
ATOM     13  C   UNL     1      29.607  30.928  16.349  1.00  0.00     0.179 C 
ATOM     14  C   UNL     1      30.633  31.948  15.915  1.00  0.00     0.177 C 
BRANCH  10  15
ATOM     15  O   UNL     1      28.154  33.250  15.470  1.00  0.00    -0.341 OA
BRANCH  15  16
ATOM     16  C   UNL     1      27.240  34.274  15.256  1.00  0.00     0.184 C 
ATOM     17  C   UNL     1      27.934  35.581  15.159  1.00  0.00     0.178 C 
ATOM     18  O   UNL     1      26.943  36.571  14.992  1.00  0.00    -0.341 OA
ATOM     19  C   UNL     1      26.398  36.763  16.278  1.00  0.00     0.281 C 
ATOM     20  C   UNL     1      26.370  34.292  16.524  1.00  0.00     0.180 C 
ATOM     21  C   UNL     1      25.569  35.544  16.656  1.00  0.00     0.202 C 
BRANCH  17  22
ATOM     22  C   UNL     1      28.906  35.639  13.984  1.00  0.00     0.191 C 
BRANCH  22  23
ATOM     23  O   UNL     1      28.588  34.550  13.143  1.00  0.00    -0.394 OA
ATOM     24  H   UNL     1      28.774  33.713  13.631  1.00  0.00     0.210 HD
ENDBRANCH  22  23
ENDBRANCH  17  22
BRANCH  19  25
ATOM     25  O   UNL     1      25.609  37.886  16.270  1.00  0.00    -0.350 OA
BRANCH  25  26
ATOM     26  C   UNL     1      26.231  38.903  16.968  1.00  0.00     0.169 C 
BRANCH  26  27
ATOM     27  C   UNL     1      25.729  40.282  16.659  1.00  0.00     0.119 C 
BRANCH  27  28
ATOM     28  N   UNL     1      26.838  41.201  16.956  1.00  0.00    -0.092 NA
ATOM     29  N   UNL     1      27.643  40.839  17.812  1.00  0.00     0.001 N 
ATOM     30  N   UNL     1      28.681  40.709  18.476  1.00  0.00    -0.003 NA
ENDBRANCH  27  28
ENDBRANCH  26  27
ENDBRANCH  25  26
ENDBRANCH  19  25
BRANCH  20  31
ATOM     31  O   UNL     1      25.484  33.207  16.361  1.00  0.00    -0.387 OA
ATOM     32  H   UNL     1      24.546  33.455  16.576  1.00  0.00     0.211 HD
ENDBRANCH  20  31
BRANCH  21  33
ATOM     33  O   UNL     1      25.175  35.703  17.984  1.00  0.00    -0.385 OA
ATOM     34  H   UNL     1      24.794  36.604  18.165  1.00  0.00     0.211 HD
ENDBRANCH  21  33
ENDBRANCH  15  16
ENDBRANCH  10  15
BRANCH  12  35
ATOM     35  O   UNL     1      28.604  31.335  18.492  1.00  0.00    -0.385 OA
ATOM     36  H   UNL     1      27.945  31.933  18.927  1.00  0.00     0.211 HD
ENDBRANCH  12  35
BRANCH  13  37
ATOM     37  O   UNL     1      29.066  30.282  15.243  1.00  0.00    -0.387 OA
ATOM     38  H   UNL     1      29.512  30.547  14.394  1.00  0.00     0.211 HD
ENDBRANCH  13  37
BRANCH  14  39
ATOM     39  O   UNL     1      30.470  32.395  14.633  1.00  0.00    -0.387 OA
ATOM     40  H   UNL     1      29.664  32.110  14.158  1.00  0.00     0.211 HD
ENDBRANCH  14  39
ENDBRANCH   8   9
ENDBRANCH   7   8
ENDBRANCH   1   7
BRANCH   1  41
ATOM     41  C   UNL     1      32.889  34.860  14.183  1.00  0.00     0.364 C 
ATOM     42  O   UNL     1      34.042  34.543  13.886  1.00  0.00    -0.246 OA
BRANCH  41  43
ATOM     43  O   UNL     1      31.830  34.464  13.398  1.00  0.00    -0.477 OA
ATOM     44  H   UNL     1      31.327  35.111  12.787  1.00  0.00     0.296 HD
ENDBRANCH  41  43
ENDBRANCH   1  41
BRANCH   3  45
ATOM     45  O   UNL     1      33.735  36.350  18.591  1.00  0.00    -0.391 OA
ATOM     46  H   UNL     1      32.939  35.887  18.892  1.00  0.00     0.211 HD
ENDBRANCH   3  45
BRANCH   5  47
ATOM     47  C   UNL     1      30.442  38.107  15.508  1.00  0.00     0.176 C 
BRANCH  47  48
ATOM     48  O   UNL     1      29.646  38.524  16.552  1.00  0.00    -0.388 OA
ATOM     49  H   UNL     1      29.746  39.469  16.800  1.00  0.00     0.211 HD
ENDBRANCH  47  48
BRANCH  47  50
ATOM     50  C   UNL     1      30.144  38.938  14.294  1.00  0.00     0.165 C 
BRANCH  50  51
ATOM     51  O   UNL     1      31.224  39.592  13.785  1.00  0.00    -0.388 OA
ATOM     52  H   UNL     1      31.850  39.931  14.454  1.00  0.00     0.211 HD
ENDBRANCH  50  51
BRANCH  50  53
ATOM     53  C   UNL     1      28.860  39.703  14.417  1.00  0.00     0.154 C 
BRANCH  53  54
ATOM     54  N   UNL     1      27.772  39.176  13.635  1.00  0.00    -0.319 N 
ATOM     55  C   UNL     1      27.473  39.560  12.287  1.00  0.00     0.407 C 
ATOM     56  H   UNL     1      27.102  38.444  14.021  1.00  0.00     0.167 HD
ATOM     57  O   UNL     1      28.187  40.419  11.720  1.00  0.00    -0.225 OA
BRANCH  55  58
ATOM     58  O   UNL     1      26.412  39.007  11.596  1.00  0.00    -0.443 OA
BRANCH  58  59
ATOM     59  C   UNL     1      25.593  38.055  12.231  1.00  0.00     0.294 C 
BRANCH  59  60
ATOM     60  C   UNL     1      25.779  36.710  11.646  1.00  0.00     0.120 A 
ATOM     61  C   UNL     1      26.063  36.479  10.293  1.00  0.00     0.138 A 
ATOM     62  N   UNL     1      25.731  35.494  12.201  1.00  0.00    -0.132 NA
ATOM     63  N   UNL     1      26.172  35.155  10.102  1.00  0.00    -0.248 N 
ATOM     64  N   UNL     1      25.971  34.578  11.251  1.00  0.00    -0.067 NA
BRANCH  63  65
ATOM     65  C   UNL     1      26.467  34.515   8.840  1.00  0.00     0.181 C 
BRANCH  65  66
ATOM     66  C   UNL     1      27.931  34.550   8.600  1.00  0.00    -0.026 A 
ATOM     67  C   UNL     1      28.478  35.182   7.497  1.00  0.00     0.005 A 
ATOM     68  C   UNL     1      28.770  33.930   9.513  1.00  0.00     0.005 A 
ATOM     69  C   UNL     1      29.851  35.187   7.318  1.00  0.00     0.000 A 
ATOM     70  C   UNL     1      30.139  33.942   9.324  1.00  0.00     0.000 A 
ATOM     71  C   UNL     1      30.672  34.570   8.228  1.00  0.00     0.000 A 
ENDBRANCH  65  66
ENDBRANCH  63  65
ENDBRANCH  59  60
ENDBRANCH  58  59
ENDBRANCH  55  58
ENDBRANCH  53  54
ENDBRANCH  50  53
ENDBRANCH  47  50
ENDBRANCH   5  47
BRANCH   4  72
ATOM     72  N   UNL     1      32.457  38.749  18.002  1.00  0.00    -0.348 N 
ATOM     73  C   UNL     1      31.943  38.954  19.302  1.00  0.00     0.217 C 
ATOM     74  H   UNL     1      33.025  39.513  17.575  1.00  0.00     0.163 HD
ATOM     75  C   UNL     1      32.190  40.218  20.060  1.00  0.00     0.114 C 
ATOM     76  O   UNL     1      31.261  38.041  19.827  1.00  0.00    -0.275 OA
ENDBRANCH   4  72
TORSDOF 31
BEGIN_RES LYS A 131
REMARK  4 active torsions:
REMARK  status: ('A' for Active; 'I' for Inactive)
REMARK    1  A    between atoms: CA   and  CB  
REMARK    2  A    between atoms: CB   and  CG  
REMARK    3  A    between atoms: CG   and  CD  
REMARK    4  A    between atoms: CD   and  CE  
ROOT
ATOM      1  CA  LYS A 131      29.867  25.555  16.977  1.00 20.52     0.186 C 
ENDROOT
BRANCH   1   2
ATOM      2  CB  LYS A 131      28.345  25.722  17.026  1.00 20.94     0.034 C 
BRANCH   2   3
ATOM      3  CG  LYS A 131      27.601  24.403  16.887  1.00 22.96     0.005 C 
BRANCH   3   4
ATOM      4  CD  LYS A 131      26.710  24.128  18.067  1.00 24.33     0.041 C 
BRANCH   4   5
ATOM      5  CE  LYS A 131      26.014  25.418  18.490  1.00 26.91     0.338 C 
ATOM      6  NZ  LYS A 131      24.807  25.652  17.663  1.00 27.40     0.618 N 
ENDBRANCH   4   5
ENDBRANCH   3   4
ENDBRANCH   2   3
ENDBRANCH   1   2
END_RES LYS A 131
BEGIN_RES LYS A 135
REMARK  4 active torsions:
REMARK  status: ('A' for Active; 'I' for Inactive)
REMARK    5  A    between atoms: CA   and  CB  
REMARK    6  A    between atoms: CB   and  CG  
REMARK    7  A    between atoms: CG   and  CD  
REMARK    8  A    between atoms: CD   and  CE  
ROOT
ATOM      7  CA  LYS A 135      33.193  34.663   9.290  1.00 25.02     0.186 C 
ENDROOT
BRANCH   7   8
ATOM      8  CB  LYS A 135      32.060  35.360  10.034  1.00 26.63     0.034 C 
BRANCH   8   9
ATOM      9  CG  LYS A 135      32.526  36.477  10.932  1.00 29.45     0.005 C 
BRANCH   9  10
ATOM     10  CD  LYS A 135      31.612  37.686  10.803  1.00 32.00     0.041 C 
BRANCH  10  11
ATOM     11  CE  LYS A 135      30.157  37.260  10.849  1.00 34.25     0.338 C 
ATOM     12  NZ  LYS A 135      29.385  37.867   9.730  1.00 35.99     0.618 N 
ENDBRANCH  10  11
ENDBRANCH   9  10
ENDBRANCH   8   9
ENDBRANCH   7   8
END_RES LYS A 135
