REMARK VINA RESULT:    -4.281      2.985      8.269
REMARK INTER + INTRA:         -24.272
REMARK INTER:                 -14.088
REMARK INTRA:                 -10.184
REMARK UNBOUND:               -13.108
REMARK SMILES CC(=O)N[C@@H]1[C@@H](O)C[C@](OC[C@H]2O[C@@H](O[C@H]3[C@H](O)[C@@H](O)[C@H](OCCN=[N+]=[N-])O[C@@H]3CO)[C@H](O)[C@@H](O)[C@H]2O)(C(=O)O)O[C@H]1C(O)[C@H](O)CNC(=O)OCc1cn(-c2cccc(C=CC(=O)O)c2)nn1
REMARK SMILES IDX 43 1 42 2 9 3 8 4 41 5 6 6 5 7 10 8 11 9 12 10 14 11 13 12
REMARK SMILES IDX 32 13 34 14 36 15 15 16 16 17 29 18 28 19 21 20 17 21 19 22
REMARK SMILES IDX 30 23 31 24 22 26 23 27 24 28 25 29 26 30 27 31 18 32 20 34
REMARK SMILES IDX 33 36 35 38 37 40 38 42 39 43 40 44 7 46 4 48 2 49 1 51 3 52
REMARK SMILES IDX 44 53 45 55 46 56 47 58 48 59 49 60 50 62 51 63 52 64 53 65
REMARK SMILES IDX 54 66 68 67 55 68 67 69 56 70 66 71 57 72 60 73 58 74 59 75
REMARK SMILES IDX 61 76 62 77 63 78 64 79 65 80
REMARK H PARENT 31 25 18 33 20 35 33 37 35 39 37 41 40 45 7 47 4 50 44 54
REMARK H PARENT 46 57 48 61 65 81
REMARK Flexibility Score: inf
ROOT
ATOM      1  C   UNL     1      20.419  34.688  11.013  1.00  0.00     0.176 C 
ENDROOT
BRANCH   1   2
ATOM      2  C   UNL     1      19.519  35.264   9.938  1.00  0.00     0.178 C 
ATOM      3  C   UNL     1      17.486  34.701   8.886  1.00  0.00     0.272 C 
ATOM      4  C   UNL     1      17.955  36.055   8.167  1.00  0.00     0.113 C 
ATOM      5  O   UNL     1      18.510  34.362   9.746  1.00  0.00    -0.332 OA
ATOM      6  C   UNL     1      19.275  35.737   7.561  1.00  0.00     0.145 C 
ATOM      7  C   UNL     1      20.284  35.461   8.659  1.00  0.00     0.142 C 
BRANCH   3   8
ATOM      8  O   UNL     1      17.453  33.835   7.866  1.00  0.00    -0.338 OA
BRANCH   8   9
ATOM      9  C   UNL     1      16.379  33.294   7.322  1.00  0.00     0.199 C 
BRANCH   9  10
ATOM     10  C   UNL     1      16.515  32.017   6.519  1.00  0.00     0.179 C 
ATOM     11  C   UNL     1      17.124  29.853   7.255  1.00  0.00     0.282 C 
ATOM     12  O   UNL     1      17.373  31.209   7.165  1.00  0.00    -0.341 OA
ATOM     13  C   UNL     1      16.402  29.393   6.052  1.00  0.00     0.202 C 
ATOM     14  C   UNL     1      15.121  30.109   5.754  1.00  0.00     0.179 C 
ATOM     15  C   UNL     1      15.115  31.420   6.495  1.00  0.00     0.177 C 
BRANCH  11  16
ATOM     16  O   UNL     1      16.536  29.648   8.483  1.00  0.00    -0.341 OA
BRANCH  16  17
ATOM     17  C   UNL     1      17.376  29.438   9.522  1.00  0.00     0.184 C 
ATOM     18  C   UNL     1      17.149  28.097  10.149  1.00  0.00     0.178 C 
ATOM     19  O   UNL     1      18.305  27.858  10.930  1.00  0.00    -0.341 OA
ATOM     20  C   UNL     1      18.281  28.675  12.064  1.00  0.00     0.281 C 
ATOM     21  C   UNL     1      17.173  30.443  10.659  1.00  0.00     0.180 C 
ATOM     22  C   UNL     1      18.187  30.129  11.738  1.00  0.00     0.202 C 
BRANCH  18  23
ATOM     23  C   UNL     1      16.964  26.973   9.194  1.00  0.00     0.191 C 
BRANCH  23  24
ATOM     24  O   UNL     1      18.172  26.295   9.046  1.00  0.00    -0.394 OA
ATOM     25  H   UNL     1      18.144  25.424   9.551  1.00  0.00     0.210 HD
ENDBRANCH  23  24
ENDBRANCH  18  23
BRANCH  20  26
ATOM     26  O   UNL     1      19.462  28.447  12.764  1.00  0.00    -0.350 OA
BRANCH  26  27
ATOM     27  C   UNL     1      20.579  28.890  12.060  1.00  0.00     0.169 C 
BRANCH  27  28
ATOM     28  C   UNL     1      21.731  28.998  13.034  1.00  0.00     0.119 C 
BRANCH  28  29
ATOM     29  N   UNL     1      22.775  29.807  12.452  1.00  0.00    -0.092 NA
ATOM     30  N   UNL     1      23.871  29.930  13.028  1.00  0.00     0.001 N 
ATOM     31  N   UNL     1      24.775  30.385  13.745  1.00  0.00    -0.003 NA
ENDBRANCH  28  29
ENDBRANCH  27  28
ENDBRANCH  26  27
ENDBRANCH  20  26
BRANCH  21  32
ATOM     32  O   UNL     1      17.405  31.752  10.254  1.00  0.00    -0.387 OA
ATOM     33  H   UNL     1      16.821  31.892   9.467  1.00  0.00     0.211 HD
ENDBRANCH  21  32
BRANCH  22  34
ATOM     34  O   UNL     1      17.722  30.783  12.903  1.00  0.00    -0.385 OA
ATOM     35  H   UNL     1      16.888  30.389  13.240  1.00  0.00     0.211 HD
ENDBRANCH  22  34
ENDBRANCH  16  17
ENDBRANCH  11  16
BRANCH  13  36
ATOM     36  O   UNL     1      17.242  29.563   4.912  1.00  0.00    -0.385 OA
ATOM     37  H   UNL     1      17.903  28.816   4.880  1.00  0.00     0.211 HD
ENDBRANCH  13  36
BRANCH  14  38
ATOM     38  O   UNL     1      13.976  29.357   6.026  1.00  0.00    -0.387 OA
ATOM     39  H   UNL     1      14.123  28.714   6.765  1.00  0.00     0.211 HD
ENDBRANCH  14  38
BRANCH  15  40
ATOM     40  O   UNL     1      14.644  31.214   7.777  1.00  0.00    -0.387 OA
ATOM     41  H   UNL     1      13.840  30.607   7.793  1.00  0.00     0.211 HD
ENDBRANCH  15  40
ENDBRANCH   9  10
ENDBRANCH   8   9
ENDBRANCH   3   8
BRANCH   3  42
ATOM     42  C   UNL     1      16.283  35.061   9.618  1.00  0.00     0.364 C 
ATOM     43  O   UNL     1      15.433  35.928   9.347  1.00  0.00    -0.246 OA
BRANCH  42  44
ATOM     44  O   UNL     1      16.011  34.344  10.809  1.00  0.00    -0.477 OA
ATOM     45  H   UNL     1      15.619  34.875  11.602  1.00  0.00     0.296 HD
ENDBRANCH  42  44
ENDBRANCH   3  42
BRANCH   6  46
ATOM     46  O   UNL     1      19.083  34.526   6.816  1.00  0.00    -0.391 OA
ATOM     47  H   UNL     1      19.889  34.352   6.257  1.00  0.00     0.211 HD
ENDBRANCH   6  46
BRANCH   7  48
ATOM     48  N   UNL     1      21.379  36.360   8.720  1.00  0.00    -0.348 N 
ATOM     49  C   UNL     1      21.362  37.736   8.966  1.00  0.00     0.217 C 
ATOM     50  H   UNL     1      22.369  35.960   8.529  1.00  0.00     0.163 HD
ATOM     51  C   UNL     1      22.674  38.498   8.963  1.00  0.00     0.114 C 
ATOM     52  O   UNL     1      20.319  38.405   9.195  1.00  0.00    -0.275 OA
ENDBRANCH   7  48
ENDBRANCH   1   2
BRANCH   1  53
ATOM     53  O   UNL     1      20.613  35.633  12.005  1.00  0.00    -0.388 OA
ATOM     54  H   UNL     1      20.162  36.483  11.859  1.00  0.00     0.211 HD
ENDBRANCH   1  53
BRANCH   1  55
ATOM     55  C   UNL     1      19.784  33.478  11.699  1.00  0.00     0.165 C 
BRANCH  55  56
ATOM     56  O   UNL     1      18.632  33.770  12.377  1.00  0.00    -0.388 OA
ATOM     57  H   UNL     1      17.890  33.142  12.219  1.00  0.00     0.211 HD
ENDBRANCH  55  56
BRANCH  55  58
ATOM     58  C   UNL     1      20.775  32.763  12.560  1.00  0.00     0.154 C 
BRANCH  58  59
ATOM     59  N   UNL     1      22.113  33.086  12.220  1.00  0.00    -0.319 N 
ATOM     60  C   UNL     1      23.095  33.399  13.187  1.00  0.00     0.407 C 
ATOM     61  H   UNL     1      22.425  33.105  11.211  1.00  0.00     0.167 HD
ATOM     62  O   UNL     1      22.816  33.406  14.418  1.00  0.00    -0.225 OA
BRANCH  60  63
ATOM     63  O   UNL     1      24.409  33.710  12.845  1.00  0.00    -0.443 OA
BRANCH  63  64
ATOM     64  C   UNL     1      24.704  35.097  12.644  1.00  0.00     0.294 C 
BRANCH  64  65
ATOM     65  C   UNL     1      24.828  35.306  11.190  1.00  0.00     0.121 A 
ATOM     66  C   UNL     1      25.985  35.571  10.461  1.00  0.00     0.144 A 
ATOM     67  N   UNL     1      23.827  35.267  10.295  1.00  0.00    -0.131 NA
ATOM     68  N   UNL     1      25.639  35.679   9.158  1.00  0.00    -0.220 N 
ATOM     69  N   UNL     1      24.336  35.492   9.091  1.00  0.00    -0.062 NA
BRANCH  68  70
ATOM     70  C   UNL     1      26.567  35.937   8.117  1.00  0.00     0.067 A 
ATOM     71  C   UNL     1      26.536  37.161   7.449  1.00  0.00     0.036 A 
ATOM     72  C   UNL     1      27.493  35.018   7.752  1.00  0.00     0.028 A 
ATOM     73  C   UNL     1      27.406  37.455   6.446  1.00  0.00    -0.023 A 
ATOM     74  C   UNL     1      28.405  35.275   6.731  1.00  0.00     0.003 A 
ATOM     75  C   UNL     1      28.337  36.496   6.100  1.00  0.00     0.008 A 
BRANCH  73  76
ATOM     76  C   UNL     1      27.373  38.723   5.749  1.00  0.00     0.015 C 
ATOM     77  C   UNL     1      26.545  39.672   6.105  1.00  0.00     0.094 C 
BRANCH  77  78
ATOM     78  C   UNL     1      26.547  40.940   5.371  1.00  0.00     0.328 C 
ATOM     79  O   UNL     1      27.530  41.305   4.716  1.00  0.00    -0.247 OA
BRANCH  78  80
ATOM     80  O   UNL     1      25.427  41.768   5.398  1.00  0.00    -0.478 OA
ATOM     81  H   UNL     1      25.582  42.756   5.608  1.00  0.00     0.297 HD
ENDBRANCH  78  80
ENDBRANCH  77  78
ENDBRANCH  73  76
ENDBRANCH  68  70
ENDBRANCH  64  65
ENDBRANCH  63  64
ENDBRANCH  60  63
ENDBRANCH  58  59
ENDBRANCH  55  58
ENDBRANCH   1  55
TORSDOF 33
BEGIN_RES LYS A 131
REMARK  4 active torsions:
REMARK  status: ('A' for Active; 'I' for Inactive)
REMARK    1  A    between atoms: CA   and  CB  
REMARK    2  A    between atoms: CB   and  CG  
REMARK    3  A    between atoms: CG   and  CD  
REMARK    4  A    between atoms: CD   and  CE  
ROOT
ATOM      1  CA  LYS A 131      29.867  25.555  16.977  1.00 20.52     0.186 C 
ENDROOT
BRANCH   1   2
ATOM      2  CB  LYS A 131      28.345  25.722  17.026  1.00 20.94     0.034 C 
BRANCH   2   3
ATOM      3  CG  LYS A 131      27.601  24.402  16.890  1.00 22.96     0.005 C 
BRANCH   3   4
ATOM      4  CD  LYS A 131      26.163  24.516  17.314  1.00 24.33     0.041 C 
BRANCH   4   5
ATOM      5  CE  LYS A 131      25.594  23.124  17.563  1.00 26.91     0.338 C 
ATOM      6  NZ  LYS A 131      24.193  23.042  17.085  1.00 27.40     0.618 N 
ENDBRANCH   4   5
ENDBRANCH   3   4
ENDBRANCH   2   3
ENDBRANCH   1   2
END_RES LYS A 131
BEGIN_RES LYS A 135
REMARK  4 active torsions:
REMARK  status: ('A' for Active; 'I' for Inactive)
REMARK    5  A    between atoms: CA   and  CB  
REMARK    6  A    between atoms: CB   and  CG  
REMARK    7  A    between atoms: CG   and  CD  
REMARK    8  A    between atoms: CD   and  CE  
ROOT
ATOM      7  CA  LYS A 135      33.193  34.663   9.290  1.00 25.02     0.186 C 
ENDROOT
BRANCH   7   8
ATOM      8  CB  LYS A 135      32.060  35.360  10.034  1.00 26.63     0.034 C 
BRANCH   8   9
ATOM      9  CG  LYS A 135      30.688  34.931   9.581  1.00 29.45     0.005 C 
BRANCH   9  10
ATOM     10  CD  LYS A 135      29.726  34.880  10.758  1.00 32.00     0.041 C 
BRANCH  10  11
ATOM     11  CE  LYS A 135      30.488  34.864  12.069  1.00 34.25     0.338 C 
ATOM     12  NZ  LYS A 135      29.605  34.463  13.199  1.00 35.99     0.618 N 
ENDBRANCH  10  11
ENDBRANCH   9  10
ENDBRANCH   8   9
ENDBRANCH   7   8
END_RES LYS A 135
