REMARK VINA RESULT:    -4.327      4.605     10.387
REMARK INTER + INTRA:         -21.893
REMARK INTER:                 -12.271
REMARK INTRA:                  -9.622
REMARK UNBOUND:               -11.242
REMARK SMILES CC(=O)N[C@@H]1[C@@H](O)C[C@](OC[C@H]2O[C@@H](O[C@H]3[C@H](O)[C@@H](O)[C@H](OCCN=[N+]=[N-])O[C@@H]3CO)[C@H](O)[C@@H](O)[C@H]2O)(C(=O)O)O[C@H]1C(O)[C@H](O)CNC(=O)OCc1cn(-c2c(C)cc(C)cc2C)nn1
REMARK SMILES IDX 9 1 8 2 6 3 5 4 42 5 41 6 10 7 11 8 12 9 14 10 13 11 32 12
REMARK SMILES IDX 34 13 36 14 15 15 16 16 29 17 28 18 21 19 17 20 19 21 30 22
REMARK SMILES IDX 31 23 22 25 23 26 24 27 25 28 26 29 27 30 18 31 20 33 33 35
REMARK SMILES IDX 35 37 37 39 38 41 39 42 40 43 7 45 43 47 44 48 45 50 46 51
REMARK SMILES IDX 47 53 48 54 49 55 50 57 51 58 52 59 53 60 54 61 66 62 55 63
REMARK SMILES IDX 65 64 56 65 57 66 63 67 58 68 59 69 62 70 64 71 60 72 61 73
REMARK SMILES IDX 4 74 2 75 1 77 3 78
REMARK H PARENT 31 24 18 32 20 34 33 36 35 38 37 40 40 44 7 46 44 49 46 52
REMARK H PARENT 48 56 4 76
REMARK Flexibility Score: inf
ROOT
ATOM      1  C   UNL     1      30.343  28.887  21.277  1.00  0.00     0.272 C 
ATOM      2  C   UNL     1      31.149  29.604  20.265  1.00  0.00     0.113 C 
ATOM      3  C   UNL     1      30.691  30.995  19.903  1.00  0.00     0.145 C 
ATOM      4  C   UNL     1      29.198  31.072  19.959  1.00  0.00     0.142 C 
ATOM      5  C   UNL     1      28.708  29.631  19.764  1.00  0.00     0.178 C 
ATOM      6  O   UNL     1      28.973  28.963  20.990  1.00  0.00    -0.332 OA
ENDROOT
BRANCH   1   7
ATOM      7  O   UNL     1      30.557  29.185  22.589  1.00  0.00    -0.338 OA
BRANCH   7   8
ATOM      8  C   UNL     1      29.702  29.980  23.259  1.00  0.00     0.199 C 
BRANCH   8   9
ATOM      9  C   UNL     1      28.983  29.111  24.301  1.00  0.00     0.179 C 
ATOM     10  C   UNL     1      27.948  27.055  24.353  1.00  0.00     0.282 C 
ATOM     11  O   UNL     1      28.078  28.265  23.688  1.00  0.00    -0.341 OA
ATOM     12  C   UNL     1      29.244  26.319  24.135  1.00  0.00     0.202 C 
ATOM     13  C   UNL     1      30.306  27.105  24.890  1.00  0.00     0.179 C 
ATOM     14  C   UNL     1      29.894  28.479  25.286  1.00  0.00     0.177 C 
BRANCH  10  15
ATOM     15  O   UNL     1      26.825  26.381  24.058  1.00  0.00    -0.341 OA
BRANCH  15  16
ATOM     16  C   UNL     1      25.923  26.926  23.217  1.00  0.00     0.184 C 
ATOM     17  C   UNL     1      24.593  27.079  23.933  1.00  0.00     0.178 C 
ATOM     18  O   UNL     1      23.682  26.128  23.582  1.00  0.00    -0.341 OA
ATOM     19  C   UNL     1      23.308  26.148  22.247  1.00  0.00     0.281 C 
ATOM     20  C   UNL     1      25.743  25.994  22.016  1.00  0.00     0.180 C 
ATOM     21  C   UNL     1      24.441  26.311  21.302  1.00  0.00     0.202 C 
BRANCH  17  22
ATOM     22  C   UNL     1      24.063  28.497  23.800  1.00  0.00     0.191 C 
BRANCH  22  23
ATOM     23  O   UNL     1      25.072  29.361  23.384  1.00  0.00    -0.394 OA
ATOM     24  H   UNL     1      25.353  30.002  24.075  1.00  0.00     0.210 HD
ENDBRANCH  22  23
ENDBRANCH  17  22
BRANCH  19  25
ATOM     25  O   UNL     1      22.354  27.148  22.006  1.00  0.00    -0.350 OA
BRANCH  25  26
ATOM     26  C   UNL     1      22.386  27.643  20.727  1.00  0.00     0.169 C 
BRANCH  26  27
ATOM     27  C   UNL     1      21.269  27.190  19.838  1.00  0.00     0.119 C 
BRANCH  27  28
ATOM     28  N   UNL     1      21.740  26.366  18.740  1.00  0.00    -0.092 NA
ATOM     29  N   UNL     1      22.060  26.878  17.648  1.00  0.00     0.001 N 
ATOM     30  N   UNL     1      22.382  27.576  16.680  1.00  0.00    -0.003 NA
ENDBRANCH  27  28
ENDBRANCH  26  27
ENDBRANCH  25  26
ENDBRANCH  19  25
BRANCH  20  31
ATOM     31  O   UNL     1      26.762  26.087  21.102  1.00  0.00    -0.387 OA
ATOM     32  H   UNL     1      26.645  25.532  20.289  1.00  0.00     0.211 HD
ENDBRANCH  20  31
BRANCH  21  33
ATOM     33  O   UNL     1      24.310  25.385  20.270  1.00  0.00    -0.385 OA
ATOM     34  H   UNL     1      24.766  24.527  20.497  1.00  0.00     0.211 HD
ENDBRANCH  21  33
ENDBRANCH  15  16
ENDBRANCH  10  15
BRANCH  12  35
ATOM     35  O   UNL     1      29.227  25.034  24.669  1.00  0.00    -0.385 OA
ATOM     36  H   UNL     1      30.041  24.952  25.254  1.00  0.00     0.211 HD
ENDBRANCH  12  35
BRANCH  13  37
ATOM     37  O   UNL     1      31.492  27.181  24.161  1.00  0.00    -0.387 OA
ATOM     38  H   UNL     1      31.948  26.306  24.062  1.00  0.00     0.211 HD
ENDBRANCH  13  37
BRANCH  14  39
ATOM     39  O   UNL     1      31.074  29.253  25.408  1.00  0.00    -0.387 OA
ATOM     40  H   UNL     1      31.231  29.501  26.348  1.00  0.00     0.211 HD
ENDBRANCH  14  39
ENDBRANCH   8   9
ENDBRANCH   7   8
ENDBRANCH   1   7
BRANCH   1  41
ATOM     41  C   UNL     1      30.633  27.416  21.075  1.00  0.00     0.364 C 
ATOM     42  O   UNL     1      31.783  27.004  21.259  1.00  0.00    -0.246 OA
BRANCH  41  43
ATOM     43  O   UNL     1      29.643  26.531  20.691  1.00  0.00    -0.477 OA
ATOM     44  H   UNL     1      28.713  26.510  21.069  1.00  0.00     0.296 HD
ENDBRANCH  41  43
ENDBRANCH   1  41
BRANCH   3  45
ATOM     45  O   UNL     1      31.336  31.877  20.768  1.00  0.00    -0.391 OA
ATOM     46  H   UNL     1      30.873  31.839  21.666  1.00  0.00     0.211 HD
ENDBRANCH   3  45
BRANCH   5  47
ATOM     47  C   UNL     1      27.250  29.489  19.577  1.00  0.00     0.176 C 
BRANCH  47  48
ATOM     48  O   UNL     1      26.704  29.188  20.879  1.00  0.00    -0.388 OA
ATOM     49  H   UNL     1      26.894  29.953  21.481  1.00  0.00     0.211 HD
ENDBRANCH  47  48
BRANCH  47  50
ATOM     50  C   UNL     1      26.758  28.310  18.761  1.00  0.00     0.165 C 
BRANCH  50  51
ATOM     51  O   UNL     1      27.926  27.454  18.751  1.00  0.00    -0.388 OA
ATOM     52  H   UNL     1      28.585  27.811  19.378  1.00  0.00     0.211 HD
ENDBRANCH  50  51
BRANCH  50  53
ATOM     53  C   UNL     1      26.601  28.666  17.303  1.00  0.00     0.154 C 
BRANCH  53  54
ATOM     54  N   UNL     1      27.808  28.946  16.587  1.00  0.00    -0.319 N 
ATOM     55  C   UNL     1      28.104  30.289  16.202  1.00  0.00     0.407 C 
ATOM     56  H   UNL     1      28.483  28.170  16.334  1.00  0.00     0.167 HD
ATOM     57  O   UNL     1      27.254  31.166  16.518  1.00  0.00    -0.225 OA
BRANCH  55  58
ATOM     58  O   UNL     1      29.264  30.632  15.517  1.00  0.00    -0.443 OA
BRANCH  58  59
ATOM     59  C   UNL     1      30.424  31.076  16.180  1.00  0.00     0.294 C 
BRANCH  59  60
ATOM     60  C   UNL     1      30.782  32.489  15.883  1.00  0.00     0.121 A 
ATOM     61  C   UNL     1      30.763  33.140  14.671  1.00  0.00     0.144 A 
ATOM     62  N   UNL     1      31.207  33.424  16.782  1.00  0.00    -0.131 NA
ATOM     63  N   UNL     1      31.163  34.410  14.849  1.00  0.00    -0.220 N 
ATOM     64  N   UNL     1      31.422  34.534  16.151  1.00  0.00    -0.062 NA
BRANCH  63  65
ATOM     65  C   UNL     1      31.307  35.455  13.868  1.00  0.00     0.072 A 
ATOM     66  C   UNL     1      30.219  36.267  13.664  1.00  0.00    -0.025 A 
ATOM     67  C   UNL     1      32.470  35.599  13.196  1.00  0.00    -0.025 A 
ATOM     68  C   UNL     1      28.942  36.072  14.432  1.00  0.00     0.047 C 
ATOM     69  C   UNL     1      30.336  37.273  12.725  1.00  0.00     0.009 A 
ATOM     70  C   UNL     1      32.541  36.632  12.254  1.00  0.00     0.009 A 
ATOM     71  C   UNL     1      33.668  34.742  13.392  1.00  0.00     0.047 C 
ATOM     72  C   UNL     1      31.487  37.476  12.007  1.00  0.00    -0.050 A 
ATOM     73  C   UNL     1      31.549  38.577  11.013  1.00  0.00     0.044 C 
ENDBRANCH  63  65
ENDBRANCH  59  60
ENDBRANCH  58  59
ENDBRANCH  55  58
ENDBRANCH  53  54
ENDBRANCH  50  53
ENDBRANCH  47  50
ENDBRANCH   5  47
BRANCH   4  74
ATOM     74  N   UNL     1      28.583  32.000  19.114  1.00  0.00    -0.348 N 
ATOM     75  C   UNL     1      28.443  33.382  19.432  1.00  0.00     0.217 C 
ATOM     76  H   UNL     1      28.218  31.701  18.192  1.00  0.00     0.163 HD
ATOM     77  C   UNL     1      27.781  34.348  18.504  1.00  0.00     0.114 C 
ATOM     78  O   UNL     1      28.898  33.767  20.523  1.00  0.00    -0.275 OA
ENDBRANCH   4  74
TORSDOF 30
BEGIN_RES LYS A 131
REMARK  4 active torsions:
REMARK  status: ('A' for Active; 'I' for Inactive)
REMARK    1  A    between atoms: CA   and  CB  
REMARK    2  A    between atoms: CB   and  CG  
REMARK    3  A    between atoms: CG   and  CD  
REMARK    4  A    between atoms: CD   and  CE  
ROOT
ATOM      1  CA  LYS A 131      29.867  25.555  16.977  1.00 20.52     0.186 C 
ENDROOT
BRANCH   1   2
ATOM      2  CB  LYS A 131      28.345  25.722  17.026  1.00 20.94     0.034 C 
BRANCH   2   3
ATOM      3  CG  LYS A 131      27.602  24.397  16.945  1.00 22.96     0.005 C 
BRANCH   3   4
ATOM      4  CD  LYS A 131      26.502  24.301  17.966  1.00 24.33     0.041 C 
BRANCH   4   5
ATOM      5  CE  LYS A 131      25.396  23.394  17.438  1.00 26.91     0.338 C 
ATOM      6  NZ  LYS A 131      24.270  24.201  16.910  1.00 27.40     0.618 N 
ENDBRANCH   4   5
ENDBRANCH   3   4
ENDBRANCH   2   3
ENDBRANCH   1   2
END_RES LYS A 131
BEGIN_RES LYS A 135
REMARK  4 active torsions:
REMARK  status: ('A' for Active; 'I' for Inactive)
REMARK    5  A    between atoms: CA   and  CB  
REMARK    6  A    between atoms: CB   and  CG  
REMARK    7  A    between atoms: CG   and  CD  
REMARK    8  A    between atoms: CD   and  CE  
ROOT
ATOM      7  CA  LYS A 135      33.193  34.663   9.290  1.00 25.02     0.186 C 
ENDROOT
BRANCH   7   8
ATOM      8  CB  LYS A 135      32.060  35.360  10.034  1.00 26.63     0.034 C 
BRANCH   8   9
ATOM      9  CG  LYS A 135      30.715  35.197   9.374  1.00 29.45     0.005 C 
BRANCH   9  10
ATOM     10  CD  LYS A 135      29.719  34.567  10.334  1.00 32.00     0.041 C 
BRANCH  10  11
ATOM     11  CE  LYS A 135      28.352  35.204  10.178  1.00 34.25     0.338 C 
ATOM     12  NZ  LYS A 135      28.467  36.612   9.706  1.00 35.99     0.618 N 
ENDBRANCH  10  11
ENDBRANCH   9  10
ENDBRANCH   8   9
ENDBRANCH   7   8
END_RES LYS A 135
