REMARK VINA RESULT:    -4.601      5.442     11.822
REMARK INTER + INTRA:         -24.149
REMARK INTER:                 -13.312
REMARK INTRA:                 -10.837
REMARK UNBOUND:               -11.748
REMARK SMILES CC(=O)N[C@@H]1[C@@H](O)C[C@](OC[C@H]2O[C@@H](O[C@H]3[C@H](O)[C@@H](O)[C@H](OCCN=[N+]=[N-])O[C@@H]3CO)[C@H](O)[C@@H](O)[C@H]2O)(C(=O)O)O[C@H]1C(O)[C@H](O)CNC(=O)OCc1cn([C@@H](C)C(=O)OCc2ccccc2)nn1
REMARK SMILES IDX 43 1 42 2 9 3 8 4 41 5 6 6 5 7 10 8 11 9 12 10 14 11 13 12
REMARK SMILES IDX 32 13 34 14 36 15 15 16 16 17 29 18 28 19 21 20 17 21 19 22
REMARK SMILES IDX 30 23 31 24 22 26 23 27 24 28 25 29 26 30 27 31 18 32 20 34
REMARK SMILES IDX 33 36 35 38 37 40 38 42 39 43 40 44 7 46 4 48 2 49 1 51 3 52
REMARK SMILES IDX 44 53 45 55 46 56 47 58 48 59 49 60 50 62 51 63 52 64 53 65
REMARK SMILES IDX 54 66 69 67 55 68 68 69 56 70 57 71 58 72 59 73 60 74 61 75
REMARK SMILES IDX 62 76 63 77 67 78 64 79 66 80 65 81
REMARK H PARENT 31 25 18 33 20 35 33 37 35 39 37 41 40 45 7 47 4 50 44 54
REMARK H PARENT 46 57 48 61
REMARK Flexibility Score: inf
ROOT
ATOM      1  C   UNL     1      27.563  38.482   5.752  1.00  0.00     0.176 C 
ENDROOT
BRANCH   1   2
ATOM      2  C   UNL     1      28.227  39.164   6.883  1.00  0.00     0.178 C 
ATOM      3  C   UNL     1      26.461  40.287   7.918  1.00  0.00     0.272 C 
ATOM      4  C   UNL     1      27.081  41.572   7.522  1.00  0.00     0.113 C 
ATOM      5  O   UNL     1      27.493  39.289   8.033  1.00  0.00    -0.332 OA
ATOM      6  C   UNL     1      27.890  41.493   6.248  1.00  0.00     0.145 C 
ATOM      7  C   UNL     1      28.921  40.419   6.421  1.00  0.00     0.142 C 
BRANCH   3   8
ATOM      8  O   UNL     1      25.522  39.728   7.198  1.00  0.00    -0.338 OA
BRANCH   8   9
ATOM      9  C   UNL     1      24.236  39.906   7.115  1.00  0.00     0.199 C 
BRANCH   9  10
ATOM     10  C   UNL     1      23.230  38.844   7.458  1.00  0.00     0.179 C 
ATOM     11  C   UNL     1      23.015  37.047   8.921  1.00  0.00     0.282 C 
ATOM     12  O   UNL     1      23.852  37.838   8.138  1.00  0.00    -0.341 OA
ATOM     13  C   UNL     1      21.598  37.093   8.477  1.00  0.00     0.202 C 
ATOM     14  C   UNL     1      21.036  38.482   8.601  1.00  0.00     0.179 C 
ATOM     15  C   UNL     1      22.102  39.474   8.302  1.00  0.00     0.177 C 
BRANCH  11  16
ATOM     16  O   UNL     1      23.270  37.365  10.227  1.00  0.00    -0.341 OA
BRANCH  16  17
ATOM     17  C   UNL     1      22.632  36.602  11.158  1.00  0.00     0.184 C 
ATOM     18  C   UNL     1      23.144  36.957  12.531  1.00  0.00     0.178 C 
ATOM     19  O   UNL     1      22.613  36.077  13.481  1.00  0.00    -0.341 OA
ATOM     20  C   UNL     1      23.460  34.940  13.429  1.00  0.00     0.281 C 
ATOM     21  C   UNL     1      22.872  35.113  10.968  1.00  0.00     0.180 C 
ATOM     22  C   UNL     1      23.687  34.469  12.027  1.00  0.00     0.202 C 
BRANCH  18  23
ATOM     23  C   UNL     1      22.935  38.390  12.920  1.00  0.00     0.191 C 
BRANCH  23  24
ATOM     24  O   UNL     1      21.851  38.854  12.169  1.00  0.00    -0.394 OA
ATOM     25  H   UNL     1      22.043  38.904  11.203  1.00  0.00     0.210 HD
ENDBRANCH  23  24
ENDBRANCH  18  23
BRANCH  20  26
ATOM     26  O   UNL     1      22.945  34.003  14.267  1.00  0.00    -0.350 OA
BRANCH  26  27
ATOM     27  C   UNL     1      22.934  32.704  13.881  1.00  0.00     0.169 C 
BRANCH  27  28
ATOM     28  C   UNL     1      22.909  31.660  14.939  1.00  0.00     0.119 C 
BRANCH  28  29
ATOM     29  N   UNL     1      22.865  30.306  14.521  1.00  0.00    -0.092 NA
ATOM     30  N   UNL     1      21.943  29.555  14.820  1.00  0.00     0.001 N 
ATOM     31  N   UNL     1      20.964  28.796  14.942  1.00  0.00    -0.003 NA
ENDBRANCH  28  29
ENDBRANCH  27  28
ENDBRANCH  26  27
ENDBRANCH  20  26
BRANCH  21  32
ATOM     32  O   UNL     1      21.668  34.415  10.839  1.00  0.00    -0.387 OA
ATOM     33  H   UNL     1      21.736  33.473  11.113  1.00  0.00     0.211 HD
ENDBRANCH  21  32
BRANCH  22  34
ATOM     34  O   UNL     1      25.035  34.494  11.655  1.00  0.00    -0.385 OA
ATOM     35  H   UNL     1      25.118  33.914  10.851  1.00  0.00     0.211 HD
ENDBRANCH  22  34
ENDBRANCH  16  17
ENDBRANCH  11  16
BRANCH  13  36
ATOM     36  O   UNL     1      21.540  36.644   7.135  1.00  0.00    -0.385 OA
ATOM     37  H   UNL     1      21.407  37.484   6.599  1.00  0.00     0.211 HD
ENDBRANCH  13  36
BRANCH  14  38
ATOM     38  O   UNL     1      20.478  38.625   9.855  1.00  0.00    -0.387 OA
ATOM     39  H   UNL     1      19.602  39.097   9.829  1.00  0.00     0.211 HD
ENDBRANCH  14  38
BRANCH  15  40
ATOM     40  O   UNL     1      22.603  40.084   9.444  1.00  0.00    -0.387 OA
ATOM     41  H   UNL     1      23.344  40.714   9.181  1.00  0.00     0.211 HD
ENDBRANCH  15  40
ENDBRANCH   9  10
ENDBRANCH   8   9
ENDBRANCH   3   8
BRANCH   3  42
ATOM     42  C   UNL     1      26.089  40.399   9.383  1.00  0.00     0.364 C 
ATOM     43  O   UNL     1      26.320  41.426  10.035  1.00  0.00    -0.246 OA
BRANCH  42  44
ATOM     44  O   UNL     1      25.472  39.337  10.042  1.00  0.00    -0.477 OA
ATOM     45  H   UNL     1      25.175  38.482   9.582  1.00  0.00     0.296 HD
ENDBRANCH  42  44
ENDBRANCH   3  42
BRANCH   6  46
ATOM     46  O   UNL     1      27.102  41.306   5.116  1.00  0.00    -0.391 OA
ATOM     47  H   UNL     1      27.593  41.704   4.360  1.00  0.00     0.211 HD
ENDBRANCH   6  46
BRANCH   7  48
ATOM     48  N   UNL     1      29.907  40.873   7.393  1.00  0.00    -0.348 N 
ATOM     49  C   UNL     1      31.285  40.571   7.156  1.00  0.00     0.217 C 
ATOM     50  H   UNL     1      29.668  41.403   8.254  1.00  0.00     0.163 HD
ATOM     51  C   UNL     1      32.295  41.035   8.154  1.00  0.00     0.114 C 
ATOM     52  O   UNL     1      31.627  39.929   6.127  1.00  0.00    -0.275 OA
ENDBRANCH   7  48
ENDBRANCH   1   2
BRANCH   1  53
ATOM     53  O   UNL     1      28.449  38.473   4.648  1.00  0.00    -0.388 OA
ATOM     54  H   UNL     1      29.066  37.693   4.707  1.00  0.00     0.211 HD
ENDBRANCH   1  53
BRANCH   1  55
ATOM     55  C   UNL     1      27.290  36.991   6.006  1.00  0.00     0.165 C 
BRANCH  55  56
ATOM     56  O   UNL     1      26.330  36.790   6.947  1.00  0.00    -0.388 OA
ATOM     57  H   UNL     1      26.570  37.220   7.801  1.00  0.00     0.211 HD
ENDBRANCH  55  56
BRANCH  55  58
ATOM     58  C   UNL     1      28.568  36.241   6.204  1.00  0.00     0.154 C 
BRANCH  58  59
ATOM     59  N   UNL     1      28.427  35.255   7.239  1.00  0.00    -0.319 N 
ATOM     60  C   UNL     1      29.460  34.775   8.077  1.00  0.00     0.407 C 
ATOM     61  H   UNL     1      27.472  34.815   7.433  1.00  0.00     0.167 HD
ATOM     62  O   UNL     1      30.619  35.178   7.959  1.00  0.00    -0.225 OA
BRANCH  60  63
ATOM     63  O   UNL     1      29.199  33.820   9.073  1.00  0.00    -0.443 OA
BRANCH  63  64
ATOM     64  C   UNL     1      27.964  33.755   9.740  1.00  0.00     0.294 C 
BRANCH  64  65
ATOM     65  C   UNL     1      27.725  35.072  10.374  1.00  0.00     0.120 A 
ATOM     66  C   UNL     1      28.368  35.622  11.461  1.00  0.00     0.139 A 
ATOM     67  N   UNL     1      26.810  35.965   9.981  1.00  0.00    -0.132 NA
ATOM     68  N   UNL     1      27.824  36.847  11.707  1.00  0.00    -0.238 N 
ATOM     69  N   UNL     1      26.887  37.027  10.796  1.00  0.00    -0.066 NA
BRANCH  68  70
ATOM     70  C   UNL     1      28.273  37.682  12.793  1.00  0.00     0.215 C 
ATOM     71  C   UNL     1      27.761  39.102  12.642  1.00  0.00     0.046 C 
BRANCH  70  72
ATOM     72  C   UNL     1      27.812  37.121  14.113  1.00  0.00     0.331 C 
ATOM     73  O   UNL     1      26.594  37.033  14.339  1.00  0.00    -0.250 OA
BRANCH  72  74
ATOM     74  O   UNL     1      28.712  36.706  15.067  1.00  0.00    -0.459 OA
BRANCH  74  75
ATOM     75  C   UNL     1      30.060  36.388  14.824  1.00  0.00     0.268 C 
BRANCH  75  76
ATOM     76  C   UNL     1      30.423  35.008  15.206  1.00  0.00    -0.011 A 
ATOM     77  C   UNL     1      31.164  34.725  16.324  1.00  0.00     0.007 A 
ATOM     78  C   UNL     1      30.018  33.952  14.427  1.00  0.00     0.007 A 
ATOM     79  C   UNL     1      31.507  33.441  16.681  1.00  0.00     0.000 A 
ATOM     80  C   UNL     1      30.337  32.652  14.745  1.00  0.00     0.000 A 
ATOM     81  C   UNL     1      31.090  32.404  15.886  1.00  0.00     0.000 A 
ENDBRANCH  75  76
ENDBRANCH  74  75
ENDBRANCH  72  74
ENDBRANCH  70  72
ENDBRANCH  68  70
ENDBRANCH  64  65
ENDBRANCH  63  64
ENDBRANCH  60  63
ENDBRANCH  58  59
ENDBRANCH  55  58
ENDBRANCH   1  55
TORSDOF 34
BEGIN_RES LYS A 131
REMARK  4 active torsions:
REMARK  status: ('A' for Active; 'I' for Inactive)
REMARK    1  A    between atoms: CA   and  CB  
REMARK    2  A    between atoms: CB   and  CG  
REMARK    3  A    between atoms: CG   and  CD  
REMARK    4  A    between atoms: CD   and  CE  
ROOT
ATOM      1  CA  LYS A 131      29.867  25.555  16.977  1.00 20.52     0.186 C 
ENDROOT
BRANCH   1   2
ATOM      2  CB  LYS A 131      28.345  25.722  17.026  1.00 20.94     0.034 C 
BRANCH   2   3
ATOM      3  CG  LYS A 131      27.602  24.400  16.916  1.00 22.96     0.005 C 
BRANCH   3   4
ATOM      4  CD  LYS A 131      26.666  24.178  18.072  1.00 24.33     0.041 C 
BRANCH   4   5
ATOM      5  CE  LYS A 131      25.332  24.858  17.785  1.00 26.91     0.338 C 
ATOM      6  NZ  LYS A 131      24.499  24.012  16.897  1.00 27.40     0.618 N 
ENDBRANCH   4   5
ENDBRANCH   3   4
ENDBRANCH   2   3
ENDBRANCH   1   2
END_RES LYS A 131
BEGIN_RES LYS A 135
REMARK  4 active torsions:
REMARK  status: ('A' for Active; 'I' for Inactive)
REMARK    5  A    between atoms: CA   and  CB  
REMARK    6  A    between atoms: CB   and  CG  
REMARK    7  A    between atoms: CG   and  CD  
REMARK    8  A    between atoms: CD   and  CE  
ROOT
ATOM      7  CA  LYS A 135      33.193  34.663   9.290  1.00 25.02     0.186 C 
ENDROOT
BRANCH   7   8
ATOM      8  CB  LYS A 135      32.060  35.360  10.034  1.00 26.63     0.034 C 
BRANCH   8   9
ATOM      9  CG  LYS A 135      32.482  35.956  11.352  1.00 29.45     0.005 C 
BRANCH   9  10
ATOM     10  CD  LYS A 135      31.776  37.282  11.592  1.00 32.00     0.041 C 
BRANCH  10  11
ATOM     11  CE  LYS A 135      31.732  38.100  10.315  1.00 34.25     0.338 C 
ATOM     12  NZ  LYS A 135      30.327  38.369   9.899  1.00 35.99     0.618 N 
ENDBRANCH  10  11
ENDBRANCH   9  10
ENDBRANCH   8   9
ENDBRANCH   7   8
END_RES LYS A 135
