REMARK VINA RESULT:    -4.433      2.762      5.872
REMARK INTER + INTRA:         -23.697
REMARK INTER:                 -10.646
REMARK INTRA:                 -13.051
REMARK UNBOUND:               -11.748
REMARK SMILES CC(=O)N[C@@H]1[C@@H](O)C[C@](OC[C@H]2O[C@@H](O[C@H]3[C@H](O)[C@@H](O)[C@H](OCCN=[N+]=[N-])O[C@@H]3CO)[C@H](O)[C@@H](O)[C@H]2O)(C(=O)O)O[C@H]1C(O)[C@H](O)CNC(=O)OCc1cn([C@@H](C)C(=O)OCc2ccccc2)nn1
REMARK SMILES IDX 43 1 42 2 9 3 8 4 41 5 6 6 5 7 10 8 11 9 12 10 14 11 13 12
REMARK SMILES IDX 32 13 34 14 36 15 15 16 16 17 29 18 28 19 21 20 17 21 19 22
REMARK SMILES IDX 30 23 31 24 22 26 23 27 24 28 25 29 26 30 27 31 18 32 20 34
REMARK SMILES IDX 33 36 35 38 37 40 38 42 39 43 40 44 7 46 4 48 2 49 1 51 3 52
REMARK SMILES IDX 44 53 45 55 46 56 47 58 48 59 49 60 50 62 51 63 52 64 53 65
REMARK SMILES IDX 54 66 69 67 55 68 68 69 56 70 57 71 58 72 59 73 60 74 61 75
REMARK SMILES IDX 62 76 63 77 67 78 64 79 66 80 65 81
REMARK H PARENT 31 25 18 33 20 35 33 37 35 39 37 41 40 45 7 47 4 50 44 54
REMARK H PARENT 46 57 48 61
REMARK Flexibility Score: inf
ROOT
ATOM      1  C   UNL     1      28.124  27.948  19.516  1.00  0.00     0.176 C 
ENDROOT
BRANCH   1   2
ATOM      2  C   UNL     1      27.419  28.657  20.605  1.00  0.00     0.178 C 
ATOM      3  C   UNL     1      28.458  30.747  20.619  1.00  0.00     0.272 C 
ATOM      4  C   UNL     1      29.014  30.432  21.954  1.00  0.00     0.113 C 
ATOM      5  O   UNL     1      27.238  30.004  20.435  1.00  0.00    -0.332 OA
ATOM      6  C   UNL     1      29.248  28.958  22.187  1.00  0.00     0.145 C 
ATOM      7  C   UNL     1      27.953  28.241  21.951  1.00  0.00     0.142 C 
BRANCH   3   8
ATOM      8  O   UNL     1      29.148  30.548  19.525  1.00  0.00    -0.338 OA
BRANCH   8   9
ATOM      9  C   UNL     1      30.276  31.021  19.081  1.00  0.00     0.199 C 
BRANCH   9  10
ATOM     10  C   UNL     1      30.439  31.628  17.716  1.00  0.00     0.179 C 
ATOM     11  C   UNL     1      29.134  32.690  16.108  1.00  0.00     0.282 C 
ATOM     12  O   UNL     1      29.215  31.742  17.126  1.00  0.00    -0.341 OA
ATOM     13  C   UNL     1      30.457  33.006  15.509  1.00  0.00     0.202 C 
ATOM     14  C   UNL     1      31.380  33.616  16.528  1.00  0.00     0.179 C 
ATOM     15  C   UNL     1      31.120  33.006  17.858  1.00  0.00     0.177 C 
BRANCH  11  16
ATOM     16  O   UNL     1      28.403  33.739  16.595  1.00  0.00    -0.341 OA
BRANCH  16  17
ATOM     17  C   UNL     1      27.106  33.799  16.182  1.00  0.00     0.184 C 
ATOM     18  C   UNL     1      26.263  34.407  17.274  1.00  0.00     0.178 C 
ATOM     19  O   UNL     1      24.909  34.335  16.927  1.00  0.00    -0.341 OA
ATOM     20  C   UNL     1      24.511  33.028  17.310  1.00  0.00     0.281 C 
ATOM     21  C   UNL     1      26.517  32.431  15.879  1.00  0.00     0.180 C 
ATOM     22  C   UNL     1      25.459  31.982  16.817  1.00  0.00     0.202 C 
BRANCH  18  23
ATOM     23  C   UNL     1      26.664  35.798  17.666  1.00  0.00     0.191 C 
BRANCH  23  24
ATOM     24  O   UNL     1      27.803  35.674  18.468  1.00  0.00    -0.394 OA
ATOM     25  H   UNL     1      27.603  35.332  19.372  1.00  0.00     0.210 HD
ENDBRANCH  23  24
ENDBRANCH  18  23
BRANCH  20  26
ATOM     26  O   UNL     1      23.222  32.858  16.917  1.00  0.00    -0.350 OA
BRANCH  26  27
ATOM     27  C   UNL     1      22.244  33.569  17.529  1.00  0.00     0.169 C 
BRANCH  27  28
ATOM     28  C   UNL     1      20.909  32.934  17.684  1.00  0.00     0.119 C 
BRANCH  28  29
ATOM     29  N   UNL     1      20.859  31.517  17.725  1.00  0.00    -0.092 NA
ATOM     30  N   UNL     1      20.126  30.863  16.993  1.00  0.00     0.001 N 
ATOM     31  N   UNL     1      19.537  30.140  16.169  1.00  0.00    -0.003 NA
ENDBRANCH  28  29
ENDBRANCH  27  28
ENDBRANCH  26  27
ENDBRANCH  20  26
BRANCH  21  32
ATOM     32  O   UNL     1      26.019  32.369  14.574  1.00  0.00    -0.387 OA
ATOM     33  H   UNL     1      26.191  33.187  14.057  1.00  0.00     0.211 HD
ENDBRANCH  21  32
BRANCH  22  34
ATOM     34  O   UNL     1      26.041  31.241  17.851  1.00  0.00    -0.385 OA
ATOM     35  H   UNL     1      27.023  31.256  17.693  1.00  0.00     0.211 HD
ENDBRANCH  22  34
ENDBRANCH  16  17
ENDBRANCH  11  16
BRANCH  13  36
ATOM     36  O   UNL     1      31.003  31.808  14.988  1.00  0.00    -0.385 OA
ATOM     37  H   UNL     1      31.649  32.117  14.282  1.00  0.00     0.211 HD
ENDBRANCH  13  36
BRANCH  14  38
ATOM     38  O   UNL     1      31.223  34.987  16.504  1.00  0.00    -0.387 OA
ATOM     39  H   UNL     1      32.018  35.454  16.128  1.00  0.00     0.211 HD
ENDBRANCH  14  38
BRANCH  15  40
ATOM     40  O   UNL     1      30.403  33.843  18.702  1.00  0.00    -0.387 OA
ATOM     41  H   UNL     1      29.644  34.257  18.187  1.00  0.00     0.211 HD
ENDBRANCH  15  40
ENDBRANCH   9  10
ENDBRANCH   8   9
ENDBRANCH   3   8
BRANCH   3  42
ATOM     42  C   UNL     1      27.866  32.140  20.693  1.00  0.00     0.364 C 
ATOM     43  O   UNL     1      27.433  32.605  21.756  1.00  0.00    -0.246 OA
BRANCH  42  44
ATOM     44  O   UNL     1      27.793  32.943  19.556  1.00  0.00    -0.477 OA
ATOM     45  H   UNL     1      27.125  33.699  19.441  1.00  0.00     0.296 HD
ENDBRANCH  42  44
ENDBRANCH   3  42
BRANCH   6  46
ATOM     46  O   UNL     1      30.293  28.448  21.422  1.00  0.00    -0.391 OA
ATOM     47  H   UNL     1      29.954  28.362  20.500  1.00  0.00     0.211 HD
ENDBRANCH   6  46
BRANCH   7  48
ATOM     48  N   UNL     1      27.028  28.586  23.022  1.00  0.00    -0.348 N 
ATOM     49  C   UNL     1      26.204  27.553  23.569  1.00  0.00     0.217 C 
ATOM     50  H   UNL     1      26.929  29.544  23.414  1.00  0.00     0.163 HD
ATOM     51  C   UNL     1      25.255  27.908  24.667  1.00  0.00     0.114 C 
ATOM     52  O   UNL     1      26.286  26.375  23.128  1.00  0.00    -0.275 OA
ENDBRANCH   7  48
ENDBRANCH   1   2
BRANCH   1  53
ATOM     53  O   UNL     1      28.197  26.573  19.847  1.00  0.00    -0.388 OA
ATOM     54  H   UNL     1      27.679  26.032  19.190  1.00  0.00     0.211 HD
ENDBRANCH   1  53
BRANCH   1  55
ATOM     55  C   UNL     1      27.362  27.956  18.181  1.00  0.00     0.165 C 
BRANCH  55  56
ATOM     56  O   UNL     1      27.676  29.029  17.408  1.00  0.00    -0.388 OA
ATOM     57  H   UNL     1      28.475  28.851  16.858  1.00  0.00     0.211 HD
ENDBRANCH  55  56
BRANCH  55  58
ATOM     58  C   UNL     1      25.904  27.710  18.398  1.00  0.00     0.154 C 
BRANCH  58  59
ATOM     59  N   UNL     1      25.116  28.424  17.432  1.00  0.00    -0.319 N 
ATOM     60  C   UNL     1      23.706  28.398  17.325  1.00  0.00     0.407 C 
ATOM     61  H   UNL     1      25.593  29.048  16.706  1.00  0.00     0.167 HD
ATOM     62  O   UNL     1      23.020  27.709  18.083  1.00  0.00    -0.225 OA
BRANCH  60  63
ATOM     63  O   UNL     1      23.039  29.156  16.350  1.00  0.00    -0.443 OA
BRANCH  63  64
ATOM     64  C   UNL     1      23.051  28.801  14.990  1.00  0.00     0.294 C 
BRANCH  64  65
ATOM     65  C   UNL     1      23.232  30.042  14.203  1.00  0.00     0.120 A 
ATOM     66  C   UNL     1      22.463  31.184  14.225  1.00  0.00     0.139 A 
ATOM     67  N   UNL     1      24.203  30.256  13.308  1.00  0.00    -0.132 NA
ATOM     68  N   UNL     1      22.986  32.073  13.336  1.00  0.00    -0.238 N 
ATOM     69  N   UNL     1      24.038  31.485  12.798  1.00  0.00    -0.066 NA
BRANCH  68  70
ATOM     70  C   UNL     1      22.401  33.371  13.113  1.00  0.00     0.215 C 
ATOM     71  C   UNL     1      20.988  33.440  13.662  1.00  0.00     0.046 C 
BRANCH  70  72
ATOM     72  C   UNL     1      23.241  34.445  13.755  1.00  0.00     0.331 C 
ATOM     73  O   UNL     1      22.691  35.276  14.497  1.00  0.00    -0.250 OA
BRANCH  72  74
ATOM     74  O   UNL     1      24.597  34.519  13.537  1.00  0.00    -0.459 OA
BRANCH  74  75
ATOM     75  C   UNL     1      25.250  35.567  12.864  1.00  0.00     0.268 C 
BRANCH  75  76
ATOM     76  C   UNL     1      25.650  35.227  11.483  1.00  0.00    -0.011 A 
ATOM     77  C   UNL     1      24.951  35.662  10.387  1.00  0.00     0.007 A 
ATOM     78  C   UNL     1      26.757  34.445  11.262  1.00  0.00     0.007 A 
ATOM     79  C   UNL     1      25.319  35.345   9.099  1.00  0.00     0.000 A 
ATOM     80  C   UNL     1      27.162  34.103   9.993  1.00  0.00     0.000 A 
ATOM     81  C   UNL     1      26.428  34.563   8.906  1.00  0.00     0.000 A 
ENDBRANCH  75  76
ENDBRANCH  74  75
ENDBRANCH  72  74
ENDBRANCH  70  72
ENDBRANCH  68  70
ENDBRANCH  64  65
ENDBRANCH  63  64
ENDBRANCH  60  63
ENDBRANCH  58  59
ENDBRANCH  55  58
ENDBRANCH   1  55
TORSDOF 34
BEGIN_RES LYS A 131
REMARK  4 active torsions:
REMARK  status: ('A' for Active; 'I' for Inactive)
REMARK    1  A    between atoms: CA   and  CB  
REMARK    2  A    between atoms: CB   and  CG  
REMARK    3  A    between atoms: CG   and  CD  
REMARK    4  A    between atoms: CD   and  CE  
ROOT
ATOM      1  CA  LYS A 131      29.867  25.555  16.977  1.00 20.52     0.186 C 
ENDROOT
BRANCH   1   2
ATOM      2  CB  LYS A 131      28.345  25.722  17.026  1.00 20.94     0.034 C 
BRANCH   2   3
ATOM      3  CG  LYS A 131      27.603  24.396  16.965  1.00 22.96     0.005 C 
BRANCH   3   4
ATOM      4  CD  LYS A 131      26.111  24.580  16.992  1.00 24.33     0.041 C 
BRANCH   4   5
ATOM      5  CE  LYS A 131      25.476  23.472  17.827  1.00 26.91     0.338 C 
ATOM      6  NZ  LYS A 131      25.870  23.604  19.250  1.00 27.40     0.618 N 
ENDBRANCH   4   5
ENDBRANCH   3   4
ENDBRANCH   2   3
ENDBRANCH   1   2
END_RES LYS A 131
BEGIN_RES LYS A 135
REMARK  4 active torsions:
REMARK  status: ('A' for Active; 'I' for Inactive)
REMARK    5  A    between atoms: CA   and  CB  
REMARK    6  A    between atoms: CB   and  CG  
REMARK    7  A    between atoms: CG   and  CD  
REMARK    8  A    between atoms: CD   and  CE  
ROOT
ATOM      7  CA  LYS A 135      33.193  34.663   9.290  1.00 25.02     0.186 C 
ENDROOT
BRANCH   7   8
ATOM      8  CB  LYS A 135      32.060  35.360  10.034  1.00 26.63     0.034 C 
BRANCH   8   9
ATOM      9  CG  LYS A 135      30.708  34.739   9.792  1.00 29.45     0.005 C 
BRANCH   9  10
ATOM     10  CD  LYS A 135      30.413  34.660   8.302  1.00 32.00     0.041 C 
BRANCH  10  11
ATOM     11  CE  LYS A 135      29.646  35.887   7.845  1.00 34.25     0.338 C 
ATOM     12  NZ  LYS A 135      28.914  35.620   6.576  1.00 35.99     0.618 N 
ENDBRANCH  10  11
ENDBRANCH   9  10
ENDBRANCH   8   9
ENDBRANCH   7   8
END_RES LYS A 135
