REMARK VINA RESULT:    -4.900      2.401      6.607
REMARK INTER + INTRA:         -22.365
REMARK INTER:                 -11.530
REMARK INTRA:                 -10.836
REMARK UNBOUND:               -10.018
REMARK SMILES COc1ccc(-n2cc(COC(=O)NC[C@@H](O)C(O)[C@@H]3O[C@@](OC[C@H]4O[C@@H](O[C@H]5[C@H](O)[C@@H](O)[C@H](OCCN=[N+]=[N-])O[C@@H]5CO)[C@H](O)[C@@H](O)[C@H]4O)(C(=O)O)C[C@H](O)[C@H]3NC(C)=O)nn2)cc1
REMARK SMILES IDX 22 1 54 2 55 3 57 4 20 5 21 6 23 7 24 8 25 9 27 10 26 11
REMARK SMILES IDX 45 12 47 13 49 14 28 15 29 16 42 17 41 18 34 19 30 20 32 21
REMARK SMILES IDX 43 22 44 23 35 25 36 26 37 27 38 28 39 29 40 30 31 31 33 33
REMARK SMILES IDX 46 35 48 37 50 39 51 41 52 42 53 43 56 45 18 47 19 48 16 50
REMARK SMILES IDX 17 51 15 53 14 54 12 55 13 57 11 58 10 59 9 60 8 61 62 62
REMARK SMILES IDX 7 63 63 64 6 65 5 66 64 67 4 68 65 69 3 70 2 71 1 72 58 73
REMARK SMILES IDX 59 74 60 76 61 77
REMARK H PARENT 44 24 31 32 33 34 46 36 48 38 50 40 53 44 56 46 19 49 17 52
REMARK H PARENT 14 56 58 75
REMARK Flexibility Score: inf
ROOT
ATOM      1  C   UNL     1      27.708  39.168   6.319  1.00  0.00     0.272 C 
ATOM      2  C   UNL     1      27.778  40.546   5.775  1.00  0.00     0.113 C 
ATOM      3  C   UNL     1      27.353  41.645   6.666  1.00  0.00     0.145 C 
ATOM      4  C   UNL     1      26.415  41.053   7.738  1.00  0.00     0.142 C 
ATOM      5  C   UNL     1      25.608  39.996   7.072  1.00  0.00     0.178 C 
ATOM      6  O   UNL     1      26.446  38.899   6.879  1.00  0.00    -0.332 OA
ENDROOT
BRANCH   1   7
ATOM      7  O   UNL     1      28.617  38.611   7.054  1.00  0.00    -0.338 OA
BRANCH   7   8
ATOM      8  C   UNL     1      28.842  38.207   8.248  1.00  0.00     0.199 C 
BRANCH   8   9
ATOM      9  C   UNL     1      28.911  39.104   9.451  1.00  0.00     0.179 C 
ATOM     10  C   UNL     1      28.983  39.268  11.729  1.00  0.00     0.282 C 
ATOM     11  O   UNL     1      29.079  38.425  10.609  1.00  0.00    -0.341 OA
ATOM     12  C   UNL     1      29.997  40.367  11.748  1.00  0.00     0.202 C 
ATOM     13  C   UNL     1      30.632  40.682  10.445  1.00  0.00     0.179 C 
ATOM     14  C   UNL     1      29.881  40.243   9.254  1.00  0.00     0.177 C 
BRANCH  10  15
ATOM     15  O   UNL     1      29.154  38.469  12.855  1.00  0.00    -0.341 OA
BRANCH  15  16
ATOM     16  C   UNL     1      29.315  37.144  12.555  1.00  0.00     0.184 C 
ATOM     17  C   UNL     1      28.387  36.264  13.309  1.00  0.00     0.178 C 
ATOM     18  O   UNL     1      28.660  34.896  13.040  1.00  0.00    -0.341 OA
ATOM     19  C   UNL     1      29.897  34.632  13.683  1.00  0.00     0.281 C 
ATOM     20  C   UNL     1      30.768  36.755  12.885  1.00  0.00     0.180 C 
ATOM     21  C   UNL     1      30.931  35.265  12.749  1.00  0.00     0.202 C 
BRANCH  17  22
ATOM     22  C   UNL     1      26.944  36.547  12.979  1.00  0.00     0.191 C 
BRANCH  22  23
ATOM     23  O   UNL     1      26.810  36.672  11.607  1.00  0.00    -0.394 OA
ATOM     24  H   UNL     1      26.659  37.599  11.318  1.00  0.00     0.210 HD
ENDBRANCH  22  23
ENDBRANCH  17  22
BRANCH  19  25
ATOM     25  O   UNL     1      30.099  33.306  13.846  1.00  0.00    -0.350 OA
BRANCH  25  26
ATOM     26  C   UNL     1      29.938  32.740  15.072  1.00  0.00     0.169 C 
BRANCH  26  27
ATOM     27  C   UNL     1      31.169  32.400  15.842  1.00  0.00     0.119 C 
BRANCH  27  28
ATOM     28  N   UNL     1      31.568  33.352  16.834  1.00  0.00    -0.092 NA
ATOM     29  N   UNL     1      32.136  34.394  16.526  1.00  0.00     0.001 N 
ATOM     30  N   UNL     1      32.802  35.338  16.089  1.00  0.00    -0.003 NA
ENDBRANCH  27  28
ENDBRANCH  26  27
ENDBRANCH  25  26
ENDBRANCH  19  25
BRANCH  20  31
ATOM     31  O   UNL     1      31.614  37.453  12.043  1.00  0.00    -0.387 OA
ATOM     32  H   UNL     1      31.160  38.326  11.829  1.00  0.00     0.211 HD
ENDBRANCH  20  31
BRANCH  21  33
ATOM     33  O   UNL     1      32.181  34.876  13.173  1.00  0.00    -0.385 OA
ATOM     34  H   UNL     1      32.539  35.493  13.859  1.00  0.00     0.211 HD
ENDBRANCH  21  33
ENDBRANCH  15  16
ENDBRANCH  10  15
BRANCH  12  35
ATOM     35  O   UNL     1      29.446  41.567  12.230  1.00  0.00    -0.385 OA
ATOM     36  H   UNL     1      28.492  41.640  12.006  1.00  0.00     0.211 HD
ENDBRANCH  12  35
BRANCH  13  37
ATOM     37  O   UNL     1      31.969  40.266  10.449  1.00  0.00    -0.387 OA
ATOM     38  H   UNL     1      32.418  40.414  11.306  1.00  0.00     0.211 HD
ENDBRANCH  13  37
BRANCH  14  39
ATOM     39  O   UNL     1      30.788  39.977   8.224  1.00  0.00    -0.387 OA
ATOM     40  H   UNL     1      31.463  40.701   8.243  1.00  0.00     0.211 HD
ENDBRANCH  14  39
ENDBRANCH   8   9
ENDBRANCH   7   8
ENDBRANCH   1   7
BRANCH   1  41
ATOM     41  C   UNL     1      27.620  38.302   5.022  1.00  0.00     0.364 C 
ATOM     42  O   UNL     1      27.761  38.824   3.913  1.00  0.00    -0.246 OA
BRANCH  41  43
ATOM     43  O   UNL     1      27.383  36.963   5.204  1.00  0.00    -0.477 OA
ATOM     44  H   UNL     1      27.725  36.256   4.536  1.00  0.00     0.296 HD
ENDBRANCH  41  43
ENDBRANCH   1  41
BRANCH   3  45
ATOM     45  O   UNL     1      28.336  42.422   7.208  1.00  0.00    -0.391 OA
ATOM     46  H   UNL     1      28.077  42.973   7.980  1.00  0.00     0.211 HD
ENDBRANCH   3  45
BRANCH   5  47
ATOM     47  C   UNL     1      24.456  39.458   7.953  1.00  0.00     0.176 C 
BRANCH  47  48
ATOM     48  O   UNL     1      23.543  38.783   7.201  1.00  0.00    -0.388 OA
ATOM     49  H   UNL     1      23.005  38.197   7.782  1.00  0.00     0.211 HD
ENDBRANCH  47  48
BRANCH  47  50
ATOM     50  C   UNL     1      24.912  38.979   9.234  1.00  0.00     0.165 C 
BRANCH  50  51
ATOM     51  O   UNL     1      25.371  37.633   9.271  1.00  0.00    -0.388 OA
ATOM     52  H   UNL     1      25.473  37.367   8.336  1.00  0.00     0.211 HD
ENDBRANCH  50  51
BRANCH  50  53
ATOM     53  C   UNL     1      24.182  39.152  10.500  1.00  0.00     0.154 C 
BRANCH  53  54
ATOM     54  N   UNL     1      23.359  38.128  10.962  1.00  0.00    -0.319 N 
ATOM     55  C   UNL     1      22.073  37.810  10.500  1.00  0.00     0.407 C 
ATOM     56  H   UNL     1      23.732  37.506  11.758  1.00  0.00     0.167 HD
ATOM     57  O   UNL     1      21.531  38.434   9.574  1.00  0.00    -0.225 OA
BRANCH  55  58
ATOM     58  O   UNL     1      21.368  36.744  11.106  1.00  0.00    -0.443 OA
BRANCH  58  59
ATOM     59  C   UNL     1      21.605  35.451  10.610  1.00  0.00     0.294 C 
BRANCH  59  60
ATOM     60  C   UNL     1      22.774  34.855  11.299  1.00  0.00     0.121 A 
ATOM     61  C   UNL     1      22.820  33.959  12.351  1.00  0.00     0.144 A 
ATOM     62  N   UNL     1      24.055  35.106  10.966  1.00  0.00    -0.131 NA
ATOM     63  N   UNL     1      24.109  33.707  12.609  1.00  0.00    -0.220 N 
ATOM     64  N   UNL     1      24.844  34.421  11.750  1.00  0.00    -0.062 NA
BRANCH  63  65
ATOM     65  C   UNL     1      24.734  32.867  13.567  1.00  0.00     0.067 A 
ATOM     66  C   UNL     1      25.640  33.301  14.496  1.00  0.00     0.032 A 
ATOM     67  C   UNL     1      24.425  31.508  13.566  1.00  0.00     0.032 A 
ATOM     68  C   UNL     1      26.222  32.422  15.398  1.00  0.00     0.048 A 
ATOM     69  C   UNL     1      25.006  30.632  14.464  1.00  0.00     0.048 A 
ATOM     70  C   UNL     1      25.917  31.073  15.399  1.00  0.00     0.119 A 
BRANCH  70  71
ATOM     71  O   UNL     1      26.517  30.192  16.320  1.00  0.00    -0.497 OA
ATOM     72  C   UNL     1      27.882  29.824  16.070  1.00  0.00     0.278 C 
ENDBRANCH  70  71
ENDBRANCH  63  65
ENDBRANCH  59  60
ENDBRANCH  58  59
ENDBRANCH  55  58
ENDBRANCH  53  54
ENDBRANCH  50  53
ENDBRANCH  47  50
ENDBRANCH   5  47
BRANCH   4  73
ATOM     73  N   UNL     1      25.715  42.131   8.379  1.00  0.00    -0.348 N 
ATOM     74  C   UNL     1      26.142  42.645   9.630  1.00  0.00     0.217 C 
ATOM     75  H   UNL     1      24.902  42.562   7.906  1.00  0.00     0.163 HD
ATOM     76  C   UNL     1      25.399  43.760  10.274  1.00  0.00     0.114 C 
ATOM     77  O   UNL     1      27.145  42.194  10.245  1.00  0.00    -0.275 OA
ENDBRANCH   4  73
TORSDOF 31
BEGIN_RES LYS A 131
REMARK  4 active torsions:
REMARK  status: ('A' for Active; 'I' for Inactive)
REMARK    1  A    between atoms: CA   and  CB  
REMARK    2  A    between atoms: CB   and  CG  
REMARK    3  A    between atoms: CG   and  CD  
REMARK    4  A    between atoms: CD   and  CE  
ROOT
ATOM      1  CA  LYS A 131      29.867  25.555  16.977  1.00 20.52     0.186 C 
ENDROOT
BRANCH   1   2
ATOM      2  CB  LYS A 131      28.345  25.722  17.026  1.00 20.94     0.034 C 
BRANCH   2   3
ATOM      3  CG  LYS A 131      27.601  24.402  16.897  1.00 22.96     0.005 C 
BRANCH   3   4
ATOM      4  CD  LYS A 131      26.473  24.288  17.884  1.00 24.33     0.041 C 
BRANCH   4   5
ATOM      5  CE  LYS A 131      26.073  25.680  18.362  1.00 26.91     0.338 C 
ATOM      6  NZ  LYS A 131      25.871  25.687  19.830  1.00 27.40     0.618 N 
ENDBRANCH   4   5
ENDBRANCH   3   4
ENDBRANCH   2   3
ENDBRANCH   1   2
END_RES LYS A 131
BEGIN_RES LYS A 135
REMARK  4 active torsions:
REMARK  status: ('A' for Active; 'I' for Inactive)
REMARK    5  A    between atoms: CA   and  CB  
REMARK    6  A    between atoms: CB   and  CG  
REMARK    7  A    between atoms: CG   and  CD  
REMARK    8  A    between atoms: CD   and  CE  
ROOT
ATOM      7  CA  LYS A 135      33.193  34.663   9.290  1.00 25.02     0.186 C 
ENDROOT
BRANCH   7   8
ATOM      8  CB  LYS A 135      32.060  35.360  10.034  1.00 26.63     0.034 C 
BRANCH   8   9
ATOM      9  CG  LYS A 135      30.782  35.447   9.240  1.00 29.45     0.005 C 
BRANCH   9  10
ATOM     10  CD  LYS A 135      30.044  34.118   9.264  1.00 32.00     0.041 C 
BRANCH  10  11
ATOM     11  CE  LYS A 135      28.565  34.334   9.519  1.00 34.25     0.338 C 
ATOM     12  NZ  LYS A 135      27.846  34.672   8.259  1.00 35.99     0.618 N 
ENDBRANCH  10  11
ENDBRANCH   9  10
ENDBRANCH   8   9
ENDBRANCH   7   8
END_RES LYS A 135
