REMARK VINA RESULT:    -5.037      4.179      9.023
REMARK INTER + INTRA:         -23.908
REMARK INTER:                 -10.662
REMARK INTRA:                 -13.246
REMARK UNBOUND:               -11.068
REMARK SMILES CC(=O)N[C@@H]1[C@@H](O)C[C@](OC[C@H]2O[C@@H](O[C@H]3[C@H](O)[C@@H](O)[C@H](OCCN=[N+]=[N-])O[C@@H]3CO)[C@H](O)[C@@H](O)[C@H]2O)(C(=O)O)O[C@H]1C(O)[C@H](O)CNC(=O)OCc1cn(Cc2cc(Br)cc(Br)c2O)nn1
REMARK SMILES IDX 9 1 8 2 6 3 5 4 42 5 41 6 10 7 11 8 12 9 14 10 13 11 32 12
REMARK SMILES IDX 34 13 36 14 15 15 16 16 29 17 28 18 21 19 17 20 19 21 30 22
REMARK SMILES IDX 31 23 22 25 23 26 24 27 25 28 26 29 27 30 18 31 20 33 33 35
REMARK SMILES IDX 35 37 37 39 38 41 39 42 40 43 7 45 43 47 44 48 45 50 46 51
REMARK SMILES IDX 47 53 48 54 49 55 50 57 51 58 52 59 53 60 54 61 67 62 55 63
REMARK SMILES IDX 66 64 56 65 57 66 58 67 64 68 59 69 62 70 60 71 61 72 63 73
REMARK SMILES IDX 65 74 4 76 2 77 1 79 3 80
REMARK H PARENT 31 24 18 32 20 34 33 36 35 38 37 40 40 44 7 46 44 49 46 52
REMARK H PARENT 48 56 65 75 4 78
REMARK Flexibility Score: inf
ROOT
ATOM      1  C   UNL     1      25.496  36.540   8.943  1.00  0.00     0.272 C 
ATOM      2  C   UNL     1      24.004  36.042   8.629  1.00  0.00     0.113 C 
ATOM      3  C   UNL     1      23.469  35.296   9.782  1.00  0.00     0.145 C 
ATOM      4  C   UNL     1      23.539  36.139  11.029  1.00  0.00     0.142 C 
ATOM      5  C   UNL     1      24.514  37.276  10.981  1.00  0.00     0.178 C 
ATOM      6  O   UNL     1      25.424  37.354  10.017  1.00  0.00    -0.332 OA
ENDROOT
BRANCH   1   7
ATOM      7  O   UNL     1      25.738  37.244   7.812  1.00  0.00    -0.338 OA
BRANCH   7   8
ATOM      8  C   UNL     1      26.753  38.057   7.596  1.00  0.00     0.199 C 
BRANCH   8   9
ATOM      9  C   UNL     1      26.614  39.535   7.706  1.00  0.00     0.179 C 
ATOM     10  C   UNL     1      28.787  40.017   8.394  1.00  0.00     0.282 C 
ATOM     11  O   UNL     1      27.450  40.094   8.611  1.00  0.00    -0.341 OA
ATOM     12  C   UNL     1      29.159  40.285   6.973  1.00  0.00     0.202 C 
ATOM     13  C   UNL     1      28.031  40.965   6.245  1.00  0.00     0.179 C 
ATOM     14  C   UNL     1      26.733  40.220   6.343  1.00  0.00     0.177 C 
BRANCH  10  15
ATOM     15  O   UNL     1      29.312  38.815   8.894  1.00  0.00    -0.341 OA
BRANCH  15  16
ATOM     16  C   UNL     1      29.883  38.922  10.141  1.00  0.00     0.184 C 
ATOM     17  C   UNL     1      31.296  38.386  10.154  1.00  0.00     0.178 C 
ATOM     18  O   UNL     1      31.830  38.228  11.401  1.00  0.00    -0.341 OA
ATOM     19  C   UNL     1      31.155  38.844  12.440  1.00  0.00     0.281 C 
ATOM     20  C   UNL     1      29.145  38.055  11.168  1.00  0.00     0.180 C 
ATOM     21  C   UNL     1      29.703  38.456  12.512  1.00  0.00     0.202 C 
BRANCH  17  22
ATOM     22  C   UNL     1      32.234  39.194   9.281  1.00  0.00     0.191 C 
BRANCH  22  23
ATOM     23  O   UNL     1      31.993  40.546   9.395  1.00  0.00    -0.394 OA
ATOM     24  H   UNL     1      32.858  41.010   9.482  1.00  0.00     0.210 HD
ENDBRANCH  22  23
ENDBRANCH  17  22
BRANCH  19  25
ATOM     25  O   UNL     1      31.341  40.213  12.344  1.00  0.00    -0.350 OA
BRANCH  25  26
ATOM     26  C   UNL     1      30.572  40.884  13.257  1.00  0.00     0.169 C 
BRANCH  26  27
ATOM     27  C   UNL     1      30.051  42.211  12.825  1.00  0.00     0.119 C 
BRANCH  27  28
ATOM     28  N   UNL     1      29.385  42.166  11.539  1.00  0.00    -0.092 NA
ATOM     29  N   UNL     1      29.798  42.757  10.562  1.00  0.00     0.001 N 
ATOM     30  N   UNL     1      30.219  43.071   9.451  1.00  0.00    -0.003 NA
ENDBRANCH  27  28
ENDBRANCH  26  27
ENDBRANCH  25  26
ENDBRANCH  19  25
BRANCH  20  31
ATOM     31  O   UNL     1      27.783  38.155  11.093  1.00  0.00    -0.387 OA
ATOM     32  H   UNL     1      27.513  38.828  11.796  1.00  0.00     0.211 HD
ENDBRANCH  20  31
BRANCH  21  33
ATOM     33  O   UNL     1      29.541  37.449  13.456  1.00  0.00    -0.385 OA
ATOM     34  H   UNL     1      29.184  36.644  13.043  1.00  0.00     0.211 HD
ENDBRANCH  21  33
ENDBRANCH  15  16
ENDBRANCH  10  15
BRANCH  12  35
ATOM     35  O   UNL     1      30.301  41.123   6.983  1.00  0.00    -0.385 OA
ATOM     36  H   UNL     1      31.066  40.507   6.897  1.00  0.00     0.211 HD
ENDBRANCH  12  35
BRANCH  13  37
ATOM     37  O   UNL     1      28.355  41.236   4.916  1.00  0.00    -0.387 OA
ATOM     38  H   UNL     1      29.186  41.775   4.945  1.00  0.00     0.211 HD
ENDBRANCH  13  37
BRANCH  14  39
ATOM     39  O   UNL     1      26.666  39.265   5.344  1.00  0.00    -0.387 OA
ATOM     40  H   UNL     1      26.048  39.554   4.620  1.00  0.00     0.211 HD
ENDBRANCH  14  39
ENDBRANCH   8   9
ENDBRANCH   7   8
ENDBRANCH   1   7
BRANCH   1  41
ATOM     41  C   UNL     1      26.263  35.320   9.166  1.00  0.00     0.364 C 
ATOM     42  O   UNL     1      26.283  34.378   8.287  1.00  0.00    -0.246 OA
BRANCH  41  43
ATOM     43  O   UNL     1      27.016  35.062  10.281  1.00  0.00    -0.477 OA
ATOM     44  H   UNL     1      26.719  34.380  10.964  1.00  0.00     0.296 HD
ENDBRANCH  41  43
ENDBRANCH   1  41
BRANCH   3  45
ATOM     45  O   UNL     1      22.146  34.912   9.496  1.00  0.00    -0.391 OA
ATOM     46  H   UNL     1      21.611  34.919  10.323  1.00  0.00     0.211 HD
ENDBRANCH   3  45
BRANCH   5  47
ATOM     47  C   UNL     1      23.736  38.557  11.215  1.00  0.00     0.176 C 
BRANCH  47  48
ATOM     48  O   UNL     1      22.622  38.280  12.048  1.00  0.00    -0.388 OA
ATOM     49  H   UNL     1      22.492  38.994  12.702  1.00  0.00     0.211 HD
ENDBRANCH  47  48
BRANCH  47  50
ATOM     50  C   UNL     1      24.515  39.706  11.705  1.00  0.00     0.165 C 
BRANCH  50  51
ATOM     51  O   UNL     1      25.537  40.059  10.851  1.00  0.00    -0.388 OA
ATOM     52  H   UNL     1      26.430  39.764  11.160  1.00  0.00     0.211 HD
ENDBRANCH  50  51
BRANCH  50  53
ATOM     53  C   UNL     1      24.994  39.680  13.115  1.00  0.00     0.154 C 
BRANCH  53  54
ATOM     54  N   UNL     1      26.051  38.778  13.416  1.00  0.00    -0.319 N 
ATOM     55  C   UNL     1      25.715  37.579  14.134  1.00  0.00     0.407 C 
ATOM     56  H   UNL     1      27.043  38.933  13.177  1.00  0.00     0.167 HD
ATOM     57  O   UNL     1      24.496  37.379  14.463  1.00  0.00    -0.225 OA
BRANCH  55  58
ATOM     58  O   UNL     1      26.689  36.675  14.450  1.00  0.00    -0.443 OA
BRANCH  58  59
ATOM     59  C   UNL     1      26.603  35.314  14.115  1.00  0.00     0.294 C 
BRANCH  59  60
ATOM     60  C   UNL     1      27.953  34.713  14.025  1.00  0.00     0.120 A 
ATOM     61  C   UNL     1      28.646  33.952  14.958  1.00  0.00     0.138 A 
ATOM     62  N   UNL     1      28.789  34.789  12.977  1.00  0.00    -0.132 NA
ATOM     63  N   UNL     1      29.844  33.600  14.470  1.00  0.00    -0.248 N 
ATOM     64  N   UNL     1      29.900  34.133  13.246  1.00  0.00    -0.067 NA
BRANCH  63  65
ATOM     65  C   UNL     1      30.915  32.808  15.085  1.00  0.00     0.185 C 
BRANCH  65  66
ATOM     66  C   UNL     1      31.422  33.573  16.247  1.00  0.00     0.018 A 
ATOM     67  C   UNL     1      32.257  34.650  16.022  1.00  0.00     0.025 A 
ATOM     68  C   UNL     1      31.089  33.245  17.557  1.00  0.00     0.134 A 
ATOM     69  C   UNL     1      32.767  35.411  17.062  1.00  0.00     0.019 A 
ATOM     70  C   UNL     1      31.584  33.987  18.618  1.00  0.00     0.061 A 
ATOM     71  Br  UNL     1      33.914  36.888  16.705  1.00  0.00    -0.051 Br
ATOM     72  C   UNL     1      32.423  35.068  18.347  1.00  0.00     0.035 A 
ATOM     73  Br  UNL     1      31.115  33.523  20.387  1.00  0.00    -0.047 Br
BRANCH  68  74
ATOM     74  O   UNL     1      30.253  32.158  17.714  1.00  0.00    -0.506 OA
ATOM     75  H   UNL     1      30.532  31.402  18.317  1.00  0.00     0.293 HD
ENDBRANCH  68  74
ENDBRANCH  65  66
ENDBRANCH  63  65
ENDBRANCH  59  60
ENDBRANCH  58  59
ENDBRANCH  55  58
ENDBRANCH  53  54
ENDBRANCH  50  53
ENDBRANCH  47  50
ENDBRANCH   5  47
BRANCH   4  76
ATOM     76  N   UNL     1      23.677  35.285  12.189  1.00  0.00    -0.348 N 
ATOM     77  C   UNL     1      22.523  34.966  12.950  1.00  0.00     0.217 C 
ATOM     78  H   UNL     1      24.594  34.889  12.501  1.00  0.00     0.163 HD
ATOM     79  C   UNL     1      22.667  34.083  14.150  1.00  0.00     0.114 C 
ATOM     80  O   UNL     1      21.385  35.430  12.607  1.00  0.00    -0.275 OA
ENDBRANCH   4  76
TORSDOF 32
BEGIN_RES LYS A 131
REMARK  4 active torsions:
REMARK  status: ('A' for Active; 'I' for Inactive)
REMARK    1  A    between atoms: CA   and  CB  
REMARK    2  A    between atoms: CB   and  CG  
REMARK    3  A    between atoms: CG   and  CD  
REMARK    4  A    between atoms: CD   and  CE  
ROOT
ATOM      1  CA  LYS A 131      29.867  25.555  16.977  1.00 20.52     0.186 C 
ENDROOT
BRANCH   1   2
ATOM      2  CB  LYS A 131      28.345  25.722  17.026  1.00 20.94     0.034 C 
BRANCH   2   3
ATOM      3  CG  LYS A 131      27.601  24.405  16.866  1.00 22.96     0.005 C 
BRANCH   3   4
ATOM      4  CD  LYS A 131      26.158  24.517  17.273  1.00 24.33     0.041 C 
BRANCH   4   5
ATOM      5  CE  LYS A 131      25.692  23.191  17.865  1.00 26.91     0.338 C 
ATOM      6  NZ  LYS A 131      25.531  23.306  19.334  1.00 27.40     0.618 N 
ENDBRANCH   4   5
ENDBRANCH   3   4
ENDBRANCH   2   3
ENDBRANCH   1   2
END_RES LYS A 131
BEGIN_RES LYS A 135
REMARK  4 active torsions:
REMARK  status: ('A' for Active; 'I' for Inactive)
REMARK    5  A    between atoms: CA   and  CB  
REMARK    6  A    between atoms: CB   and  CG  
REMARK    7  A    between atoms: CG   and  CD  
REMARK    8  A    between atoms: CD   and  CE  
ROOT
ATOM      7  CA  LYS A 135      33.193  34.663   9.290  1.00 25.02     0.186 C 
ENDROOT
BRANCH   7   8
ATOM      8  CB  LYS A 135      32.060  35.360  10.034  1.00 26.63     0.034 C 
BRANCH   8   9
ATOM      9  CG  LYS A 135      30.718  34.703   9.840  1.00 29.45     0.005 C 
BRANCH   9  10
ATOM     10  CD  LYS A 135      30.411  34.536   8.359  1.00 32.00     0.041 C 
BRANCH  10  11
ATOM     11  CE  LYS A 135      29.656  35.742   7.833  1.00 34.25     0.338 C 
ATOM     12  NZ  LYS A 135      29.002  35.438   6.530  1.00 35.99     0.618 N 
ENDBRANCH  10  11
ENDBRANCH   9  10
ENDBRANCH   8   9
ENDBRANCH   7   8
END_RES LYS A 135
