REMARK VINA RESULT:    -5.487      2.628      4.737
REMARK INTER + INTRA:         -23.351
REMARK INTER:                 -13.918
REMARK INTRA:                  -9.432
REMARK UNBOUND:                -9.203
REMARK SMILES CC(=O)N[C@@H]1[C@@H](O)C[C@](OC[C@H]2O[C@@H](O[C@H]3[C@H](O)[C@@H](O)[C@H](OCCN=[N+]=[N-])O[C@@H]3CO)[C@H](O)[C@@H](O)[C@H]2O)(C(=O)O)O[C@H]1C(O)[C@H](O)CNC(=O)OCc1cn(Cc2ccc(C#N)cc2)nn1
REMARK SMILES IDX 9 1 8 2 6 3 5 4 42 5 41 6 10 7 11 8 12 9 14 10 13 11 32 12
REMARK SMILES IDX 34 13 36 14 15 15 16 16 29 17 28 18 21 19 17 20 19 21 30 22
REMARK SMILES IDX 31 23 22 25 23 26 24 27 25 28 26 29 27 30 18 31 20 33 33 35
REMARK SMILES IDX 35 37 37 39 38 41 39 42 40 43 7 45 43 47 44 48 45 50 46 51
REMARK SMILES IDX 47 53 48 54 49 55 50 57 51 58 52 59 53 60 54 61 66 62 55 63
REMARK SMILES IDX 65 64 56 65 57 66 58 67 64 68 59 69 63 70 60 71 61 72 62 73
REMARK SMILES IDX 4 74 2 75 1 77 3 78
REMARK H PARENT 31 24 18 32 20 34 33 36 35 38 37 40 40 44 7 46 44 49 46 52
REMARK H PARENT 48 56 4 76
REMARK Flexibility Score: inf
ROOT
ATOM      1  C   UNL     1      24.463  36.660   9.761  1.00  0.00     0.272 C 
ATOM      2  C   UNL     1      23.175  36.262   9.131  1.00  0.00     0.113 C 
ATOM      3  C   UNL     1      22.658  37.195   8.095  1.00  0.00     0.145 C 
ATOM      4  C   UNL     1      23.124  38.613   8.463  1.00  0.00     0.142 C 
ATOM      5  C   UNL     1      23.291  38.624   9.952  1.00  0.00     0.178 C 
ATOM      6  O   UNL     1      24.429  37.954  10.303  1.00  0.00    -0.332 OA
ENDROOT
BRANCH   1   7
ATOM      7  O   UNL     1      25.592  36.499   8.987  1.00  0.00    -0.338 OA
BRANCH   7   8
ATOM      8  C   UNL     1      25.766  35.258   8.473  1.00  0.00     0.199 C 
BRANCH   8   9
ATOM      9  C   UNL     1      27.189  35.053   7.924  1.00  0.00     0.179 C 
ATOM     10  C   UNL     1      29.035  36.302   7.326  1.00  0.00     0.282 C 
ATOM     11  O   UNL     1      27.678  36.330   7.643  1.00  0.00    -0.341 OA
ATOM     12  C   UNL     1      29.890  35.799   8.444  1.00  0.00     0.202 C 
ATOM     13  C   UNL     1      29.011  35.390   9.602  1.00  0.00     0.179 C 
ATOM     14  C   UNL     1      27.995  34.415   9.024  1.00  0.00     0.177 C 
BRANCH  10  15
ATOM     15  O   UNL     1      29.411  37.614   7.049  1.00  0.00    -0.341 OA
BRANCH  15  16
ATOM     16  C   UNL     1      28.352  38.411   6.620  1.00  0.00     0.184 C 
ATOM     17  C   UNL     1      28.773  39.210   5.439  1.00  0.00     0.178 C 
ATOM     18  O   UNL     1      29.188  40.487   5.686  1.00  0.00    -0.341 OA
ATOM     19  C   UNL     1      29.378  40.829   7.000  1.00  0.00     0.281 C 
ATOM     20  C   UNL     1      27.728  39.189   7.733  1.00  0.00     0.180 C 
ATOM     21  C   UNL     1      28.072  40.655   7.742  1.00  0.00     0.202 C 
BRANCH  17  22
ATOM     22  C   UNL     1      27.675  39.156   4.379  1.00  0.00     0.191 C 
BRANCH  22  23
ATOM     23  O   UNL     1      27.329  40.470   4.063  1.00  0.00    -0.394 OA
ATOM     24  H   UNL     1      27.017  40.967   4.879  1.00  0.00     0.210 HD
ENDBRANCH  22  23
ENDBRANCH  17  22
BRANCH  19  25
ATOM     25  O   UNL     1      29.692  42.204   7.008  1.00  0.00    -0.350 OA
BRANCH  25  26
ATOM     26  C   UNL     1      31.042  42.403   6.757  1.00  0.00     0.169 C 
BRANCH  26  27
ATOM     27  C   UNL     1      31.694  43.177   7.885  1.00  0.00     0.119 C 
BRANCH  27  28
ATOM     28  N   UNL     1      31.816  42.386   9.095  1.00  0.00    -0.092 NA
ATOM     29  N   UNL     1      31.099  42.619  10.055  1.00  0.00     0.001 N 
ATOM     30  N   UNL     1      30.237  42.421  10.924  1.00  0.00    -0.003 NA
ENDBRANCH  27  28
ENDBRANCH  26  27
ENDBRANCH  25  26
ENDBRANCH  19  25
BRANCH  20  31
ATOM     31  O   UNL     1      26.343  39.003   7.821  1.00  0.00    -0.387 OA
ATOM     32  H   UNL     1      26.024  39.232   8.743  1.00  0.00     0.211 HD
ENDBRANCH  20  31
BRANCH  21  33
ATOM     33  O   UNL     1      28.168  41.160   9.041  1.00  0.00    -0.385 OA
ATOM     34  H   UNL     1      29.105  41.463   9.160  1.00  0.00     0.211 HD
ENDBRANCH  21  33
ENDBRANCH  15  16
ENDBRANCH  10  15
BRANCH  12  35
ATOM     35  O   UNL     1      30.702  34.737   8.115  1.00  0.00    -0.385 OA
ATOM     36  H   UNL     1      30.718  34.621   7.123  1.00  0.00     0.211 HD
ENDBRANCH  12  35
BRANCH  13  37
ATOM     37  O   UNL     1      28.415  36.529  10.118  1.00  0.00    -0.387 OA
ATOM     38  H   UNL     1      27.504  36.701   9.795  1.00  0.00     0.211 HD
ENDBRANCH  13  37
BRANCH  14  39
ATOM     39  O   UNL     1      27.219  33.805   9.979  1.00  0.00    -0.387 OA
ATOM     40  H   UNL     1      27.544  34.039  10.875  1.00  0.00     0.211 HD
ENDBRANCH  14  39
ENDBRANCH   8   9
ENDBRANCH   7   8
ENDBRANCH   1   7
BRANCH   1  41
ATOM     41  C   UNL     1      24.622  35.793  10.977  1.00  0.00     0.364 C 
ATOM     42  O   UNL     1      25.636  35.881  11.675  1.00  0.00    -0.246 OA
BRANCH  41  43
ATOM     43  O   UNL     1      23.618  34.908  11.291  1.00  0.00    -0.477 OA
ATOM     44  H   UNL     1      23.627  34.307  12.106  1.00  0.00     0.296 HD
ENDBRANCH  41  43
ENDBRANCH   1  41
BRANCH   3  45
ATOM     45  O   UNL     1      22.920  36.870   6.795  1.00  0.00    -0.391 OA
ATOM     46  H   UNL     1      23.413  37.583   6.339  1.00  0.00     0.211 HD
ENDBRANCH   3  45
BRANCH   5  47
ATOM     47  C   UNL     1      23.267  40.036  10.550  1.00  0.00     0.176 C 
BRANCH  47  48
ATOM     48  O   UNL     1      22.336  39.956  11.612  1.00  0.00    -0.388 OA
ATOM     49  H   UNL     1      22.113  39.001  11.748  1.00  0.00     0.211 HD
ENDBRANCH  47  48
BRANCH  47  50
ATOM     50  C   UNL     1      24.572  40.427  11.085  1.00  0.00     0.165 C 
BRANCH  50  51
ATOM     51  O   UNL     1      25.614  40.153  10.148  1.00  0.00    -0.388 OA
ATOM     52  H   UNL     1      26.424  40.015  10.732  1.00  0.00     0.211 HD
ENDBRANCH  50  51
BRANCH  50  53
ATOM     53  C   UNL     1      24.956  39.901  12.411  1.00  0.00     0.154 C 
BRANCH  53  54
ATOM     54  N   UNL     1      25.966  38.953  12.584  1.00  0.00    -0.319 N 
ATOM     55  C   UNL     1      27.353  39.053  12.368  1.00  0.00     0.407 C 
ATOM     56  H   UNL     1      25.661  37.980  12.940  1.00  0.00     0.167 HD
ATOM     57  O   UNL     1      27.911  40.091  11.986  1.00  0.00    -0.225 OA
BRANCH  55  58
ATOM     58  O   UNL     1      28.199  37.954  12.585  1.00  0.00    -0.443 OA
BRANCH  58  59
ATOM     59  C   UNL     1      28.389  37.454  13.899  1.00  0.00     0.294 C 
BRANCH  59  60
ATOM     60  C   UNL     1      29.223  36.204  13.806  1.00  0.00     0.120 A 
ATOM     61  C   UNL     1      30.298  35.930  14.626  1.00  0.00     0.138 A 
ATOM     62  N   UNL     1      29.117  35.163  12.961  1.00  0.00    -0.132 NA
ATOM     63  N   UNL     1      30.813  34.730  14.251  1.00  0.00    -0.248 N 
ATOM     64  N   UNL     1      30.080  34.323  13.268  1.00  0.00    -0.067 NA
BRANCH  63  65
ATOM     65  C   UNL     1      31.976  34.143  14.898  1.00  0.00     0.181 C 
BRANCH  65  66
ATOM     66  C   UNL     1      31.406  33.237  15.961  1.00  0.00    -0.026 A 
ATOM     67  C   UNL     1      31.380  33.691  17.257  1.00  0.00     0.007 A 
ATOM     68  C   UNL     1      30.924  31.972  15.615  1.00  0.00     0.007 A 
ATOM     69  C   UNL     1      30.883  32.933  18.292  1.00  0.00     0.020 A 
ATOM     70  C   UNL     1      30.429  31.217  16.648  1.00  0.00     0.020 A 
ATOM     71  C   UNL     1      30.407  31.669  17.927  1.00  0.00     0.052 A 
BRANCH  71  72
ATOM     72  C   UNL     1      29.893  30.838  19.010  1.00  0.00     0.099 C 
ATOM     73  N   UNL     1      29.470  30.189  19.878  1.00  0.00    -0.192 NA
ENDBRANCH  71  72
ENDBRANCH  65  66
ENDBRANCH  63  65
ENDBRANCH  59  60
ENDBRANCH  58  59
ENDBRANCH  55  58
ENDBRANCH  53  54
ENDBRANCH  50  53
ENDBRANCH  47  50
ENDBRANCH   5  47
BRANCH   4  74
ATOM     74  N   UNL     1      22.194  39.588   7.952  1.00  0.00    -0.348 N 
ATOM     75  C   UNL     1      22.705  40.733   7.286  1.00  0.00     0.217 C 
ATOM     76  H   UNL     1      21.172  39.487   8.048  1.00  0.00     0.163 HD
ATOM     77  C   UNL     1      21.817  41.772   6.735  1.00  0.00     0.114 C 
ATOM     78  O   UNL     1      23.963  40.899   7.141  1.00  0.00    -0.275 OA
ENDBRANCH   4  74
TORSDOF 32
BEGIN_RES LYS A 131
REMARK  4 active torsions:
REMARK  status: ('A' for Active; 'I' for Inactive)
REMARK    1  A    between atoms: CA   and  CB  
REMARK    2  A    between atoms: CB   and  CG  
REMARK    3  A    between atoms: CG   and  CD  
REMARK    4  A    between atoms: CD   and  CE  
ROOT
ATOM      1  CA  LYS A 131      29.867  25.555  16.977  1.00 20.52     0.186 C 
ENDROOT
BRANCH   1   2
ATOM      2  CB  LYS A 131      28.345  25.722  17.026  1.00 20.94     0.034 C 
BRANCH   2   3
ATOM      3  CG  LYS A 131      27.601  24.401  16.900  1.00 22.96     0.005 C 
BRANCH   3   4
ATOM      4  CD  LYS A 131      26.638  24.184  18.034  1.00 24.33     0.041 C 
BRANCH   4   5
ATOM      5  CE  LYS A 131      25.804  25.444  18.242  1.00 26.91     0.338 C 
ATOM      6  NZ  LYS A 131      24.566  25.387  17.429  1.00 27.40     0.618 N 
ENDBRANCH   4   5
ENDBRANCH   3   4
ENDBRANCH   2   3
ENDBRANCH   1   2
END_RES LYS A 131
BEGIN_RES LYS A 135
REMARK  4 active torsions:
REMARK  status: ('A' for Active; 'I' for Inactive)
REMARK    5  A    between atoms: CA   and  CB  
REMARK    6  A    between atoms: CB   and  CG  
REMARK    7  A    between atoms: CG   and  CD  
REMARK    8  A    between atoms: CD   and  CE  
ROOT
ATOM      7  CA  LYS A 135      33.193  34.663   9.290  1.00 25.02     0.186 C 
ENDROOT
BRANCH   7   8
ATOM      8  CB  LYS A 135      32.060  35.360  10.034  1.00 26.63     0.034 C 
BRANCH   8   9
ATOM      9  CG  LYS A 135      32.502  36.040  11.304  1.00 29.45     0.005 C 
BRANCH   9  10
ATOM     10  CD  LYS A 135      31.787  37.371  11.477  1.00 32.00     0.041 C 
BRANCH  10  11
ATOM     11  CE  LYS A 135      31.924  38.216  10.224  1.00 34.25     0.338 C 
ATOM     12  NZ  LYS A 135      30.700  39.031   9.990  1.00 35.99     0.618 N 
ENDBRANCH  10  11
ENDBRANCH   9  10
ENDBRANCH   8   9
ENDBRANCH   7   8
END_RES LYS A 135
