REMARK VINA RESULT:    -5.154      2.632      7.836
REMARK INTER + INTRA:         -23.188
REMARK INTER:                 -12.008
REMARK INTRA:                 -11.179
REMARK UNBOUND:                -9.598
REMARK SMILES CC(=O)N[C@@H]1[C@@H](O)C[C@](OC[C@H]2O[C@@H](O[C@H]3[C@H](O)[C@@H](O)[C@H](OCCN=[N+]=[N-])O[C@@H]3CO)[C@H](O)[C@@H](O)[C@H]2O)(C(=O)O)O[C@H]1C(O)[C@H](O)CNC(=O)OCc1cn(Cc2ccccc2OC(C)=O)nn1
REMARK SMILES IDX 43 1 42 2 9 3 8 4 41 5 6 6 5 7 10 8 11 9 12 10 14 11 13 12
REMARK SMILES IDX 32 13 34 14 36 15 15 16 16 17 29 18 28 19 21 20 17 21 19 22
REMARK SMILES IDX 30 23 31 24 22 26 23 27 24 28 25 29 26 30 27 31 18 32 20 34
REMARK SMILES IDX 33 36 35 38 37 40 38 42 39 43 40 44 7 46 4 48 2 49 1 51 3 52
REMARK SMILES IDX 44 53 45 55 46 56 47 58 48 59 49 60 50 62 51 63 52 64 53 65
REMARK SMILES IDX 54 66 68 67 55 68 67 69 56 70 57 71 62 72 58 73 61 74 59 75
REMARK SMILES IDX 60 76 63 77 64 78 66 79 65 80
REMARK H PARENT 31 25 18 33 20 35 33 37 35 39 37 41 40 45 7 47 4 50 44 54
REMARK H PARENT 46 57 48 61
REMARK Flexibility Score: inf
ROOT
ATOM      1  C   UNL     1      23.881  38.440   8.074  1.00  0.00     0.176 C 
ENDROOT
BRANCH   1   2
ATOM      2  C   UNL     1      24.408  39.539   7.164  1.00  0.00     0.178 C 
ATOM      3  C   UNL     1      26.411  40.501   6.457  1.00  0.00     0.272 C 
ATOM      4  C   UNL     1      25.402  41.567   6.042  1.00  0.00     0.113 C 
ATOM      5  O   UNL     1      25.770  39.607   7.348  1.00  0.00    -0.332 OA
ATOM      6  C   UNL     1      24.644  41.946   7.303  1.00  0.00     0.145 C 
ATOM      7  C   UNL     1      23.732  40.828   7.634  1.00  0.00     0.142 C 
BRANCH   3   8
ATOM      8  O   UNL     1      27.478  41.005   7.139  1.00  0.00    -0.338 OA
BRANCH   8   9
ATOM      9  C   UNL     1      28.684  41.062   6.518  1.00  0.00     0.199 C 
BRANCH   9  10
ATOM     10  C   UNL     1      29.755  40.636   7.538  1.00  0.00     0.179 C 
ATOM     11  C   UNL     1      30.109  39.162   9.266  1.00  0.00     0.282 C 
ATOM     12  O   UNL     1      29.209  39.538   8.210  1.00  0.00    -0.341 OA
ATOM     13  C   UNL     1      31.248  38.494   8.580  1.00  0.00     0.202 C 
ATOM     14  C   UNL     1      31.962  39.589   7.769  1.00  0.00     0.179 C 
ATOM     15  C   UNL     1      31.029  40.288   6.838  1.00  0.00     0.177 C 
BRANCH  11  16
ATOM     16  O   UNL     1      29.332  38.404  10.107  1.00  0.00    -0.341 OA
BRANCH  16  17
ATOM     17  C   UNL     1      29.090  39.073  11.321  1.00  0.00     0.184 C 
ATOM     18  C   UNL     1      28.892  40.536  11.176  1.00  0.00     0.178 C 
ATOM     19  O   UNL     1      29.608  41.282  12.118  1.00  0.00    -0.341 OA
ATOM     20  C   UNL     1      29.499  40.809  13.419  1.00  0.00     0.281 C 
ATOM     21  C   UNL     1      30.425  38.950  12.148  1.00  0.00     0.180 C 
ATOM     22  C   UNL     1      30.055  39.391  13.538  1.00  0.00     0.202 C 
BRANCH  18  23
ATOM     23  C   UNL     1      27.475  41.002  11.055  1.00  0.00     0.191 C 
BRANCH  23  24
ATOM     24  O   UNL     1      26.850  40.304  10.032  1.00  0.00    -0.394 OA
ATOM     25  H   UNL     1      27.297  40.476   9.177  1.00  0.00     0.210 HD
ENDBRANCH  23  24
ENDBRANCH  18  23
BRANCH  20  26
ATOM     26  O   UNL     1      28.214  40.782  13.833  1.00  0.00    -0.350 OA
BRANCH  26  27
ATOM     27  C   UNL     1      27.650  41.841  14.442  1.00  0.00     0.169 C 
BRANCH  27  28
ATOM     28  C   UNL     1      26.252  41.726  14.934  1.00  0.00     0.119 C 
BRANCH  28  29
ATOM     29  N   UNL     1      25.483  40.862  14.106  1.00  0.00    -0.092 NA
ATOM     30  N   UNL     1      24.649  41.265  13.325  1.00  0.00     0.001 N 
ATOM     31  N   UNL     1      24.033  41.797  12.397  1.00  0.00    -0.003 NA
ENDBRANCH  28  29
ENDBRANCH  27  28
ENDBRANCH  26  27
ENDBRANCH  20  26
BRANCH  21  32
ATOM     32  O   UNL     1      30.891  37.661  12.071  1.00  0.00    -0.387 OA
ATOM     33  H   UNL     1      31.242  37.477  11.142  1.00  0.00     0.211 HD
ENDBRANCH  21  32
BRANCH  22  34
ATOM     34  O   UNL     1      31.106  39.293  14.422  1.00  0.00    -0.385 OA
ATOM     35  H   UNL     1      31.218  40.192  14.847  1.00  0.00     0.211 HD
ENDBRANCH  22  34
ENDBRANCH  16  17
ENDBRANCH  11  16
BRANCH  13  36
ATOM     36  O   UNL     1      32.213  38.007   9.447  1.00  0.00    -0.385 OA
ATOM     37  H   UNL     1      31.886  37.805  10.348  1.00  0.00     0.211 HD
ENDBRANCH  13  36
BRANCH  14  38
ATOM     38  O   UNL     1      33.065  39.047   7.106  1.00  0.00    -0.387 OA
ATOM     39  H   UNL     1      32.713  38.294   6.551  1.00  0.00     0.211 HD
ENDBRANCH  14  38
BRANCH  15  40
ATOM     40  O   UNL     1      30.831  39.473   5.726  1.00  0.00    -0.387 OA
ATOM     41  H   UNL     1      30.765  38.524   5.945  1.00  0.00     0.211 HD
ENDBRANCH  15  40
ENDBRANCH   9  10
ENDBRANCH   8   9
ENDBRANCH   3   8
BRANCH   3  42
ATOM     42  C   UNL     1      26.760  39.769   5.220  1.00  0.00     0.364 C 
ATOM     43  O   UNL     1      26.734  40.297   4.110  1.00  0.00    -0.246 OA
BRANCH  42  44
ATOM     44  O   UNL     1      27.134  38.427   5.322  1.00  0.00    -0.477 OA
ATOM     45  H   UNL     1      28.097  38.121   5.122  1.00  0.00     0.296 HD
ENDBRANCH  42  44
ENDBRANCH   3  42
BRANCH   6  46
ATOM     46  O   UNL     1      25.608  42.037   8.311  1.00  0.00    -0.391 OA
ATOM     47  H   UNL     1      25.378  41.530   9.125  1.00  0.00     0.211 HD
ENDBRANCH   6  46
BRANCH   7  48
ATOM     48  N   UNL     1      22.411  40.895   7.167  1.00  0.00    -0.348 N 
ATOM     49  C   UNL     1      21.298  41.285   7.964  1.00  0.00     0.217 C 
ATOM     50  H   UNL     1      22.233  40.636   6.154  1.00  0.00     0.163 HD
ATOM     51  C   UNL     1      19.925  41.343   7.437  1.00  0.00     0.114 C 
ATOM     52  O   UNL     1      21.537  41.582   9.142  1.00  0.00    -0.275 OA
ENDBRANCH   7  48
ENDBRANCH   1   2
BRANCH   1  53
ATOM     53  O   UNL     1      22.718  37.970   7.493  1.00  0.00    -0.388 OA
ATOM     54  H   UNL     1      21.922  38.515   7.668  1.00  0.00     0.211 HD
ENDBRANCH   1  53
BRANCH   1  55
ATOM     55  C   UNL     1      24.894  37.394   8.401  1.00  0.00     0.165 C 
BRANCH  55  56
ATOM     56  O   UNL     1      25.435  36.933   7.197  1.00  0.00    -0.388 OA
ATOM     57  H   UNL     1      25.002  36.123   6.886  1.00  0.00     0.211 HD
ENDBRANCH  55  56
BRANCH  55  58
ATOM     58  C   UNL     1      24.326  36.253   9.211  1.00  0.00     0.154 C 
BRANCH  58  59
ATOM     59  N   UNL     1      25.298  35.476   9.906  1.00  0.00    -0.319 N 
ATOM     60  C   UNL     1      25.583  35.602  11.290  1.00  0.00     0.407 C 
ATOM     61  H   UNL     1      25.854  34.753   9.374  1.00  0.00     0.167 HD
ATOM     62  O   UNL     1      24.939  36.458  11.945  1.00  0.00    -0.225 OA
BRANCH  60  63
ATOM     63  O   UNL     1      26.523  34.845  11.948  1.00  0.00    -0.443 OA
BRANCH  63  64
ATOM     64  C   UNL     1      26.970  35.151  13.268  1.00  0.00     0.294 C 
BRANCH  64  65
ATOM     65  C   UNL     1      28.393  34.827  13.443  1.00  0.00     0.120 A 
ATOM     66  C   UNL     1      28.856  33.810  14.245  1.00  0.00     0.138 A 
ATOM     67  N   UNL     1      29.480  35.394  12.906  1.00  0.00    -0.132 NA
ATOM     68  N   UNL     1      30.189  33.782  14.180  1.00  0.00    -0.248 N 
ATOM     69  N   UNL     1      30.541  34.776  13.343  1.00  0.00    -0.067 NA
BRANCH  68  70
ATOM     70  C   UNL     1      31.141  32.912  14.844  1.00  0.00     0.185 C 
BRANCH  70  71
ATOM     71  C   UNL     1      31.208  33.175  16.285  1.00  0.00     0.016 A 
ATOM     72  C   UNL     1      31.923  34.201  16.798  1.00  0.00     0.135 A 
ATOM     73  C   UNL     1      30.480  32.319  17.117  1.00  0.00     0.009 A 
ATOM     74  C   UNL     1      31.927  34.397  18.180  1.00  0.00     0.047 A 
ATOM     75  C   UNL     1      30.491  32.521  18.473  1.00  0.00     0.001 A 
ATOM     76  C   UNL     1      31.213  33.560  19.015  1.00  0.00     0.004 A 
BRANCH  72  77
ATOM     77  O   UNL     1      32.658  35.070  16.018  1.00  0.00    -0.426 OA
BRANCH  77  78
ATOM     78  C   UNL     1      32.355  36.434  16.094  1.00  0.00     0.308 C 
ATOM     79  O   UNL     1      31.191  36.806  15.828  1.00  0.00    -0.252 OA
ATOM     80  C   UNL     1      33.393  37.393  16.481  1.00  0.00     0.139 C 
ENDBRANCH  77  78
ENDBRANCH  72  77
ENDBRANCH  70  71
ENDBRANCH  68  70
ENDBRANCH  64  65
ENDBRANCH  63  64
ENDBRANCH  60  63
ENDBRANCH  58  59
ENDBRANCH  55  58
ENDBRANCH   1  55
TORSDOF 33
BEGIN_RES LYS A 131
REMARK  4 active torsions:
REMARK  status: ('A' for Active; 'I' for Inactive)
REMARK    1  A    between atoms: CA   and  CB  
REMARK    2  A    between atoms: CB   and  CG  
REMARK    3  A    between atoms: CG   and  CD  
REMARK    4  A    between atoms: CD   and  CE  
ROOT
ATOM      1  CA  LYS A 131      29.867  25.555  16.977  1.00 20.52     0.186 C 
ENDROOT
BRANCH   1   2
ATOM      2  CB  LYS A 131      28.345  25.722  17.026  1.00 20.94     0.034 C 
BRANCH   2   3
ATOM      3  CG  LYS A 131      27.601  24.406  16.862  1.00 22.96     0.005 C 
BRANCH   3   4
ATOM      4  CD  LYS A 131      26.143  24.532  17.209  1.00 24.33     0.041 C 
BRANCH   4   5
ATOM      5  CE  LYS A 131      25.565  23.150  17.493  1.00 26.91     0.338 C 
ATOM      6  NZ  LYS A 131      24.117  23.118  17.182  1.00 27.40     0.618 N 
ENDBRANCH   4   5
ENDBRANCH   3   4
ENDBRANCH   2   3
ENDBRANCH   1   2
END_RES LYS A 131
BEGIN_RES LYS A 135
REMARK  4 active torsions:
REMARK  status: ('A' for Active; 'I' for Inactive)
REMARK    5  A    between atoms: CA   and  CB  
REMARK    6  A    between atoms: CB   and  CG  
REMARK    7  A    between atoms: CG   and  CD  
REMARK    8  A    between atoms: CD   and  CE  
ROOT
ATOM      7  CA  LYS A 135      33.193  34.663   9.290  1.00 25.02     0.186 C 
ENDROOT
BRANCH   7   8
ATOM      8  CB  LYS A 135      32.060  35.360  10.034  1.00 26.63     0.034 C 
BRANCH   8   9
ATOM      9  CG  LYS A 135      30.700  34.779   9.742  1.00 29.45     0.005 C 
BRANCH   9  10
ATOM     10  CD  LYS A 135      30.487  34.642   8.242  1.00 32.00     0.041 C 
BRANCH  10  11
ATOM     11  CE  LYS A 135      29.041  34.927   7.882  1.00 34.25     0.338 C 
ATOM     12  NZ  LYS A 135      28.934  36.124   7.002  1.00 35.99     0.618 N 
ENDBRANCH  10  11
ENDBRANCH   9  10
ENDBRANCH   8   9
ENDBRANCH   7   8
END_RES LYS A 135
