REMARK VINA RESULT:    -4.680      3.047      6.396
REMARK INTER + INTRA:         -22.689
REMARK INTER:                 -13.829
REMARK INTRA:                  -8.860
REMARK UNBOUND:               -10.485
REMARK SMILES CC(=O)N[C@@H]1[C@@H](O)C[C@](OC[C@H]2O[C@@H](O[C@H]3[C@H](O)[C@@H](O)[C@H](OCCN=[N+]=[N-])O[C@@H]3CO)[C@H](O)[C@@H](O)[C@H]2O)(C(=O)O)O[C@H]1C(O)[C@H](O)CNC(=O)OCc1cn(CC(O)c2ccccc2)nn1
REMARK SMILES IDX 9 1 8 2 6 3 5 4 42 5 41 6 10 7 11 8 12 9 14 10 13 11 32 12
REMARK SMILES IDX 34 13 36 14 15 15 16 16 29 17 28 18 21 19 17 20 19 21 30 22
REMARK SMILES IDX 31 23 22 25 23 26 24 27 25 28 26 29 27 30 18 31 20 33 33 35
REMARK SMILES IDX 35 37 37 39 38 41 39 42 40 43 7 45 43 47 44 48 45 50 46 51
REMARK SMILES IDX 47 53 48 54 49 55 50 57 51 58 52 59 53 60 54 61 66 62 55 63
REMARK SMILES IDX 65 64 56 65 57 66 58 67 59 69 60 70 64 71 61 72 63 73 62 74
REMARK SMILES IDX 4 75 2 76 1 78 3 79
REMARK H PARENT 31 24 18 32 20 34 33 36 35 38 37 40 40 44 7 46 44 49 46 52
REMARK H PARENT 48 56 58 68 4 77
REMARK Flexibility Score: inf
ROOT
ATOM      1  C   UNL     1      21.159  35.997   9.260  1.00  0.00     0.272 C 
ATOM      2  C   UNL     1      20.635  37.246   9.863  1.00  0.00     0.113 C 
ATOM      3  C   UNL     1      21.092  37.570  11.242  1.00  0.00     0.145 C 
ATOM      4  C   UNL     1      21.720  36.356  11.849  1.00  0.00     0.142 C 
ATOM      5  C   UNL     1      20.898  35.153  11.421  1.00  0.00     0.178 C 
ATOM      6  O   UNL     1      20.902  34.897  10.085  1.00  0.00    -0.332 OA
ENDROOT
BRANCH   1   7
ATOM      7  O   UNL     1      22.484  35.953   8.944  1.00  0.00    -0.338 OA
BRANCH   7   8
ATOM      8  C   UNL     1      23.111  37.119   8.634  1.00  0.00     0.199 C 
BRANCH   8   9
ATOM      9  C   UNL     1      24.598  36.913   8.451  1.00  0.00     0.179 C 
ATOM     10  C   UNL     1      26.513  38.188   8.450  1.00  0.00     0.282 C 
ATOM     11  O   UNL     1      25.207  38.085   8.050  1.00  0.00    -0.341 OA
ATOM     12  C   UNL     1      26.718  38.246   9.948  1.00  0.00     0.202 C 
ATOM     13  C   UNL     1      25.652  37.390  10.597  1.00  0.00     0.179 C 
ATOM     14  C   UNL     1      25.301  36.294   9.612  1.00  0.00     0.177 C 
BRANCH  10  15
ATOM     15  O   UNL     1      27.122  39.334   7.951  1.00  0.00    -0.341 OA
BRANCH  15  16
ATOM     16  C   UNL     1      27.643  39.226   6.691  1.00  0.00     0.184 C 
ATOM     17  C   UNL     1      28.702  38.131   6.747  1.00  0.00     0.178 C 
ATOM     18  O   UNL     1      29.969  38.667   6.841  1.00  0.00    -0.341 OA
ATOM     19  C   UNL     1      29.961  39.608   7.887  1.00  0.00     0.281 C 
ATOM     20  C   UNL     1      28.258  40.578   6.351  1.00  0.00     0.180 C 
ATOM     21  C   UNL     1      29.397  40.899   7.305  1.00  0.00     0.202 C 
BRANCH  17  22
ATOM     22  C   UNL     1      28.571  37.193   5.560  1.00  0.00     0.191 C 
BRANCH  22  23
ATOM     23  O   UNL     1      27.653  37.674   4.632  1.00  0.00    -0.394 OA
ATOM     24  H   UNL     1      27.090  38.401   5.007  1.00  0.00     0.210 HD
ENDBRANCH  22  23
ENDBRANCH  17  22
BRANCH  19  25
ATOM     25  O   UNL     1      31.260  39.737   8.315  1.00  0.00    -0.350 OA
BRANCH  25  26
ATOM     26  C   UNL     1      31.589  39.012   9.435  1.00  0.00     0.169 C 
BRANCH  26  27
ATOM     27  C   UNL     1      31.152  39.638  10.730  1.00  0.00     0.119 C 
BRANCH  27  28
ATOM     28  N   UNL     1      30.613  38.608  11.624  1.00  0.00    -0.092 NA
ATOM     29  N   UNL     1      31.435  37.747  11.975  1.00  0.00     0.001 N 
ATOM     30  N   UNL     1      32.091  36.897  12.576  1.00  0.00    -0.003 NA
ENDBRANCH  27  28
ENDBRANCH  26  27
ENDBRANCH  25  26
ENDBRANCH  19  25
BRANCH  20  31
ATOM     31  O   UNL     1      28.709  40.583   5.039  1.00  0.00    -0.387 OA
ATOM     32  H   UNL     1      29.057  39.678   4.799  1.00  0.00     0.211 HD
ENDBRANCH  20  31
BRANCH  21  33
ATOM     33  O   UNL     1      28.990  41.789   8.282  1.00  0.00    -0.385 OA
ATOM     34  H   UNL     1      29.793  42.263   8.612  1.00  0.00     0.211 HD
ENDBRANCH  21  33
ENDBRANCH  15  16
ENDBRANCH  10  15
BRANCH  12  35
ATOM     35  O   UNL     1      27.978  37.716  10.245  1.00  0.00    -0.385 OA
ATOM     36  H   UNL     1      27.899  37.247  11.120  1.00  0.00     0.211 HD
ENDBRANCH  12  35
BRANCH  13  37
ATOM     37  O   UNL     1      24.564  38.229  10.822  1.00  0.00    -0.387 OA
ATOM     38  H   UNL     1      23.709  37.768  10.875  1.00  0.00     0.211 HD
ENDBRANCH  13  37
BRANCH  14  39
ATOM     39  O   UNL     1      24.635  35.229  10.170  1.00  0.00    -0.387 OA
ATOM     40  H   UNL     1      23.654  35.359  10.238  1.00  0.00     0.211 HD
ENDBRANCH  14  39
ENDBRANCH   8   9
ENDBRANCH   7   8
ENDBRANCH   1   7
BRANCH   1  41
ATOM     41  C   UNL     1      20.289  35.741   8.039  1.00  0.00     0.364 C 
ATOM     42  O   UNL     1      19.634  36.650   7.556  1.00  0.00    -0.246 OA
BRANCH  41  43
ATOM     43  O   UNL     1      20.302  34.449   7.546  1.00  0.00    -0.477 OA
ATOM     44  H   UNL     1      20.249  34.345   6.554  1.00  0.00     0.296 HD
ENDBRANCH  41  43
ENDBRANCH   1  41
BRANCH   3  45
ATOM     45  O   UNL     1      21.917  38.696  11.269  1.00  0.00    -0.391 OA
ATOM     46  H   UNL     1      21.776  39.158  10.396  1.00  0.00     0.211 HD
ENDBRANCH   3  45
BRANCH   5  47
ATOM     47  C   UNL     1      21.358  34.009  12.288  1.00  0.00     0.176 C 
BRANCH  47  48
ATOM     48  O   UNL     1      22.651  33.639  11.889  1.00  0.00    -0.388 OA
ATOM     49  H   UNL     1      22.545  33.074  11.074  1.00  0.00     0.211 HD
ENDBRANCH  47  48
BRANCH  47  50
ATOM     50  C   UNL     1      20.409  32.857  12.266  1.00  0.00     0.165 C 
BRANCH  50  51
ATOM     51  O   UNL     1      19.249  33.110  12.947  1.00  0.00    -0.388 OA
ATOM     52  H   UNL     1      18.782  32.327  13.277  1.00  0.00     0.211 HD
ENDBRANCH  50  51
BRANCH  50  53
ATOM     53  C   UNL     1      21.042  31.516  12.535  1.00  0.00     0.154 C 
BRANCH  53  54
ATOM     54  N   UNL     1      21.727  31.391  13.787  1.00  0.00    -0.319 N 
ATOM     55  C   UNL     1      23.105  31.055  13.930  1.00  0.00     0.407 C 
ATOM     56  H   UNL     1      21.188  31.565  14.695  1.00  0.00     0.167 HD
ATOM     57  O   UNL     1      23.816  30.853  12.930  1.00  0.00    -0.225 OA
BRANCH  55  58
ATOM     58  O   UNL     1      23.687  30.944  15.173  1.00  0.00    -0.443 OA
BRANCH  58  59
ATOM     59  C   UNL     1      24.137  29.705  15.720  1.00  0.00     0.294 C 
BRANCH  59  60
ATOM     60  C   UNL     1      25.568  29.838  16.142  1.00  0.00     0.120 A 
ATOM     61  C   UNL     1      26.622  30.432  15.498  1.00  0.00     0.138 A 
ATOM     62  N   UNL     1      26.050  29.365  17.312  1.00  0.00    -0.132 NA
ATOM     63  N   UNL     1      27.734  30.316  16.284  1.00  0.00    -0.249 N 
ATOM     64  N   UNL     1      27.323  29.670  17.351  1.00  0.00    -0.067 NA
BRANCH  63  65
ATOM     65  C   UNL     1      29.060  30.822  15.962  1.00  0.00     0.182 C 
BRANCH  65  66
ATOM     66  C   UNL     1      29.653  31.526  17.169  1.00  0.00     0.166 C 
BRANCH  66  67
ATOM     67  O   UNL     1      30.289  30.499  17.906  1.00  0.00    -0.386 OA
ATOM     68  H   UNL     1      30.671  29.824  17.280  1.00  0.00     0.211 HD
ENDBRANCH  66  67
BRANCH  66  69
ATOM     69  C   UNL     1      30.614  32.582  16.838  1.00  0.00    -0.018 A 
ATOM     70  C   UNL     1      30.991  33.549  17.719  1.00  0.00     0.006 A 
ATOM     71  C   UNL     1      31.120  32.549  15.530  1.00  0.00     0.006 A 
ATOM     72  C   UNL     1      31.894  34.511  17.296  1.00  0.00     0.000 A 
ATOM     73  C   UNL     1      32.010  33.511  15.137  1.00  0.00     0.000 A 
ATOM     74  C   UNL     1      32.402  34.499  16.018  1.00  0.00     0.000 A 
ENDBRANCH  66  69
ENDBRANCH  65  66
ENDBRANCH  63  65
ENDBRANCH  59  60
ENDBRANCH  58  59
ENDBRANCH  55  58
ENDBRANCH  53  54
ENDBRANCH  50  53
ENDBRANCH  47  50
ENDBRANCH   5  47
BRANCH   4  75
ATOM     75  N   UNL     1      21.590  36.397  13.315  1.00  0.00    -0.348 N 
ATOM     76  C   UNL     1      22.587  36.960  14.149  1.00  0.00     0.217 C 
ATOM     77  H   UNL     1      20.743  36.002  13.776  1.00  0.00     0.163 HD
ATOM     78  C   UNL     1      22.492  37.020  15.631  1.00  0.00     0.114 C 
ATOM     79  O   UNL     1      23.616  37.441  13.597  1.00  0.00    -0.275 OA
ENDBRANCH   4  75
TORSDOF 33
BEGIN_RES LYS A 131
REMARK  4 active torsions:
REMARK  status: ('A' for Active; 'I' for Inactive)
REMARK    1  A    between atoms: CA   and  CB  
REMARK    2  A    between atoms: CB   and  CG  
REMARK    3  A    between atoms: CG   and  CD  
REMARK    4  A    between atoms: CD   and  CE  
ROOT
ATOM      1  CA  LYS A 131      29.867  25.555  16.977  1.00 20.52     0.186 C 
ENDROOT
BRANCH   1   2
ATOM      2  CB  LYS A 131      28.345  25.722  17.026  1.00 20.94     0.034 C 
BRANCH   2   3
ATOM      3  CG  LYS A 131      27.601  24.404  16.877  1.00 22.96     0.005 C 
BRANCH   3   4
ATOM      4  CD  LYS A 131      26.539  24.231  17.927  1.00 24.33     0.041 C 
BRANCH   4   5
ATOM      5  CE  LYS A 131      25.162  24.368  17.286  1.00 26.91     0.338 C 
ATOM      6  NZ  LYS A 131      24.493  23.048  17.208  1.00 27.40     0.618 N 
ENDBRANCH   4   5
ENDBRANCH   3   4
ENDBRANCH   2   3
ENDBRANCH   1   2
END_RES LYS A 131
BEGIN_RES LYS A 135
REMARK  4 active torsions:
REMARK  status: ('A' for Active; 'I' for Inactive)
REMARK    5  A    between atoms: CA   and  CB  
REMARK    6  A    between atoms: CB   and  CG  
REMARK    7  A    between atoms: CG   and  CD  
REMARK    8  A    between atoms: CD   and  CE  
ROOT
ATOM      7  CA  LYS A 135      33.193  34.663   9.290  1.00 25.02     0.186 C 
ENDROOT
BRANCH   7   8
ATOM      8  CB  LYS A 135      32.060  35.360  10.034  1.00 26.63     0.034 C 
BRANCH   8   9
ATOM      9  CG  LYS A 135      30.807  35.519   9.212  1.00 29.45     0.005 C 
BRANCH   9  10
ATOM     10  CD  LYS A 135      30.064  34.197   9.104  1.00 32.00     0.041 C 
BRANCH  10  11
ATOM     11  CE  LYS A 135      28.625  34.427   8.686  1.00 34.25     0.338 C 
ATOM     12  NZ  LYS A 135      27.686  33.655   9.546  1.00 35.99     0.618 N 
ENDBRANCH  10  11
ENDBRANCH   9  10
ENDBRANCH   8   9
ENDBRANCH   7   8
END_RES LYS A 135
