REMARK VINA RESULT:    -4.211      2.244      4.743
REMARK INTER + INTRA:         -22.462
REMARK INTER:                 -10.964
REMARK INTRA:                 -11.498
REMARK UNBOUND:               -11.851
REMARK SMILES CC(=O)N[C@@H]1[C@@H](O)C[C@](OC[C@H]2O[C@@H](O[C@H]3[C@H](O)[C@@H](O)[C@H](OCCN=[N+]=[N-])O[C@@H]3CO)[C@H](O)[C@@H](O)[C@H]2O)(C(=O)O)O[C@H]1C(O)[C@H](O)CNC(=O)OCc1cn(Cc2ccccc2)nn1
REMARK SMILES IDX 9 1 8 2 6 3 5 4 42 5 41 6 10 7 11 8 12 9 14 10 13 11 32 12
REMARK SMILES IDX 34 13 36 14 15 15 16 16 29 17 28 18 21 19 17 20 19 21 30 22
REMARK SMILES IDX 31 23 22 25 23 26 24 27 25 28 26 29 27 30 18 31 20 33 33 35
REMARK SMILES IDX 35 37 37 39 38 41 39 42 40 43 7 45 43 47 44 48 45 50 46 51
REMARK SMILES IDX 47 53 48 54 49 55 50 57 51 58 52 59 53 60 54 61 64 62 55 63
REMARK SMILES IDX 63 64 56 65 57 66 58 67 62 68 59 69 61 70 60 71 4 72 2 73
REMARK SMILES IDX 1 75 3 76
REMARK H PARENT 31 24 18 32 20 34 33 36 35 38 37 40 40 44 7 46 44 49 46 52
REMARK H PARENT 48 56 4 74
REMARK Flexibility Score: inf
ROOT
ATOM      1  C   UNL     1      32.102  35.987  15.001  1.00  0.00     0.272 C 
ATOM      2  C   UNL     1      32.982  36.848  15.829  1.00  0.00     0.113 C 
ATOM      3  C   UNL     1      32.161  37.844  16.553  1.00  0.00     0.145 C 
ATOM      4  C   UNL     1      30.669  37.815  16.185  1.00  0.00     0.142 C 
ATOM      5  C   UNL     1      30.481  37.653  14.736  1.00  0.00     0.178 C 
ATOM      6  O   UNL     1      31.433  36.836  14.100  1.00  0.00    -0.332 OA
ENDROOT
BRANCH   1   7
ATOM      7  O   UNL     1      31.216  35.181  15.687  1.00  0.00    -0.338 OA
BRANCH   7   8
ATOM      8  C   UNL     1      31.907  34.291  16.492  1.00  0.00     0.199 C 
BRANCH   8   9
ATOM      9  C   UNL     1      31.063  33.102  16.891  1.00  0.00     0.179 C 
ATOM     10  C   UNL     1      28.865  32.613  17.503  1.00  0.00     0.282 C 
ATOM     11  O   UNL     1      29.968  33.458  17.645  1.00  0.00    -0.341 OA
ATOM     12  C   UNL     1      29.237  31.181  17.399  1.00  0.00     0.202 C 
ATOM     13  C   UNL     1      30.072  30.944  16.181  1.00  0.00     0.179 C 
ATOM     14  C   UNL     1      30.707  32.233  15.715  1.00  0.00     0.177 C 
BRANCH  10  15
ATOM     15  O   UNL     1      28.074  32.997  16.433  1.00  0.00    -0.341 OA
BRANCH  15  16
ATOM     16  C   UNL     1      26.901  33.642  16.807  1.00  0.00     0.184 C 
ATOM     17  C   UNL     1      25.746  33.104  16.048  1.00  0.00     0.178 C 
ATOM     18  O   UNL     1      24.606  33.837  16.444  1.00  0.00    -0.341 OA
ATOM     19  C   UNL     1      24.705  35.064  15.757  1.00  0.00     0.281 C 
ATOM     20  C   UNL     1      27.108  35.105  16.382  1.00  0.00     0.180 C 
ATOM     21  C   UNL     1      25.835  35.885  16.360  1.00  0.00     0.202 C 
BRANCH  17  22
ATOM     22  C   UNL     1      25.509  31.622  16.320  1.00  0.00     0.191 C 
BRANCH  22  23
ATOM     23  O   UNL     1      26.355  30.909  15.442  1.00  0.00    -0.394 OA
ATOM     24  H   UNL     1      26.661  30.090  15.898  1.00  0.00     0.210 HD
ENDBRANCH  22  23
ENDBRANCH  17  22
BRANCH  19  25
ATOM     25  O   UNL     1      23.517  35.741  15.871  1.00  0.00    -0.350 OA
BRANCH  25  26
ATOM     26  C   UNL     1      23.172  35.868  17.203  1.00  0.00     0.169 C 
BRANCH  26  27
ATOM     27  C   UNL     1      22.645  37.215  17.595  1.00  0.00     0.119 C 
BRANCH  27  28
ATOM     28  N   UNL     1      23.139  38.163  16.584  1.00  0.00    -0.092 NA
ATOM     29  N   UNL     1      22.389  39.089  16.281  1.00  0.00     0.001 N 
ATOM     30  N   UNL     1      21.967  40.186  15.888  1.00  0.00    -0.003 NA
ENDBRANCH  27  28
ENDBRANCH  26  27
ENDBRANCH  25  26
ENDBRANCH  19  25
BRANCH  20  31
ATOM     31  O   UNL     1      27.949  35.647  17.375  1.00  0.00    -0.387 OA
ATOM     32  H   UNL     1      27.898  35.136  18.226  1.00  0.00     0.211 HD
ENDBRANCH  20  31
BRANCH  21  33
ATOM     33  O   UNL     1      26.000  37.016  15.561  1.00  0.00    -0.385 OA
ATOM     34  H   UNL     1      26.939  37.347  15.555  1.00  0.00     0.211 HD
ENDBRANCH  21  33
ENDBRANCH  15  16
ENDBRANCH  10  15
BRANCH  12  35
ATOM     35  O   UNL     1      29.870  30.708  18.562  1.00  0.00    -0.385 OA
ATOM     36  H   UNL     1      30.737  31.185  18.613  1.00  0.00     0.211 HD
ENDBRANCH  12  35
BRANCH  13  37
ATOM     37  O   UNL     1      29.267  30.409  15.182  1.00  0.00    -0.387 OA
ATOM     38  H   UNL     1      29.763  29.779  14.592  1.00  0.00     0.211 HD
ENDBRANCH  13  37
BRANCH  14  39
ATOM     39  O   UNL     1      30.024  32.861  14.710  1.00  0.00    -0.387 OA
ATOM     40  H   UNL     1      29.303  32.361  14.278  1.00  0.00     0.211 HD
ENDBRANCH  14  39
ENDBRANCH   8   9
ENDBRANCH   7   8
ENDBRANCH   1   7
BRANCH   1  41
ATOM     41  C   UNL     1      32.885  35.096  14.078  1.00  0.00     0.364 C 
ATOM     42  O   UNL     1      34.075  34.877  14.309  1.00  0.00    -0.246 OA
BRANCH  41  43
ATOM     43  O   UNL     1      32.269  34.530  12.984  1.00  0.00    -0.477 OA
ATOM     44  H   UNL     1      31.808  33.619  13.023  1.00  0.00     0.296 HD
ENDBRANCH  41  43
ENDBRANCH   1  41
BRANCH   3  45
ATOM     45  O   UNL     1      32.201  37.715  17.955  1.00  0.00    -0.391 OA
ATOM     46  H   UNL     1      33.073  37.462  18.292  1.00  0.00     0.211 HD
ENDBRANCH   3  45
BRANCH   5  47
ATOM     47  C   UNL     1      29.177  37.221  14.207  1.00  0.00     0.176 C 
BRANCH  47  48
ATOM     48  O   UNL     1      28.188  38.181  14.204  1.00  0.00    -0.388 OA
ATOM     49  H   UNL     1      27.821  38.404  15.086  1.00  0.00     0.211 HD
ENDBRANCH  47  48
BRANCH  47  50
ATOM     50  C   UNL     1      29.149  36.474  12.905  1.00  0.00     0.165 C 
BRANCH  50  51
ATOM     51  O   UNL     1      29.460  37.233  11.819  1.00  0.00    -0.388 OA
ATOM     52  H   UNL     1      29.241  38.181  11.905  1.00  0.00     0.211 HD
ENDBRANCH  50  51
BRANCH  50  53
ATOM     53  C   UNL     1      27.975  35.547  12.794  1.00  0.00     0.154 C 
BRANCH  53  54
ATOM     54  N   UNL     1      27.092  35.829  11.693  1.00  0.00    -0.319 N 
ATOM     55  C   UNL     1      25.987  36.740  11.743  1.00  0.00     0.407 C 
ATOM     56  H   UNL     1      27.210  35.365  10.742  1.00  0.00     0.167 HD
ATOM     57  O   UNL     1      25.739  37.347  12.810  1.00  0.00    -0.225 OA
BRANCH  55  58
ATOM     58  O   UNL     1      25.182  36.963  10.641  1.00  0.00    -0.443 OA
BRANCH  58  59
ATOM     59  C   UNL     1      24.625  35.866   9.958  1.00  0.00     0.294 C 
BRANCH  59  60
ATOM     60  C   UNL     1      23.521  35.257  10.730  1.00  0.00     0.120 A 
ATOM     61  C   UNL     1      23.710  34.460  11.867  1.00  0.00     0.138 A 
ATOM     62  N   UNL     1      22.195  35.307  10.560  1.00  0.00    -0.132 NA
ATOM     63  N   UNL     1      22.506  34.076  12.320  1.00  0.00    -0.248 N 
ATOM     64  N   UNL     1      21.610  34.589  11.530  1.00  0.00    -0.067 NA
BRANCH  63  65
ATOM     65  C   UNL     1      22.278  33.247  13.483  1.00  0.00     0.181 C 
BRANCH  65  66
ATOM     66  C   UNL     1      22.434  31.820  13.109  1.00  0.00    -0.026 A 
ATOM     67  C   UNL     1      21.371  31.062  12.650  1.00  0.00     0.005 A 
ATOM     68  C   UNL     1      23.686  31.235  13.223  1.00  0.00     0.005 A 
ATOM     69  C   UNL     1      21.568  29.733  12.314  1.00  0.00     0.000 A 
ATOM     70  C   UNL     1      23.871  29.908  12.884  1.00  0.00     0.000 A 
ATOM     71  C   UNL     1      22.812  29.165  12.431  1.00  0.00     0.000 A 
ENDBRANCH  65  66
ENDBRANCH  63  65
ENDBRANCH  59  60
ENDBRANCH  58  59
ENDBRANCH  55  58
ENDBRANCH  53  54
ENDBRANCH  50  53
ENDBRANCH  47  50
ENDBRANCH   5  47
BRANCH   4  72
ATOM     72  N   UNL     1      30.254  39.169  16.603  1.00  0.00    -0.348 N 
ATOM     73  C   UNL     1      28.982  39.455  17.148  1.00  0.00     0.217 C 
ATOM     74  H   UNL     1      30.926  39.960  16.490  1.00  0.00     0.163 HD
ATOM     75  C   UNL     1      28.589  40.836  17.557  1.00  0.00     0.114 C 
ATOM     76  O   UNL     1      28.167  38.511  17.291  1.00  0.00    -0.275 OA
ENDBRANCH   4  72
TORSDOF 31
BEGIN_RES LYS A 131
REMARK  4 active torsions:
REMARK  status: ('A' for Active; 'I' for Inactive)
REMARK    1  A    between atoms: CA   and  CB  
REMARK    2  A    between atoms: CB   and  CG  
REMARK    3  A    between atoms: CG   and  CD  
REMARK    4  A    between atoms: CD   and  CE  
ROOT
ATOM      1  CA  LYS A 131      29.867  25.555  16.977  1.00 20.52     0.186 C 
ENDROOT
BRANCH   1   2
ATOM      2  CB  LYS A 131      28.345  25.722  17.026  1.00 20.94     0.034 C 
BRANCH   2   3
ATOM      3  CG  LYS A 131      27.602  24.399  16.923  1.00 22.96     0.005 C 
BRANCH   3   4
ATOM      4  CD  LYS A 131      26.151  24.534  17.295  1.00 24.33     0.041 C 
BRANCH   4   5
ATOM      5  CE  LYS A 131      26.023  25.405  18.540  1.00 26.91     0.338 C 
ATOM      6  NZ  LYS A 131      24.790  26.224  18.477  1.00 27.40     0.618 N 
ENDBRANCH   4   5
ENDBRANCH   3   4
ENDBRANCH   2   3
ENDBRANCH   1   2
END_RES LYS A 131
BEGIN_RES LYS A 135
REMARK  4 active torsions:
REMARK  status: ('A' for Active; 'I' for Inactive)
REMARK    5  A    between atoms: CA   and  CB  
REMARK    6  A    between atoms: CB   and  CG  
REMARK    7  A    between atoms: CG   and  CD  
REMARK    8  A    between atoms: CD   and  CE  
ROOT
ATOM      7  CA  LYS A 135      33.193  34.663   9.290  1.00 25.02     0.186 C 
ENDROOT
BRANCH   7   8
ATOM      8  CB  LYS A 135      32.060  35.360  10.034  1.00 26.63     0.034 C 
BRANCH   8   9
ATOM      9  CG  LYS A 135      30.698  34.793   9.726  1.00 29.45     0.005 C 
BRANCH   9  10
ATOM     10  CD  LYS A 135      30.586  34.438   8.251  1.00 32.00     0.041 C 
BRANCH  10  11
ATOM     11  CE  LYS A 135      29.398  35.141   7.623  1.00 34.25     0.338 C 
ATOM     12  NZ  LYS A 135      28.243  35.186   8.562  1.00 35.99     0.618 N 
ENDBRANCH  10  11
ENDBRANCH   9  10
ENDBRANCH   8   9
ENDBRANCH   7   8
END_RES LYS A 135
