REMARK VINA RESULT:    -4.316      6.612     11.966
REMARK INTER + INTRA:         -22.192
REMARK INTER:                  -8.927
REMARK INTRA:                 -13.265
REMARK UNBOUND:               -11.064
REMARK SMILES CC(=O)N[C@@H]1[C@@H](O)C[C@](OC[C@H]2O[C@@H](O[C@H]3[C@H](O)[C@@H](O)[C@H](OCCN=[N+]=[N-])O[C@@H]3CO)[C@H](O)[C@@H](O)[C@H]2O)(C(=O)O)O[C@H]1C(O)[C@H](O)CNC(=O)OCc1cn(CC(=O)Nc2ncccn2)nn1
REMARK SMILES IDX 9 1 8 2 6 3 5 4 42 5 41 6 10 7 11 8 12 9 14 10 13 11 32 12
REMARK SMILES IDX 34 13 36 14 15 15 16 16 29 17 28 18 21 19 17 20 19 21 30 22
REMARK SMILES IDX 31 23 22 25 23 26 24 27 25 28 26 29 27 30 18 31 20 33 33 35
REMARK SMILES IDX 35 37 37 39 38 41 39 42 40 43 7 45 43 47 44 48 45 50 46 51
REMARK SMILES IDX 47 53 48 54 49 55 50 57 51 58 52 59 53 60 54 61 67 62 55 63
REMARK SMILES IDX 66 64 56 65 57 66 58 67 59 68 60 70 61 71 65 72 62 73 64 74
REMARK SMILES IDX 63 75 4 76 2 77 1 79 3 80
REMARK H PARENT 31 24 18 32 20 34 33 36 35 38 37 40 40 44 7 46 44 49 46 52
REMARK H PARENT 48 56 59 69 4 78
REMARK Flexibility Score: inf
ROOT
ATOM      1  C   UNL     1      29.452  33.090  15.663  1.00  0.00     0.272 C 
ATOM      2  C   UNL     1      30.694  32.988  14.793  1.00  0.00     0.113 C 
ATOM      3  C   UNL     1      31.543  34.183  14.947  1.00  0.00     0.145 C 
ATOM      4  C   UNL     1      31.766  34.653  16.376  1.00  0.00     0.142 C 
ATOM      5  C   UNL     1      30.678  34.300  17.286  1.00  0.00     0.178 C 
ATOM      6  O   UNL     1      30.078  33.090  16.966  1.00  0.00    -0.332 OA
ENDROOT
BRANCH   1   7
ATOM      7  O   UNL     1      28.775  31.951  15.581  1.00  0.00    -0.338 OA
BRANCH   7   8
ATOM      8  C   UNL     1      28.924  30.709  15.808  1.00  0.00     0.199 C 
BRANCH   8   9
ATOM      9  C   UNL     1      28.262  29.869  16.849  1.00  0.00     0.179 C 
ATOM     10  C   UNL     1      28.173  29.751  19.180  1.00  0.00     0.282 C 
ATOM     11  O   UNL     1      28.789  30.348  18.125  1.00  0.00    -0.341 OA
ATOM     12  C   UNL     1      26.784  30.427  19.419  1.00  0.00     0.202 C 
ATOM     13  C   UNL     1      26.525  31.108  18.090  1.00  0.00     0.179 C 
ATOM     14  C   UNL     1      26.796  30.013  17.033  1.00  0.00     0.177 C 
BRANCH  10  15
ATOM     15  O   UNL     1      28.928  29.959  20.341  1.00  0.00    -0.341 OA
BRANCH  15  16
ATOM     16  C   UNL     1      29.819  28.923  20.594  1.00  0.00     0.184 C 
ATOM     17  C   UNL     1      29.622  28.488  22.052  1.00  0.00     0.178 C 
ATOM     18  O   UNL     1      30.829  28.470  22.736  1.00  0.00    -0.341 OA
ATOM     19  C   UNL     1      31.386  29.755  22.813  1.00  0.00     0.281 C 
ATOM     20  C   UNL     1      31.210  29.362  20.327  1.00  0.00     0.180 C 
ATOM     21  C   UNL     1      31.915  30.071  21.443  1.00  0.00     0.202 C 
BRANCH  17  22
ATOM     22  C   UNL     1      29.069  27.074  22.092  1.00  0.00     0.191 C 
BRANCH  22  23
ATOM     23  O   UNL     1      28.039  26.914  21.164  1.00  0.00    -0.394 OA
ATOM     24  H   UNL     1      28.216  26.164  20.534  1.00  0.00     0.210 HD
ENDBRANCH  22  23
ENDBRANCH  17  22
BRANCH  19  25
ATOM     25  O   UNL     1      32.417  29.664  23.728  1.00  0.00    -0.350 OA
BRANCH  25  26
ATOM     26  C   UNL     1      32.424  30.678  24.663  1.00  0.00     0.169 C 
BRANCH  26  27
ATOM     27  C   UNL     1      31.085  30.915  25.328  1.00  0.00     0.119 C 
BRANCH  27  28
ATOM     28  N   UNL     1      30.654  32.297  25.193  1.00  0.00    -0.092 NA
ATOM     29  N   UNL     1      30.136  32.721  24.155  1.00  0.00     0.001 N 
ATOM     30  N   UNL     1      29.772  32.987  23.015  1.00  0.00    -0.003 NA
ENDBRANCH  27  28
ENDBRANCH  26  27
ENDBRANCH  25  26
ENDBRANCH  19  25
BRANCH  20  31
ATOM     31  O   UNL     1      32.004  28.216  20.044  1.00  0.00    -0.387 OA
ATOM     32  H   UNL     1      32.742  28.155  20.717  1.00  0.00     0.211 HD
ENDBRANCH  20  31
BRANCH  21  33
ATOM     33  O   UNL     1      31.838  31.442  21.219  1.00  0.00    -0.385 OA
ATOM     34  H   UNL     1      31.692  31.614  20.259  1.00  0.00     0.211 HD
ENDBRANCH  21  33
ENDBRANCH  15  16
ENDBRANCH  10  15
BRANCH  12  35
ATOM     35  O   UNL     1      25.828  29.409  19.517  1.00  0.00    -0.385 OA
ATOM     36  H   UNL     1      24.991  29.777  19.123  1.00  0.00     0.211 HD
ENDBRANCH  12  35
BRANCH  13  37
ATOM     37  O   UNL     1      27.272  32.238  17.894  1.00  0.00    -0.387 OA
ATOM     38  H   UNL     1      28.236  32.078  17.865  1.00  0.00     0.211 HD
ENDBRANCH  13  37
BRANCH  14  39
ATOM     39  O   UNL     1      25.986  30.242  15.978  1.00  0.00    -0.387 OA
ATOM     40  H   UNL     1      26.478  30.265  15.121  1.00  0.00     0.211 HD
ENDBRANCH  14  39
ENDBRANCH   8   9
ENDBRANCH   7   8
ENDBRANCH   1   7
BRANCH   1  41
ATOM     41  C   UNL     1      28.679  34.306  15.527  1.00  0.00     0.364 C 
ATOM     42  O   UNL     1      27.809  34.611  16.413  1.00  0.00    -0.246 OA
BRANCH  41  43
ATOM     43  O   UNL     1      28.780  35.207  14.494  1.00  0.00    -0.477 OA
ATOM     44  H   UNL     1      29.620  35.606  14.151  1.00  0.00     0.296 HD
ENDBRANCH  41  43
ENDBRANCH   1  41
BRANCH   3  45
ATOM     45  O   UNL     1      32.795  33.876  14.357  1.00  0.00    -0.391 OA
ATOM     46  H   UNL     1      32.885  32.877  14.298  1.00  0.00     0.211 HD
ENDBRANCH   3  45
BRANCH   5  47
ATOM     47  C   UNL     1      31.101  34.116  18.767  1.00  0.00     0.176 C 
BRANCH  47  48
ATOM     48  O   UNL     1      32.346  34.516  19.068  1.00  0.00    -0.388 OA
ATOM     49  H   UNL     1      32.448  35.487  19.274  1.00  0.00     0.211 HD
ENDBRANCH  47  48
BRANCH  47  50
ATOM     50  C   UNL     1      30.036  34.189  19.748  1.00  0.00     0.165 C 
BRANCH  50  51
ATOM     51  O   UNL     1      29.571  32.769  19.858  1.00  0.00    -0.388 OA
ATOM     52  H   UNL     1      28.632  32.748  19.614  1.00  0.00     0.211 HD
ENDBRANCH  50  51
BRANCH  50  53
ATOM     53  C   UNL     1      28.835  34.994  19.668  1.00  0.00     0.154 C 
BRANCH  53  54
ATOM     54  N   UNL     1      27.514  34.574  19.581  1.00  0.00    -0.319 N 
ATOM     55  C   UNL     1      26.419  34.550  20.469  1.00  0.00     0.407 C 
ATOM     56  H   UNL     1      27.258  34.156  18.576  1.00  0.00     0.167 HD
ATOM     57  O   UNL     1      26.528  34.965  21.638  1.00  0.00    -0.225 OA
BRANCH  55  58
ATOM     58  O   UNL     1      25.192  34.076  20.081  1.00  0.00    -0.443 OA
BRANCH  58  59
ATOM     59  C   UNL     1      24.113  33.731  20.827  1.00  0.00     0.294 C 
BRANCH  59  60
ATOM     60  C   UNL     1      24.133  32.335  21.320  1.00  0.00     0.120 A 
ATOM     61  C   UNL     1      24.907  31.838  22.378  1.00  0.00     0.138 A 
ATOM     62  N   UNL     1      23.489  31.230  20.852  1.00  0.00    -0.132 NA
ATOM     63  N   UNL     1      24.722  30.520  22.510  1.00  0.00    -0.243 N 
ATOM     64  N   UNL     1      23.857  30.191  21.567  1.00  0.00    -0.067 NA
BRANCH  63  65
ATOM     65  C   UNL     1      25.310  29.594  23.458  1.00  0.00     0.246 C 
BRANCH  65  66
ATOM     66  C   UNL     1      24.757  28.218  23.153  1.00  0.00     0.248 C 
ATOM     67  O   UNL     1      24.009  27.612  23.958  1.00  0.00    -0.272 OA
ATOM     68  N   UNL     1      25.081  27.581  21.929  1.00  0.00    -0.293 N 
ATOM     69  H   UNL     1      25.710  28.134  21.294  1.00  0.00     0.173 HD
BRANCH  68  70
ATOM     70  C   UNL     1      24.632  26.313  21.504  1.00  0.00     0.229 A 
ATOM     71  N   UNL     1      23.454  26.085  20.896  1.00  0.00    -0.221 NA
ATOM     72  N   UNL     1      25.433  25.252  21.727  1.00  0.00    -0.221 NA
ATOM     73  C   UNL     1      23.052  24.839  20.509  1.00  0.00     0.117 A 
ATOM     74  C   UNL     1      25.092  24.013  21.369  1.00  0.00     0.117 A 
ATOM     75  C   UNL     1      23.894  23.775  20.752  1.00  0.00     0.040 A 
ENDBRANCH  68  70
ENDBRANCH  65  66
ENDBRANCH  63  65
ENDBRANCH  59  60
ENDBRANCH  58  59
ENDBRANCH  55  58
ENDBRANCH  53  54
ENDBRANCH  50  53
ENDBRANCH  47  50
ENDBRANCH   5  47
BRANCH   4  76
ATOM     76  N   UNL     1      32.130  36.035  16.280  1.00  0.00    -0.348 N 
ATOM     77  C   UNL     1      33.431  36.500  16.706  1.00  0.00     0.217 C 
ATOM     78  H   UNL     1      31.471  36.763  15.898  1.00  0.00     0.163 HD
ATOM     79  C   UNL     1      33.743  37.939  16.574  1.00  0.00     0.114 C 
ATOM     80  O   UNL     1      34.261  35.695  17.176  1.00  0.00    -0.275 OA
ENDBRANCH   4  76
TORSDOF 32
BEGIN_RES LYS A 131
REMARK  4 active torsions:
REMARK  status: ('A' for Active; 'I' for Inactive)
REMARK    1  A    between atoms: CA   and  CB  
REMARK    2  A    between atoms: CB   and  CG  
REMARK    3  A    between atoms: CG   and  CD  
REMARK    4  A    between atoms: CD   and  CE  
ROOT
ATOM      1  CA  LYS A 131      29.867  25.555  16.977  1.00 20.52     0.186 C 
ENDROOT
BRANCH   1   2
ATOM      2  CB  LYS A 131      28.345  25.722  17.026  1.00 20.94     0.034 C 
BRANCH   2   3
ATOM      3  CG  LYS A 131      27.602  24.399  16.923  1.00 22.96     0.005 C 
BRANCH   3   4
ATOM      4  CD  LYS A 131      26.188  24.503  17.424  1.00 24.33     0.041 C 
BRANCH   4   5
ATOM      5  CE  LYS A 131      26.000  25.833  18.146  1.00 26.91     0.338 C 
ATOM      6  NZ  LYS A 131      24.789  26.527  17.649  1.00 27.40     0.618 N 
ENDBRANCH   4   5
ENDBRANCH   3   4
ENDBRANCH   2   3
ENDBRANCH   1   2
END_RES LYS A 131
BEGIN_RES LYS A 135
REMARK  4 active torsions:
REMARK  status: ('A' for Active; 'I' for Inactive)
REMARK    5  A    between atoms: CA   and  CB  
REMARK    6  A    between atoms: CB   and  CG  
REMARK    7  A    between atoms: CG   and  CD  
REMARK    8  A    between atoms: CD   and  CE  
ROOT
ATOM      7  CA  LYS A 135      33.193  34.663   9.290  1.00 25.02     0.186 C 
ENDROOT
BRANCH   7   8
ATOM      8  CB  LYS A 135      32.060  35.360  10.034  1.00 26.63     0.034 C 
BRANCH   8   9
ATOM      9  CG  LYS A 135      30.789  35.469   9.231  1.00 29.45     0.005 C 
BRANCH   9  10
ATOM     10  CD  LYS A 135      30.192  34.093   8.982  1.00 32.00     0.041 C 
BRANCH  10  11
ATOM     11  CE  LYS A 135      28.720  34.077   9.346  1.00 34.25     0.338 C 
ATOM     12  NZ  LYS A 135      28.518  34.435  10.777  1.00 35.99     0.618 N 
ENDBRANCH  10  11
ENDBRANCH   9  10
ENDBRANCH   8   9
ENDBRANCH   7   8
END_RES LYS A 135
