REMARK VINA RESULT:    -5.741      2.883      8.830
REMARK INTER + INTRA:         -24.219
REMARK INTER:                 -14.303
REMARK INTRA:                  -9.917
REMARK UNBOUND:                -9.416
REMARK SMILES CC(=O)N[C@@H]1[C@@H](O)C[C@](OC[C@H]2O[C@@H](O[C@H]3[C@H](O)[C@@H](O)[C@H](OCCN=[N+]=[N-])O[C@@H]3CO)[C@H](O)[C@@H](O)[C@H]2O)(C(=O)O)O[C@H]1C(O)[C@H](O)CNC(=O)OCc1cn(C(C)(C)C(=O)c2c[nH]c3ccccc23)nn1
REMARK SMILES IDX 9 1 8 2 6 3 5 4 42 5 41 6 10 7 11 8 12 9 14 10 13 11 32 12
REMARK SMILES IDX 34 13 36 14 15 15 16 16 29 17 28 18 21 19 17 20 19 21 30 22
REMARK SMILES IDX 31 23 22 25 23 26 24 27 25 28 26 29 27 30 18 31 20 33 33 35
REMARK SMILES IDX 35 37 37 39 38 41 39 42 40 43 7 45 43 47 44 48 45 50 46 51
REMARK SMILES IDX 47 53 48 54 49 55 50 57 51 58 52 59 53 60 54 61 71 62 55 63
REMARK SMILES IDX 70 64 56 65 57 66 58 67 59 68 60 69 61 70 62 71 69 72 63 73
REMARK SMILES IDX 64 74 68 75 65 77 67 78 66 79 4 80 2 81 1 83 3 84
REMARK H PARENT 31 24 18 32 20 34 33 36 35 38 37 40 40 44 7 46 44 49 46 52
REMARK H PARENT 48 56 63 76 4 82
REMARK Flexibility Score: inf
ROOT
ATOM      1  C   UNL     1      25.885  38.652   8.459  1.00  0.00     0.272 C 
ATOM      2  C   UNL     1      25.636  40.149   8.384  1.00  0.00     0.113 C 
ATOM      3  C   UNL     1      25.132  40.565   7.025  1.00  0.00     0.145 C 
ATOM      4  C   UNL     1      26.292  40.366   5.988  1.00  0.00     0.142 C 
ATOM      5  C   UNL     1      27.002  39.131   6.439  1.00  0.00     0.178 C 
ATOM      6  O   UNL     1      26.152  38.297   7.134  1.00  0.00    -0.332 OA
ENDROOT
BRANCH   1   7
ATOM      7  O   UNL     1      24.928  37.897   9.005  1.00  0.00    -0.338 OA
BRANCH   7   8
ATOM      8  C   UNL     1      23.648  37.796   8.879  1.00  0.00     0.199 C 
BRANCH   8   9
ATOM      9  C   UNL     1      23.162  36.513   8.201  1.00  0.00     0.179 C 
ATOM     10  C   UNL     1      22.557  35.223  10.098  1.00  0.00     0.282 C 
ATOM     11  O   UNL     1      23.325  35.439   9.008  1.00  0.00    -0.341 OA
ATOM     12  C   UNL     1      21.089  35.466   9.875  1.00  0.00     0.202 C 
ATOM     13  C   UNL     1      20.821  35.684   8.391  1.00  0.00     0.179 C 
ATOM     14  C   UNL     1      21.725  36.696   7.797  1.00  0.00     0.177 C 
BRANCH  10  15
ATOM     15  O   UNL     1      22.982  36.005  11.157  1.00  0.00    -0.341 OA
BRANCH  15  16
ATOM     16  C   UNL     1      23.718  35.324  12.084  1.00  0.00     0.184 C 
ATOM     17  C   UNL     1      23.291  35.410  13.504  1.00  0.00     0.178 C 
ATOM     18  O   UNL     1      23.884  34.316  14.167  1.00  0.00    -0.341 OA
ATOM     19  C   UNL     1      25.248  34.345  14.166  1.00  0.00     0.281 C 
ATOM     20  C   UNL     1      25.195  35.660  12.037  1.00  0.00     0.180 C 
ATOM     21  C   UNL     1      25.885  34.556  12.809  1.00  0.00     0.202 C 
BRANCH  17  22
ATOM     22  C   UNL     1      21.800  35.251  13.724  1.00  0.00     0.191 C 
BRANCH  22  23
ATOM     23  O   UNL     1      21.366  36.372  14.442  1.00  0.00    -0.394 OA
ATOM     24  H   UNL     1      22.112  36.919  14.780  1.00  0.00     0.210 HD
ENDBRANCH  22  23
ENDBRANCH  17  22
BRANCH  19  25
ATOM     25  O   UNL     1      25.700  33.097  14.608  1.00  0.00    -0.350 OA
BRANCH  25  26
ATOM     26  C   UNL     1      24.875  32.121  14.079  1.00  0.00     0.169 C 
BRANCH  26  27
ATOM     27  C   UNL     1      25.143  30.760  14.663  1.00  0.00     0.119 C 
BRANCH  27  28
ATOM     28  N   UNL     1      24.002  29.874  14.605  1.00  0.00    -0.092 NA
ATOM     29  N   UNL     1      23.256  29.853  13.606  1.00  0.00     0.001 N 
ATOM     30  N   UNL     1      22.881  29.533  12.475  1.00  0.00    -0.003 NA
ENDBRANCH  27  28
ENDBRANCH  26  27
ENDBRANCH  25  26
ENDBRANCH  19  25
BRANCH  20  31
ATOM     31  O   UNL     1      25.696  35.717  10.758  1.00  0.00    -0.387 OA
ATOM     32  H   UNL     1      26.659  35.536  10.796  1.00  0.00     0.211 HD
ENDBRANCH  20  31
BRANCH  21  33
ATOM     33  O   UNL     1      27.203  34.952  13.031  1.00  0.00    -0.385 OA
ATOM     34  H   UNL     1      27.561  35.493  12.276  1.00  0.00     0.211 HD
ENDBRANCH  21  33
ENDBRANCH  15  16
ENDBRANCH  10  15
BRANCH  12  35
ATOM     35  O   UNL     1      20.269  34.454  10.374  1.00  0.00    -0.385 OA
ATOM     36  H   UNL     1      19.569  34.251   9.719  1.00  0.00     0.211 HD
ENDBRANCH  12  35
BRANCH  13  37
ATOM     37  O   UNL     1      19.470  36.101   8.325  1.00  0.00    -0.387 OA
ATOM     38  H   UNL     1      19.128  36.328   9.224  1.00  0.00     0.211 HD
ENDBRANCH  13  37
BRANCH  14  39
ATOM     39  O   UNL     1      21.347  38.000   8.206  1.00  0.00    -0.387 OA
ATOM     40  H   UNL     1      20.825  38.431   7.479  1.00  0.00     0.211 HD
ENDBRANCH  14  39
ENDBRANCH   8   9
ENDBRANCH   7   8
ENDBRANCH   1   7
BRANCH   1  41
ATOM     41  C   UNL     1      27.104  38.443   9.271  1.00  0.00     0.364 C 
ATOM     42  O   UNL     1      27.727  37.357   9.159  1.00  0.00    -0.246 OA
BRANCH  41  43
ATOM     43  O   UNL     1      27.598  39.359  10.145  1.00  0.00    -0.477 OA
ATOM     44  H   UNL     1      27.608  39.293  11.160  1.00  0.00     0.296 HD
ENDBRANCH  41  43
ENDBRANCH   1  41
BRANCH   3  45
ATOM     45  O   UNL     1      24.110  39.804   6.510  1.00  0.00    -0.391 OA
ATOM     46  H   UNL     1      24.109  39.763   5.512  1.00  0.00     0.211 HD
ENDBRANCH   3  45
BRANCH   5  47
ATOM     47  C   UNL     1      27.658  38.300   5.399  1.00  0.00     0.176 C 
BRANCH  47  48
ATOM     48  O   UNL     1      27.454  38.755   4.117  1.00  0.00    -0.388 OA
ATOM     49  H   UNL     1      28.215  38.600   3.491  1.00  0.00     0.211 HD
ENDBRANCH  47  48
BRANCH  47  50
ATOM     50  C   UNL     1      29.076  37.851   5.679  1.00  0.00     0.165 C 
BRANCH  50  51
ATOM     51  O   UNL     1      29.152  36.658   6.320  1.00  0.00    -0.388 OA
ATOM     52  H   UNL     1      29.090  35.899   5.722  1.00  0.00     0.211 HD
ENDBRANCH  50  51
BRANCH  50  53
ATOM     53  C   UNL     1      29.824  38.998   6.276  1.00  0.00     0.154 C 
BRANCH  53  54
ATOM     54  N   UNL     1      29.719  39.193   7.672  1.00  0.00    -0.319 N 
ATOM     55  C   UNL     1      30.843  39.171   8.571  1.00  0.00     0.407 C 
ATOM     56  H   UNL     1      28.770  39.368   8.122  1.00  0.00     0.167 HD
ATOM     57  O   UNL     1      32.001  38.954   8.162  1.00  0.00    -0.225 OA
BRANCH  55  58
ATOM     58  O   UNL     1      30.671  39.393   9.924  1.00  0.00    -0.443 OA
BRANCH  58  59
ATOM     59  C   UNL     1      31.572  38.910  10.879  1.00  0.00     0.294 C 
BRANCH  59  60
ATOM     60  C   UNL     1      30.789  38.198  11.937  1.00  0.00     0.120 A 
ATOM     61  C   UNL     1      31.213  38.007  13.266  1.00  0.00     0.139 A 
ATOM     62  N   UNL     1      29.599  37.588  11.884  1.00  0.00    -0.132 NA
ATOM     63  N   UNL     1      30.287  37.309  13.936  1.00  0.00    -0.239 N 
ATOM     64  N   UNL     1      29.316  37.062  13.090  1.00  0.00    -0.066 NA
BRANCH  63  65
ATOM     65  C   UNL     1      30.382  36.926  15.329  1.00  0.00     0.122 C 
ATOM     66  C   UNL     1      28.942  36.472  15.755  1.00  0.00     0.046 C 
ATOM     67  C   UNL     1      30.669  38.083  16.256  1.00  0.00     0.046 C 
BRANCH  65  68
ATOM     68  C   UNL     1      31.250  35.782  15.531  1.00  0.00     0.192 C 
ATOM     69  O   UNL     1      32.491  36.093  15.797  1.00  0.00    -0.291 OA
BRANCH  68  70
ATOM     70  C   UNL     1      30.980  34.378  15.487  1.00  0.00     0.045 A 
ATOM     71  C   UNL     1      30.817  33.658  14.297  1.00  0.00     0.095 A 
ATOM     72  C   UNL     1      30.803  33.475  16.516  1.00  0.00     0.010 A 
ATOM     73  N   UNL     1      30.559  32.404  14.614  1.00  0.00    -0.360 N 
ATOM     74  C   UNL     1      30.536  32.232  15.935  1.00  0.00     0.046 A 
ATOM     75  C   UNL     1      30.833  33.548  17.881  1.00  0.00     0.011 A 
ATOM     76  H   UNL     1      30.393  31.651  13.887  1.00  0.00     0.166 HD
ATOM     77  C   UNL     1      30.310  31.110  16.714  1.00  0.00     0.027 A 
ATOM     78  C   UNL     1      30.603  32.415  18.661  1.00  0.00     0.001 A 
ATOM     79  C   UNL     1      30.345  31.212  18.074  1.00  0.00     0.002 A 
ENDBRANCH  68  70
ENDBRANCH  65  68
ENDBRANCH  63  65
ENDBRANCH  59  60
ENDBRANCH  58  59
ENDBRANCH  55  58
ENDBRANCH  53  54
ENDBRANCH  50  53
ENDBRANCH  47  50
ENDBRANCH   5  47
BRANCH   4  80
ATOM     80  N   UNL     1      27.118  41.549   6.209  1.00  0.00    -0.348 N 
ATOM     81  C   UNL     1      27.937  42.140   5.214  1.00  0.00     0.217 C 
ATOM     82  H   UNL     1      27.114  42.000   7.164  1.00  0.00     0.163 HD
ATOM     83  C   UNL     1      28.780  43.344   5.444  1.00  0.00     0.114 C 
ATOM     84  O   UNL     1      27.926  41.578   4.066  1.00  0.00    -0.275 OA
ENDBRANCH   4  80
TORSDOF 32
BEGIN_RES LYS A 131
REMARK  4 active torsions:
REMARK  status: ('A' for Active; 'I' for Inactive)
REMARK    1  A    between atoms: CA   and  CB  
REMARK    2  A    between atoms: CB   and  CG  
REMARK    3  A    between atoms: CG   and  CD  
REMARK    4  A    between atoms: CD   and  CE  
ROOT
ATOM      1  CA  LYS A 131      29.867  25.555  16.977  1.00 20.52     0.186 C 
ENDROOT
BRANCH   1   2
ATOM      2  CB  LYS A 131      28.345  25.722  17.026  1.00 20.94     0.034 C 
BRANCH   2   3
ATOM      3  CG  LYS A 131      27.601  24.402  16.894  1.00 22.96     0.005 C 
BRANCH   3   4
ATOM      4  CD  LYS A 131      26.601  24.202  17.999  1.00 24.33     0.041 C 
BRANCH   4   5
ATOM      5  CE  LYS A 131      26.078  25.558  18.463  1.00 26.91     0.338 C 
ATOM      6  NZ  LYS A 131      24.765  25.848  17.840  1.00 27.40     0.618 N 
ENDBRANCH   4   5
ENDBRANCH   3   4
ENDBRANCH   2   3
ENDBRANCH   1   2
END_RES LYS A 131
BEGIN_RES LYS A 135
REMARK  4 active torsions:
REMARK  status: ('A' for Active; 'I' for Inactive)
REMARK    5  A    between atoms: CA   and  CB  
REMARK    6  A    between atoms: CB   and  CG  
REMARK    7  A    between atoms: CG   and  CD  
REMARK    8  A    between atoms: CD   and  CE  
ROOT
ATOM      7  CA  LYS A 135      33.193  34.663   9.290  1.00 25.02     0.186 C 
ENDROOT
BRANCH   7   8
ATOM      8  CB  LYS A 135      32.060  35.360  10.034  1.00 26.63     0.034 C 
BRANCH   8   9
ATOM      9  CG  LYS A 135      30.804  35.509   9.215  1.00 29.45     0.005 C 
BRANCH   9  10
ATOM     10  CD  LYS A 135      30.089  34.173   9.082  1.00 32.00     0.041 C 
BRANCH  10  11
ATOM     11  CE  LYS A 135      28.862  34.134   9.972  1.00 34.25     0.338 C 
ATOM     12  NZ  LYS A 135      27.646  33.768   9.195  1.00 35.99     0.618 N 
ENDBRANCH  10  11
ENDBRANCH   9  10
ENDBRANCH   8   9
ENDBRANCH   7   8
END_RES LYS A 135
