REMARK VINA RESULT:    -4.359      3.468      6.938
REMARK INTER + INTRA:         -22.303
REMARK INTER:                 -10.734
REMARK INTRA:                 -11.569
REMARK UNBOUND:               -11.064
REMARK SMILES CC(=O)N[C@@H]1[C@@H](O)C[C@](OC[C@H]2O[C@@H](O[C@H]3[C@H](O)[C@@H](O)[C@H](OCCN=[N+]=[N-])O[C@@H]3CO)[C@H](O)[C@@H](O)[C@H]2O)(C(=O)O)O[C@H]1C(O)[C@H](O)CNC(=O)OCc1cn(CC(=O)Nc2ncccn2)nn1
REMARK SMILES IDX 9 1 8 2 6 3 5 4 42 5 41 6 10 7 11 8 12 9 14 10 13 11 32 12
REMARK SMILES IDX 34 13 36 14 15 15 16 16 29 17 28 18 21 19 17 20 19 21 30 22
REMARK SMILES IDX 31 23 22 25 23 26 24 27 25 28 26 29 27 30 18 31 20 33 33 35
REMARK SMILES IDX 35 37 37 39 38 41 39 42 40 43 7 45 43 47 44 48 45 50 46 51
REMARK SMILES IDX 47 53 48 54 49 55 50 57 51 58 52 59 53 60 54 61 67 62 55 63
REMARK SMILES IDX 66 64 56 65 57 66 58 67 59 68 60 70 61 71 65 72 62 73 64 74
REMARK SMILES IDX 63 75 4 76 2 77 1 79 3 80
REMARK H PARENT 31 24 18 32 20 34 33 36 35 38 37 40 40 44 7 46 44 49 46 52
REMARK H PARENT 48 56 59 69 4 78
REMARK Flexibility Score: inf
ROOT
ATOM      1  C   UNL     1      26.382  37.311   7.763  1.00  0.00     0.272 C 
ATOM      2  C   UNL     1      27.245  36.828   6.609  1.00  0.00     0.113 C 
ATOM      3  C   UNL     1      28.330  37.785   6.327  1.00  0.00     0.145 C 
ATOM      4  C   UNL     1      29.076  38.312   7.544  1.00  0.00     0.142 C 
ATOM      5  C   UNL     1      28.273  38.320   8.765  1.00  0.00     0.178 C 
ATOM      6  O   UNL     1      27.365  37.273   8.822  1.00  0.00    -0.332 OA
ENDROOT
BRANCH   1   7
ATOM      7  O   UNL     1      25.491  36.372   8.056  1.00  0.00    -0.338 OA
BRANCH   7   8
ATOM      8  C   UNL     1      25.231  35.523   8.966  1.00  0.00     0.199 C 
BRANCH   8   9
ATOM      9  C   UNL     1      23.966  35.347   9.738  1.00  0.00     0.179 C 
ATOM     10  C   UNL     1      23.231  35.614  11.938  1.00  0.00     0.282 C 
ATOM     11  O   UNL     1      24.324  35.614  11.130  1.00  0.00    -0.341 OA
ATOM     12  C   UNL     1      22.478  36.976  11.795  1.00  0.00     0.202 C 
ATOM     13  C   UNL     1      23.010  37.499  10.476  1.00  0.00     0.179 C 
ATOM     14  C   UNL     1      22.863  36.310   9.499  1.00  0.00     0.177 C 
BRANCH  10  15
ATOM     15  O   UNL     1      23.638  35.517  13.276  1.00  0.00    -0.341 OA
BRANCH  15  16
ATOM     16  C   UNL     1      24.897  36.062  13.494  1.00  0.00     0.184 C 
ATOM     17  C   UNL     1      25.710  35.041  14.301  1.00  0.00     0.178 C 
ATOM     18  O   UNL     1      26.268  35.625  15.428  1.00  0.00    -0.341 OA
ATOM     19  C   UNL     1      25.273  36.075  16.310  1.00  0.00     0.281 C 
ATOM     20  C   UNL     1      24.782  37.362  14.197  1.00  0.00     0.180 C 
ATOM     21  C   UNL     1      24.685  37.310  15.691  1.00  0.00     0.202 C 
BRANCH  17  22
ATOM     22  C   UNL     1      26.861  34.523  13.455  1.00  0.00     0.191 C 
BRANCH  22  23
ATOM     23  O   UNL     1      27.991  34.286  14.241  1.00  0.00    -0.394 OA
ATOM     24  H   UNL     1      27.884  33.480  14.816  1.00  0.00     0.210 HD
ENDBRANCH  22  23
ENDBRANCH  17  22
BRANCH  19  25
ATOM     25  O   UNL     1      25.925  36.378  17.490  1.00  0.00    -0.350 OA
BRANCH  25  26
ATOM     26  C   UNL     1      26.957  35.516  17.795  1.00  0.00     0.169 C 
BRANCH  26  27
ATOM     27  C   UNL     1      27.698  35.863  19.068  1.00  0.00     0.119 C 
BRANCH  27  28
ATOM     28  N   UNL     1      28.951  36.546  18.793  1.00  0.00    -0.092 NA
ATOM     29  N   UNL     1      28.985  37.725  18.425  1.00  0.00     0.001 N 
ATOM     30  N   UNL     1      28.814  38.840  17.944  1.00  0.00    -0.003 NA
ENDBRANCH  27  28
ENDBRANCH  26  27
ENDBRANCH  25  26
ENDBRANCH  19  25
BRANCH  20  31
ATOM     31  O   UNL     1      25.942  38.136  13.919  1.00  0.00    -0.387 OA
ATOM     32  H   UNL     1      26.702  37.522  13.703  1.00  0.00     0.211 HD
ENDBRANCH  20  31
BRANCH  21  33
ATOM     33  O   UNL     1      23.347  37.422  16.056  1.00  0.00    -0.385 OA
ATOM     34  H   UNL     1      23.171  38.330  16.399  1.00  0.00     0.211 HD
ENDBRANCH  21  33
ENDBRANCH  15  16
ENDBRANCH  10  15
BRANCH  12  35
ATOM     35  O   UNL     1      21.125  36.692  11.574  1.00  0.00    -0.385 OA
ATOM     36  H   UNL     1      20.953  35.812  12.006  1.00  0.00     0.211 HD
ENDBRANCH  12  35
BRANCH  13  37
ATOM     37  O   UNL     1      24.290  37.978  10.547  1.00  0.00    -0.387 OA
ATOM     38  H   UNL     1      24.808  37.852   9.729  1.00  0.00     0.211 HD
ENDBRANCH  13  37
BRANCH  14  39
ATOM     39  O   UNL     1      22.636  36.808   8.266  1.00  0.00    -0.387 OA
ATOM     40  H   UNL     1      21.893  36.349   7.802  1.00  0.00     0.211 HD
ENDBRANCH  14  39
ENDBRANCH   8   9
ENDBRANCH   7   8
ENDBRANCH   1   7
BRANCH   1  41
ATOM     41  C   UNL     1      25.876  38.663   7.657  1.00  0.00     0.364 C 
ATOM     42  O   UNL     1      25.713  39.367   8.711  1.00  0.00    -0.246 OA
BRANCH  41  43
ATOM     43  O   UNL     1      25.531  39.298   6.488  1.00  0.00    -0.477 OA
ATOM     44  H   UNL     1      25.024  40.148   6.415  1.00  0.00     0.296 HD
ENDBRANCH  41  43
ENDBRANCH   1  41
BRANCH   3  45
ATOM     45  O   UNL     1      29.245  37.127   5.467  1.00  0.00    -0.391 OA
ATOM     46  H   UNL     1      30.162  37.508   5.624  1.00  0.00     0.211 HD
ENDBRANCH   3  45
BRANCH   5  47
ATOM     47  C   UNL     1      29.085  38.171  10.079  1.00  0.00     0.176 C 
BRANCH  47  48
ATOM     48  O   UNL     1      30.020  39.109  10.292  1.00  0.00    -0.388 OA
ATOM     49  H   UNL     1      30.963  38.784  10.294  1.00  0.00     0.211 HD
ENDBRANCH  47  48
BRANCH  47  50
ATOM     50  C   UNL     1      28.394  37.540  11.186  1.00  0.00     0.165 C 
BRANCH  50  51
ATOM     51  O   UNL     1      27.125  38.328  11.295  1.00  0.00    -0.388 OA
ATOM     52  H   UNL     1      27.308  39.226  10.978  1.00  0.00     0.211 HD
ENDBRANCH  50  51
BRANCH  50  53
ATOM     53  C   UNL     1      28.881  37.386  12.541  1.00  0.00     0.154 C 
BRANCH  53  54
ATOM     54  N   UNL     1      29.926  36.595  13.002  1.00  0.00    -0.319 N 
ATOM     55  C   UNL     1      31.330  36.640  12.887  1.00  0.00     0.407 C 
ATOM     56  H   UNL     1      29.574  35.720  13.603  1.00  0.00     0.167 HD
ATOM     57  O   UNL     1      31.896  37.541  12.241  1.00  0.00    -0.225 OA
BRANCH  55  58
ATOM     58  O   UNL     1      32.128  35.699  13.486  1.00  0.00    -0.443 OA
BRANCH  58  59
ATOM     59  C   UNL     1      32.409  35.498  14.797  1.00  0.00     0.294 C 
BRANCH  59  60
ATOM     60  C   UNL     1      31.513  34.532  15.473  1.00  0.00     0.120 A 
ATOM     61  C   UNL     1      31.673  33.140  15.516  1.00  0.00     0.138 A 
ATOM     62  N   UNL     1      30.337  34.736  16.128  1.00  0.00    -0.132 NA
ATOM     63  N   UNL     1      30.646  32.573  16.158  1.00  0.00    -0.243 N 
ATOM     64  N   UNL     1      29.859  33.574  16.512  1.00  0.00    -0.067 NA
BRANCH  63  65
ATOM     65  C   UNL     1      30.388  31.174  16.440  1.00  0.00     0.246 C 
BRANCH  65  66
ATOM     66  C   UNL     1      28.907  31.031  16.717  1.00  0.00     0.248 C 
ATOM     67  O   UNL     1      28.480  30.499  17.771  1.00  0.00    -0.272 OA
ATOM     68  N   UNL     1      27.961  31.504  15.774  1.00  0.00    -0.293 N 
ATOM     69  H   UNL     1      28.375  31.939  14.911  1.00  0.00     0.173 HD
BRANCH  68  70
ATOM     70  C   UNL     1      26.557  31.451  15.901  1.00  0.00     0.229 A 
ATOM     71  N   UNL     1      25.816  32.361  16.557  1.00  0.00    -0.221 NA
ATOM     72  N   UNL     1      25.910  30.413  15.333  1.00  0.00    -0.221 NA
ATOM     73  C   UNL     1      24.458  32.267  16.666  1.00  0.00     0.117 A 
ATOM     74  C   UNL     1      24.586  30.273  15.407  1.00  0.00     0.117 A 
ATOM     75  C   UNL     1      23.826  31.195  16.075  1.00  0.00     0.040 A 
ENDBRANCH  68  70
ENDBRANCH  65  66
ENDBRANCH  63  65
ENDBRANCH  59  60
ENDBRANCH  58  59
ENDBRANCH  55  58
ENDBRANCH  53  54
ENDBRANCH  50  53
ENDBRANCH  47  50
ENDBRANCH   5  47
BRANCH   4  76
ATOM     76  N   UNL     1      29.673  39.546   7.131  1.00  0.00    -0.348 N 
ATOM     77  C   UNL     1      31.079  39.809   7.341  1.00  0.00     0.217 C 
ATOM     78  H   UNL     1      29.117  40.309   6.661  1.00  0.00     0.163 HD
ATOM     79  C   UNL     1      31.631  41.101   6.886  1.00  0.00     0.114 C 
ATOM     80  O   UNL     1      31.798  38.954   7.898  1.00  0.00    -0.275 OA
ENDBRANCH   4  76
TORSDOF 32
BEGIN_RES LYS A 131
REMARK  4 active torsions:
REMARK  status: ('A' for Active; 'I' for Inactive)
REMARK    1  A    between atoms: CA   and  CB  
REMARK    2  A    between atoms: CB   and  CG  
REMARK    3  A    between atoms: CG   and  CD  
REMARK    4  A    between atoms: CD   and  CE  
ROOT
ATOM      1  CA  LYS A 131      29.867  25.555  16.977  1.00 20.52     0.186 C 
ENDROOT
BRANCH   1   2
ATOM      2  CB  LYS A 131      28.345  25.722  17.026  1.00 20.94     0.034 C 
BRANCH   2   3
ATOM      3  CG  LYS A 131      27.599  24.426  16.745  1.00 22.96     0.005 C 
BRANCH   3   4
ATOM      4  CD  LYS A 131      26.922  23.885  17.974  1.00 24.33     0.041 C 
BRANCH   4   5
ATOM      5  CE  LYS A 131      25.565  23.302  17.592  1.00 26.91     0.338 C 
ATOM      6  NZ  LYS A 131      24.749  24.312  16.878  1.00 27.40     0.618 N 
ENDBRANCH   4   5
ENDBRANCH   3   4
ENDBRANCH   2   3
ENDBRANCH   1   2
END_RES LYS A 131
BEGIN_RES LYS A 135
REMARK  4 active torsions:
REMARK  status: ('A' for Active; 'I' for Inactive)
REMARK    5  A    between atoms: CA   and  CB  
REMARK    6  A    between atoms: CB   and  CG  
REMARK    7  A    between atoms: CG   and  CD  
REMARK    8  A    between atoms: CD   and  CE  
ROOT
ATOM      7  CA  LYS A 135      33.193  34.663   9.290  1.00 25.02     0.186 C 
ENDROOT
BRANCH   7   8
ATOM      8  CB  LYS A 135      32.060  35.360  10.034  1.00 26.63     0.034 C 
BRANCH   8   9
ATOM      9  CG  LYS A 135      30.767  34.586  10.025  1.00 29.45     0.005 C 
BRANCH   9  10
ATOM     10  CD  LYS A 135      30.133  34.615   8.643  1.00 32.00     0.041 C 
BRANCH  10  11
ATOM     11  CE  LYS A 135      28.695  34.138   8.707  1.00 34.25     0.338 C 
ATOM     12  NZ  LYS A 135      28.213  34.073  10.114  1.00 35.99     0.618 N 
ENDBRANCH  10  11
ENDBRANCH   9  10
ENDBRANCH   8   9
ENDBRANCH   7   8
END_RES LYS A 135
