REMARK VINA RESULT:    -4.409      3.436      9.855
REMARK INTER + INTRA:         -22.434
REMARK INTER:                 -11.688
REMARK INTRA:                 -10.746
REMARK UNBOUND:               -10.809
REMARK SMILES COc1ccc(Cn2cc(COC(=O)NC[C@@H](O)C(O)[C@@H]3O[C@@](OC[C@H]4O[C@@H](O[C@H]5[C@H](O)[C@@H](O)[C@H](OCCN=[N+]=[N-])O[C@@H]5CO)[C@H](O)[C@@H](O)[C@H]4O)(C(=O)O)C[C@H](O)[C@H]3NC(C)=O)nn2)cc1OC
REMARK SMILES IDX 23 1 55 2 56 3 58 4 21 5 22 6 24 7 25 8 26 9 28 10 27 11
REMARK SMILES IDX 46 12 48 13 50 14 29 15 30 16 43 17 42 18 35 19 31 20 33 21
REMARK SMILES IDX 44 22 45 23 36 25 37 26 38 27 39 28 40 29 41 30 32 31 34 33
REMARK SMILES IDX 47 35 49 37 51 39 52 41 53 42 54 43 57 45 19 47 20 48 17 50
REMARK SMILES IDX 18 51 16 53 15 54 13 55 14 57 12 58 11 59 10 60 9 61 63 62
REMARK SMILES IDX 8 63 64 64 7 65 6 66 65 67 5 68 66 69 4 70 3 71 67 72 68 73
REMARK SMILES IDX 2 74 1 75 59 76 60 77 61 79 62 80
REMARK H PARENT 45 24 32 32 34 34 47 36 49 38 51 40 54 44 57 46 20 49 18 52
REMARK H PARENT 15 56 59 78
REMARK Flexibility Score: inf
ROOT
ATOM      1  C   UNL     1      24.575  30.818  15.761  1.00  0.00     0.272 C 
ATOM      2  C   UNL     1      23.431  31.193  16.686  1.00  0.00     0.113 C 
ATOM      3  C   UNL     1      22.695  30.107  17.383  1.00  0.00     0.145 C 
ATOM      4  C   UNL     1      22.889  28.792  16.632  1.00  0.00     0.142 C 
ATOM      5  C   UNL     1      23.036  29.171  15.212  1.00  0.00     0.178 C 
ATOM      6  O   UNL     1      24.309  29.664  14.998  1.00  0.00    -0.332 OA
ENDROOT
BRANCH   1   7
ATOM      7  O   UNL     1      25.630  30.530  16.617  1.00  0.00    -0.338 OA
BRANCH   7   8
ATOM      8  C   UNL     1      26.479  29.529  16.255  1.00  0.00     0.199 C 
BRANCH   8   9
ATOM      9  C   UNL     1      27.397  29.160  17.388  1.00  0.00     0.179 C 
ATOM     10  C   UNL     1      28.462  29.863  19.268  1.00  0.00     0.282 C 
ATOM     11  O   UNL     1      27.288  30.078  18.449  1.00  0.00    -0.341 OA
ATOM     12  C   UNL     1      28.325  28.609  20.000  1.00  0.00     0.202 C 
ATOM     13  C   UNL     1      27.827  27.471  19.125  1.00  0.00     0.179 C 
ATOM     14  C   UNL     1      26.914  27.850  18.026  1.00  0.00     0.177 C 
BRANCH  10  15
ATOM     15  O   UNL     1      28.594  30.994  20.048  1.00  0.00    -0.341 OA
BRANCH  15  16
ATOM     16  C   UNL     1      29.484  31.889  19.455  1.00  0.00     0.184 C 
ATOM     17  C   UNL     1      30.571  32.326  20.356  1.00  0.00     0.178 C 
ATOM     18  O   UNL     1      31.531  32.977  19.587  1.00  0.00    -0.341 OA
ATOM     19  C   UNL     1      31.008  33.735  18.601  1.00  0.00     0.281 C 
ATOM     20  C   UNL     1      28.662  33.104  19.009  1.00  0.00     0.180 C 
ATOM     21  C   UNL     1      29.625  34.289  18.856  1.00  0.00     0.202 C 
BRANCH  17  22
ATOM     22  C   UNL     1      31.174  31.193  21.154  1.00  0.00     0.191 C 
BRANCH  22  23
ATOM     23  O   UNL     1      30.264  30.896  22.167  1.00  0.00    -0.394 OA
ATOM     24  H   UNL     1      29.512  30.356  21.778  1.00  0.00     0.210 HD
ENDBRANCH  22  23
ENDBRANCH  17  22
BRANCH  19  25
ATOM     25  O   UNL     1      30.879  32.909  17.427  1.00  0.00    -0.350 OA
BRANCH  25  26
ATOM     26  C   UNL     1      31.581  33.564  16.395  1.00  0.00     0.169 C 
BRANCH  26  27
ATOM     27  C   UNL     1      31.431  32.875  15.051  1.00  0.00     0.119 C 
BRANCH  27  28
ATOM     28  N   UNL     1      30.543  33.648  14.228  1.00  0.00    -0.092 NA
ATOM     29  N   UNL     1      29.357  33.822  14.520  1.00  0.00     0.001 N 
ATOM     30  N   UNL     1      28.205  33.668  14.975  1.00  0.00    -0.003 NA
ENDBRANCH  27  28
ENDBRANCH  26  27
ENDBRANCH  25  26
ENDBRANCH  19  25
BRANCH  20  31
ATOM     31  O   UNL     1      28.160  32.820  17.749  1.00  0.00    -0.387 OA
ATOM     32  H   UNL     1      27.319  32.284  17.864  1.00  0.00     0.211 HD
ENDBRANCH  20  31
BRANCH  21  33
ATOM     33  O   UNL     1      29.618  35.002  20.031  1.00  0.00    -0.385 OA
ATOM     34  H   UNL     1      29.272  35.928  19.911  1.00  0.00     0.211 HD
ENDBRANCH  21  33
ENDBRANCH  15  16
ENDBRANCH  10  15
BRANCH  12  35
ATOM     35  O   UNL     1      29.535  28.184  20.525  1.00  0.00    -0.385 OA
ATOM     36  H   UNL     1      30.177  27.904  19.810  1.00  0.00     0.211 HD
ENDBRANCH  12  35
BRANCH  13  37
ATOM     37  O   UNL     1      27.226  26.512  19.982  1.00  0.00    -0.387 OA
ATOM     38  H   UNL     1      26.677  27.022  20.634  1.00  0.00     0.211 HD
ENDBRANCH  13  37
BRANCH  14  39
ATOM     39  O   UNL     1      25.614  28.130  18.505  1.00  0.00    -0.387 OA
ATOM     40  H   UNL     1      25.161  28.832  17.924  1.00  0.00     0.211 HD
ENDBRANCH  14  39
ENDBRANCH   8   9
ENDBRANCH   7   8
ENDBRANCH   1   7
BRANCH   1  41
ATOM     41  C   UNL     1      24.804  31.951  14.828  1.00  0.00     0.364 C 
ATOM     42  O   UNL     1      24.631  31.833  13.612  1.00  0.00    -0.246 OA
BRANCH  41  43
ATOM     43  O   UNL     1      25.236  33.237  15.250  1.00  0.00    -0.477 OA
ATOM     44  H   UNL     1      24.940  34.029  14.634  1.00  0.00     0.296 HD
ENDBRANCH  41  43
ENDBRANCH   1  41
BRANCH   3  45
ATOM     45  O   UNL     1      23.134  29.937  18.674  1.00  0.00    -0.391 OA
ATOM     46  H   UNL     1      22.459  29.422  19.204  1.00  0.00     0.211 HD
ENDBRANCH   3  45
BRANCH   5  47
ATOM     47  C   UNL     1      22.532  28.183  14.264  1.00  0.00     0.176 C 
BRANCH  47  48
ATOM     48  O   UNL     1      21.171  27.908  14.319  1.00  0.00    -0.388 OA
ATOM     49  H   UNL     1      20.921  27.134  14.836  1.00  0.00     0.211 HD
ENDBRANCH  47  48
BRANCH  47  50
ATOM     50  C   UNL     1      22.548  28.873  12.795  1.00  0.00     0.165 C 
BRANCH  50  51
ATOM     51  O   UNL     1      23.833  29.042  12.452  1.00  0.00    -0.388 OA
ATOM     52  H   UNL     1      23.971  29.142  11.464  1.00  0.00     0.211 HD
ENDBRANCH  50  51
BRANCH  50  53
ATOM     53  C   UNL     1      21.559  29.923  12.726  1.00  0.00     0.154 C 
BRANCH  53  54
ATOM     54  N   UNL     1      21.834  31.280  12.395  1.00  0.00    -0.319 N 
ATOM     55  C   UNL     1      20.792  32.210  12.638  1.00  0.00     0.407 C 
ATOM     56  H   UNL     1      22.691  31.649  11.989  1.00  0.00     0.167 HD
ATOM     57  O   UNL     1      19.677  31.822  13.118  1.00  0.00    -0.225 OA
BRANCH  55  58
ATOM     58  O   UNL     1      20.861  33.578  12.395  1.00  0.00    -0.443 OA
BRANCH  58  59
ATOM     59  C   UNL     1      21.290  34.413  13.525  1.00  0.00     0.294 C 
BRANCH  59  60
ATOM     60  C   UNL     1      22.696  34.753  13.159  1.00  0.00     0.120 A 
ATOM     61  C   UNL     1      23.261  34.573  11.875  1.00  0.00     0.138 A 
ATOM     62  N   UNL     1      23.616  35.337  13.916  1.00  0.00    -0.132 NA
ATOM     63  N   UNL     1      24.513  35.081  11.958  1.00  0.00    -0.248 N 
ATOM     64  N   UNL     1      24.713  35.523  13.151  1.00  0.00    -0.067 NA
BRANCH  63  65
ATOM     65  C   UNL     1      25.456  35.161  10.810  1.00  0.00     0.181 C 
BRANCH  65  66
ATOM     66  C   UNL     1      24.800  36.207   9.908  1.00  0.00    -0.023 A 
ATOM     67  C   UNL     1      23.797  35.884   9.020  1.00  0.00     0.056 A 
ATOM     68  C   UNL     1      25.156  37.503  10.101  1.00  0.00     0.010 A 
ATOM     69  C   UNL     1      23.191  36.989   8.357  1.00  0.00     0.161 A 
ATOM     70  C   UNL     1      24.535  38.598   9.425  1.00  0.00     0.051 A 
ATOM     71  C   UNL     1      23.535  38.266   8.549  1.00  0.00     0.160 A 
BRANCH  69  72
ATOM     72  O   UNL     1      22.173  36.730   7.438  1.00  0.00    -0.493 OA
ATOM     73  C   UNL     1      20.978  36.034   7.811  1.00  0.00     0.278 C 
ENDBRANCH  69  72
BRANCH  71  74
ATOM     74  O   UNL     1      22.836  39.289   7.849  1.00  0.00    -0.493 OA
ATOM     75  C   UNL     1      21.808  40.014   8.557  1.00  0.00     0.278 C 
ENDBRANCH  71  74
ENDBRANCH  65  66
ENDBRANCH  63  65
ENDBRANCH  59  60
ENDBRANCH  58  59
ENDBRANCH  55  58
ENDBRANCH  53  54
ENDBRANCH  50  53
ENDBRANCH  47  50
ENDBRANCH   5  47
BRANCH   4  76
ATOM     76  N   UNL     1      21.773  27.933  16.924  1.00  0.00    -0.348 N 
ATOM     77  C   UNL     1      21.909  26.934  17.894  1.00  0.00     0.217 C 
ATOM     78  H   UNL     1      20.829  28.021  16.456  1.00  0.00     0.163 HD
ATOM     79  C   UNL     1      20.860  25.947  18.295  1.00  0.00     0.114 C 
ATOM     80  O   UNL     1      23.006  26.761  18.566  1.00  0.00    -0.275 OA
ENDBRANCH   4  76
TORSDOF 33
BEGIN_RES LYS A 131
REMARK  4 active torsions:
REMARK  status: ('A' for Active; 'I' for Inactive)
REMARK    1  A    between atoms: CA   and  CB  
REMARK    2  A    between atoms: CB   and  CG  
REMARK    3  A    between atoms: CG   and  CD  
REMARK    4  A    between atoms: CD   and  CE  
ROOT
ATOM      1  CA  LYS A 131      29.867  25.555  16.977  1.00 20.52     0.186 C 
ENDROOT
BRANCH   1   2
ATOM      2  CB  LYS A 131      28.345  25.722  17.026  1.00 20.94     0.034 C 
BRANCH   2   3
ATOM      3  CG  LYS A 131      27.599  24.476  16.573  1.00 22.96     0.005 C 
BRANCH   3   4
ATOM      4  CD  LYS A 131      27.039  23.699  17.731  1.00 24.33     0.041 C 
BRANCH   4   5
ATOM      5  CE  LYS A 131      25.664  24.249  18.096  1.00 26.91     0.338 C 
ATOM      6  NZ  LYS A 131      24.767  24.229  16.916  1.00 27.40     0.618 N 
ENDBRANCH   4   5
ENDBRANCH   3   4
ENDBRANCH   2   3
ENDBRANCH   1   2
END_RES LYS A 131
BEGIN_RES LYS A 135
REMARK  4 active torsions:
REMARK  status: ('A' for Active; 'I' for Inactive)
REMARK    5  A    between atoms: CA   and  CB  
REMARK    6  A    between atoms: CB   and  CG  
REMARK    7  A    between atoms: CG   and  CD  
REMARK    8  A    between atoms: CD   and  CE  
ROOT
ATOM      7  CA  LYS A 135      33.193  34.663   9.290  1.00 25.02     0.186 C 
ENDROOT
BRANCH   7   8
ATOM      8  CB  LYS A 135      32.060  35.360  10.034  1.00 26.63     0.034 C 
BRANCH   8   9
ATOM      9  CG  LYS A 135      30.706  34.749   9.780  1.00 29.45     0.005 C 
BRANCH   9  10
ATOM     10  CD  LYS A 135      30.499  34.503   8.293  1.00 32.00     0.041 C 
BRANCH  10  11
ATOM     11  CE  LYS A 135      29.092  34.890   7.880  1.00 34.25     0.338 C 
ATOM     12  NZ  LYS A 135      28.484  35.828   8.863  1.00 35.99     0.618 N 
ENDBRANCH  10  11
ENDBRANCH   9  10
ENDBRANCH   8   9
ENDBRANCH   7   8
END_RES LYS A 135
