REMARK VINA RESULT:    -3.528      2.771      8.378
REMARK INTER + INTRA:         -22.775
REMARK INTER:                 -12.433
REMARK INTRA:                 -10.343
REMARK UNBOUND:               -13.473
REMARK SMILES CC(=O)N[C@@H]1[C@@H](O)C[C@](OC[C@H]2O[C@@H](O[C@H]3[C@H](O)[C@@H](O)[C@H](OCCN=[N+]=[N-])O[C@@H]3CO)[C@H](O)[C@@H](O)[C@H]2O)(C(=O)O)O[C@H]1C(O)[C@H](O)CNC(=O)OCc1cn(CCOC(C)=O)nn1
REMARK SMILES IDX 43 1 42 2 9 3 8 4 41 5 6 6 5 7 10 8 11 9 12 10 14 11 13 12
REMARK SMILES IDX 32 13 34 14 36 15 15 16 16 17 29 18 28 19 21 20 17 21 19 22
REMARK SMILES IDX 30 23 31 24 22 26 23 27 24 28 25 29 26 30 27 31 18 32 20 34
REMARK SMILES IDX 33 36 35 38 37 40 38 42 39 43 40 44 7 46 4 48 2 49 1 51 3 52
REMARK SMILES IDX 44 53 45 55 46 56 47 58 48 59 49 60 50 62 51 63 52 64 53 65
REMARK SMILES IDX 54 66 63 67 55 68 62 69 56 70 57 71 58 72 59 73 61 74 60 75
REMARK H PARENT 31 25 18 33 20 35 33 37 35 39 37 41 40 45 7 47 4 50 44 54
REMARK H PARENT 46 57 48 61
REMARK Flexibility Score: inf
ROOT
ATOM      1  C   UNL     1      30.063  37.361  15.335  1.00  0.00     0.176 C 
ENDROOT
BRANCH   1   2
ATOM      2  C   UNL     1      31.445  36.815  15.582  1.00  0.00     0.178 C 
ATOM      3  C   UNL     1      32.762  34.987  14.889  1.00  0.00     0.272 C 
ATOM      4  C   UNL     1      33.764  35.746  15.724  1.00  0.00     0.113 C 
ATOM      5  O   UNL     1      31.576  35.741  14.677  1.00  0.00    -0.332 OA
ATOM      6  C   UNL     1      33.231  36.157  17.050  1.00  0.00     0.145 C 
ATOM      7  C   UNL     1      31.681  36.220  16.935  1.00  0.00     0.142 C 
BRANCH   3   8
ATOM      8  O   UNL     1      32.376  33.811  15.321  1.00  0.00    -0.338 OA
BRANCH   8   9
ATOM      9  C   UNL     1      31.230  33.190  15.288  1.00  0.00     0.199 C 
BRANCH   9  10
ATOM     10  C   UNL     1      30.414  32.785  16.440  1.00  0.00     0.179 C 
ATOM     11  C   UNL     1      28.335  33.190  17.348  1.00  0.00     0.282 C 
ATOM     12  O   UNL     1      29.037  33.118  16.136  1.00  0.00    -0.341 OA
ATOM     13  C   UNL     1      28.663  32.125  18.308  1.00  0.00     0.202 C 
ATOM     14  C   UNL     1      29.542  31.018  17.840  1.00  0.00     0.179 C 
ATOM     15  C   UNL     1      30.290  31.254  16.575  1.00  0.00     0.177 C 
BRANCH  11  16
ATOM     16  O   UNL     1      26.997  33.339  17.022  1.00  0.00    -0.341 OA
BRANCH  16  17
ATOM     17  C   UNL     1      26.631  32.656  15.891  1.00  0.00     0.184 C 
ATOM     18  C   UNL     1      25.652  33.482  15.088  1.00  0.00     0.178 C 
ATOM     19  O   UNL     1      25.370  32.721  13.945  1.00  0.00    -0.341 OA
ATOM     20  C   UNL     1      24.504  31.718  14.265  1.00  0.00     0.281 C 
ATOM     21  C   UNL     1      26.018  31.303  16.215  1.00  0.00     0.180 C 
ATOM     22  C   UNL     1      24.637  31.163  15.664  1.00  0.00     0.202 C 
BRANCH  18  23
ATOM     23  C   UNL     1      26.304  34.781  14.651  1.00  0.00     0.191 C 
BRANCH  23  24
ATOM     24  O   UNL     1      27.584  34.531  14.191  1.00  0.00    -0.394 OA
ATOM     25  H   UNL     1      27.603  33.558  13.948  1.00  0.00     0.210 HD
ENDBRANCH  23  24
ENDBRANCH  18  23
BRANCH  20  26
ATOM     26  O   UNL     1      24.660  30.706  13.308  1.00  0.00    -0.350 OA
BRANCH  26  27
ATOM     27  C   UNL     1      23.437  30.331  12.763  1.00  0.00     0.169 C 
BRANCH  27  28
ATOM     28  C   UNL     1      23.324  28.823  13.009  1.00  0.00     0.119 C 
BRANCH  28  29
ATOM     29  N   UNL     1      22.061  28.570  13.680  1.00  0.00    -0.092 NA
ATOM     30  N   UNL     1      21.612  29.323  14.554  1.00  0.00     0.001 N 
ATOM     31  N   UNL     1      21.359  29.829  15.663  1.00  0.00    -0.003 NA
ENDBRANCH  28  29
ENDBRANCH  27  28
ENDBRANCH  26  27
ENDBRANCH  20  26
BRANCH  21  32
ATOM     32  O   UNL     1      26.823  30.237  15.836  1.00  0.00    -0.387 OA
ATOM     33  H   UNL     1      27.716  30.507  15.508  1.00  0.00     0.211 HD
ENDBRANCH  21  32
BRANCH  22  34
ATOM     34  O   UNL     1      23.700  31.666  16.544  1.00  0.00    -0.385 OA
ATOM     35  H   UNL     1      23.068  30.928  16.784  1.00  0.00     0.211 HD
ENDBRANCH  22  34
ENDBRANCH  16  17
ENDBRANCH  11  16
BRANCH  13  36
ATOM     36  O   UNL     1      29.120  32.652  19.545  1.00  0.00    -0.385 OA
ATOM     37  H   UNL     1      29.896  33.239  19.425  1.00  0.00     0.211 HD
ENDBRANCH  13  36
BRANCH  14  38
ATOM     38  O   UNL     1      28.829  29.817  17.697  1.00  0.00    -0.387 OA
ATOM     39  H   UNL     1      28.020  29.868  18.288  1.00  0.00     0.211 HD
ENDBRANCH  14  38
BRANCH  15  40
ATOM     40  O   UNL     1      29.453  30.809  15.515  1.00  0.00    -0.387 OA
ATOM     41  H   UNL     1      29.343  31.513  14.844  1.00  0.00     0.211 HD
ENDBRANCH  15  40
ENDBRANCH   9  10
ENDBRANCH   8   9
ENDBRANCH   3   8
BRANCH   3  42
ATOM     42  C   UNL     1      33.334  34.980  13.514  1.00  0.00     0.364 C 
ATOM     43  O   UNL     1      32.973  35.699  12.563  1.00  0.00    -0.246 OA
BRANCH  42  44
ATOM     44  O   UNL     1      34.388  34.094  13.201  1.00  0.00    -0.477 OA
ATOM     45  H   UNL     1      35.240  34.473  12.816  1.00  0.00     0.296 HD
ENDBRANCH  42  44
ENDBRANCH   3  42
BRANCH   6  46
ATOM     46  O   UNL     1      33.609  35.370  18.113  1.00  0.00    -0.391 OA
ATOM     47  H   UNL     1      34.224  35.825  18.744  1.00  0.00     0.211 HD
ENDBRANCH   6  46
BRANCH   7  48
ATOM     48  N   UNL     1      31.158  36.911  18.065  1.00  0.00    -0.348 N 
ATOM     49  C   UNL     1      30.707  36.229  19.225  1.00  0.00     0.217 C 
ATOM     50  H   UNL     1      31.124  37.942  18.057  1.00  0.00     0.163 HD
ATOM     51  C   UNL     1      30.158  36.962  20.408  1.00  0.00     0.114 C 
ATOM     52  O   UNL     1      30.750  34.964  19.314  1.00  0.00    -0.275 OA
ENDBRANCH   7  48
ENDBRANCH   1   2
BRANCH   1  53
ATOM     53  O   UNL     1      29.188  36.302  15.736  1.00  0.00    -0.388 OA
ATOM     54  H   UNL     1      28.612  36.602  16.470  1.00  0.00     0.211 HD
ENDBRANCH   1  53
BRANCH   1  55
ATOM     55  C   UNL     1      29.810  37.493  13.853  1.00  0.00     0.165 C 
BRANCH  55  56
ATOM     56  O   UNL     1      30.963  38.001  13.234  1.00  0.00    -0.388 OA
ATOM     57  H   UNL     1      30.722  38.829  12.771  1.00  0.00     0.211 HD
ENDBRANCH  55  56
BRANCH  55  58
ATOM     58  C   UNL     1      28.602  38.315  13.529  1.00  0.00     0.154 C 
BRANCH  58  59
ATOM     59  N   UNL     1      27.465  37.586  13.062  1.00  0.00    -0.319 N 
ATOM     60  C   UNL     1      27.403  36.964  11.800  1.00  0.00     0.407 C 
ATOM     61  H   UNL     1      26.588  37.473  13.660  1.00  0.00     0.167 HD
ATOM     62  O   UNL     1      28.349  36.991  10.986  1.00  0.00    -0.225 OA
BRANCH  60  63
ATOM     63  O   UNL     1      26.261  36.270  11.373  1.00  0.00    -0.443 OA
BRANCH  63  64
ATOM     64  C   UNL     1      25.218  36.890  10.676  1.00  0.00     0.294 C 
BRANCH  64  65
ATOM     65  C   UNL     1      25.590  37.185   9.265  1.00  0.00     0.120 A 
ATOM     66  C   UNL     1      25.871  38.455   8.792  1.00  0.00     0.138 A 
ATOM     67  N   UNL     1      25.735  36.372   8.223  1.00  0.00    -0.132 NA
ATOM     68  N   UNL     1      26.169  38.346   7.494  1.00  0.00    -0.249 N 
ATOM     69  N   UNL     1      26.081  37.070   7.169  1.00  0.00    -0.067 NA
BRANCH  68  70
ATOM     70  C   UNL     1      26.521  39.433   6.569  1.00  0.00     0.187 C 
BRANCH  70  71
ATOM     71  C   UNL     1      27.684  39.009   5.700  1.00  0.00     0.256 C 
BRANCH  71  72
ATOM     72  O   UNL     1      27.344  39.261   4.341  1.00  0.00    -0.464 OA
BRANCH  72  73
ATOM     73  C   UNL     1      27.358  40.559   3.840  1.00  0.00     0.302 C 
ATOM     74  O   UNL     1      28.424  41.214   3.930  1.00  0.00    -0.253 OA
ATOM     75  C   UNL     1      26.153  41.187   3.205  1.00  0.00     0.139 C 
ENDBRANCH  72  73
ENDBRANCH  71  72
ENDBRANCH  70  71
ENDBRANCH  68  70
ENDBRANCH  64  65
ENDBRANCH  63  64
ENDBRANCH  60  63
ENDBRANCH  58  59
ENDBRANCH  55  58
ENDBRANCH   1  55
TORSDOF 33
BEGIN_RES LYS A 131
REMARK  4 active torsions:
REMARK  status: ('A' for Active; 'I' for Inactive)
REMARK    1  A    between atoms: CA   and  CB  
REMARK    2  A    between atoms: CB   and  CG  
REMARK    3  A    between atoms: CG   and  CD  
REMARK    4  A    between atoms: CD   and  CE  
ROOT
ATOM      1  CA  LYS A 131      29.867  25.555  16.977  1.00 20.52     0.186 C 
ENDROOT
BRANCH   1   2
ATOM      2  CB  LYS A 131      28.345  25.722  17.026  1.00 20.94     0.034 C 
BRANCH   2   3
ATOM      3  CG  LYS A 131      27.599  24.474  16.580  1.00 22.96     0.005 C 
BRANCH   3   4
ATOM      4  CD  LYS A 131      27.115  23.656  17.745  1.00 24.33     0.041 C 
BRANCH   4   5
ATOM      5  CE  LYS A 131      25.704  24.094  18.123  1.00 26.91     0.338 C 
ATOM      6  NZ  LYS A 131      24.700  23.370  17.307  1.00 27.40     0.618 N 
ENDBRANCH   4   5
ENDBRANCH   3   4
ENDBRANCH   2   3
ENDBRANCH   1   2
END_RES LYS A 131
BEGIN_RES LYS A 135
REMARK  4 active torsions:
REMARK  status: ('A' for Active; 'I' for Inactive)
REMARK    5  A    between atoms: CA   and  CB  
REMARK    6  A    between atoms: CB   and  CG  
REMARK    7  A    between atoms: CG   and  CD  
REMARK    8  A    between atoms: CD   and  CE  
ROOT
ATOM      7  CA  LYS A 135      33.193  34.663   9.290  1.00 25.02     0.186 C 
ENDROOT
BRANCH   7   8
ATOM      8  CB  LYS A 135      32.060  35.360  10.034  1.00 26.63     0.034 C 
BRANCH   8   9
ATOM      9  CG  LYS A 135      30.799  35.496   9.220  1.00 29.45     0.005 C 
BRANCH   9  10
ATOM     10  CD  LYS A 135      30.081  34.159   9.115  1.00 32.00     0.041 C 
BRANCH  10  11
ATOM     11  CE  LYS A 135      28.633  34.362   8.713  1.00 34.25     0.338 C 
ATOM     12  NZ  LYS A 135      27.713  33.651   9.643  1.00 35.99     0.618 N 
ENDBRANCH  10  11
ENDBRANCH   9  10
ENDBRANCH   8   9
ENDBRANCH   7   8
END_RES LYS A 135
