REMARK VINA RESULT:    -4.509      5.299     11.224
REMARK INTER + INTRA:         -21.419
REMARK INTER:                 -12.733
REMARK INTRA:                  -8.685
REMARK UNBOUND:                -9.660
REMARK SMILES CC(=O)N[C@@H]1[C@@H](O)C[C@](OC[C@H]2O[C@@H](O[C@H]3[C@H](O)[C@@H](O)[C@H](OCCN=[N+]=[N-])O[C@@H]3CO)[C@H](O)[C@@H](O)[C@H]2O)(C(=O)O)O[C@H]1C(O)[C@H](O)CNC(=O)OCc1cn(CCC(=O)O)nn1
REMARK SMILES IDX 43 1 42 2 9 3 8 4 41 5 6 6 5 7 10 8 11 9 12 10 14 11 13 12
REMARK SMILES IDX 32 13 34 14 36 15 15 16 16 17 29 18 28 19 21 20 17 21 19 22
REMARK SMILES IDX 30 23 31 24 22 26 23 27 24 28 25 29 26 30 27 31 18 32 20 34
REMARK SMILES IDX 33 36 35 38 37 40 38 42 39 43 40 44 7 46 4 48 2 49 1 51 3 52
REMARK SMILES IDX 44 53 45 55 46 56 47 58 48 59 49 60 50 62 51 63 52 64 53 65
REMARK SMILES IDX 54 66 62 67 55 68 61 69 56 70 57 71 58 72 59 73 60 74
REMARK H PARENT 31 25 18 33 20 35 33 37 35 39 37 41 40 45 7 47 4 50 44 54
REMARK H PARENT 46 57 48 61 60 75
REMARK Flexibility Score: inf
ROOT
ATOM      1  C   UNL     1      27.996  34.453  15.249  1.00  0.00     0.176 C 
ENDROOT
BRANCH   1   2
ATOM      2  C   UNL     1      29.067  33.480  15.681  1.00  0.00     0.178 C 
ATOM      3  C   UNL     1      29.350  31.486  16.884  1.00  0.00     0.272 C 
ATOM      4  C   UNL     1      30.709  31.742  16.256  1.00  0.00     0.113 C 
ATOM      5  O   UNL     1      28.741  32.795  16.823  1.00  0.00    -0.332 OA
ATOM      6  C   UNL     1      31.250  33.132  16.650  1.00  0.00     0.145 C 
ATOM      7  C   UNL     1      30.386  34.184  15.967  1.00  0.00     0.142 C 
BRANCH   3   8
ATOM      8  O   UNL     1      29.480  31.126  18.175  1.00  0.00    -0.338 OA
BRANCH   8   9
ATOM      9  C   UNL     1      28.637  31.261  19.161  1.00  0.00     0.199 C 
BRANCH   9  10
ATOM     10  C   UNL     1      27.735  30.241  19.709  1.00  0.00     0.179 C 
ATOM     11  C   UNL     1      25.773  29.051  19.607  1.00  0.00     0.282 C 
ATOM     12  O   UNL     1      26.504  30.101  19.130  1.00  0.00    -0.341 OA
ATOM     13  C   UNL     1      26.414  28.248  20.704  1.00  0.00     0.202 C 
ATOM     14  C   UNL     1      27.858  27.908  20.391  1.00  0.00     0.179 C 
ATOM     15  C   UNL     1      28.441  28.873  19.383  1.00  0.00     0.177 C 
BRANCH  11  16
ATOM     16  O   UNL     1      25.394  28.140  18.622  1.00  0.00    -0.341 OA
BRANCH  16  17
ATOM     17  C   UNL     1      24.024  28.131  18.373  1.00  0.00     0.184 C 
ATOM     18  C   UNL     1      23.765  27.315  17.155  1.00  0.00     0.178 C 
ATOM     19  O   UNL     1      23.281  28.057  16.065  1.00  0.00    -0.341 OA
ATOM     20  C   UNL     1      24.202  29.114  15.914  1.00  0.00     0.281 C 
ATOM     21  C   UNL     1      23.577  29.559  18.271  1.00  0.00     0.180 C 
ATOM     22  C   UNL     1      23.783  30.164  16.917  1.00  0.00     0.202 C 
BRANCH  18  23
ATOM     23  C   UNL     1      22.771  26.198  17.437  1.00  0.00     0.191 C 
BRANCH  23  24
ATOM     24  O   UNL     1      22.832  25.234  16.435  1.00  0.00    -0.394 OA
ATOM     25  H   UNL     1      22.723  24.346  16.851  1.00  0.00     0.210 HD
ENDBRANCH  23  24
ENDBRANCH  18  23
BRANCH  20  26
ATOM     26  O   UNL     1      24.221  29.598  14.627  1.00  0.00    -0.350 OA
BRANCH  26  27
ATOM     27  C   UNL     1      23.089  29.151  13.951  1.00  0.00     0.169 C 
BRANCH  27  28
ATOM     28  C   UNL     1      22.664  30.203  12.936  1.00  0.00     0.119 C 
BRANCH  28  29
ATOM     29  N   UNL     1      21.926  31.208  13.673  1.00  0.00    -0.092 NA
ATOM     30  N   UNL     1      22.558  32.058  14.299  1.00  0.00     0.001 N 
ATOM     31  N   UNL     1      22.936  33.071  14.925  1.00  0.00    -0.003 NA
ENDBRANCH  28  29
ENDBRANCH  27  28
ENDBRANCH  26  27
ENDBRANCH  20  26
BRANCH  21  32
ATOM     32  O   UNL     1      22.218  29.591  18.567  1.00  0.00    -0.387 OA
ATOM     33  H   UNL     1      22.004  30.469  18.940  1.00  0.00     0.211 HD
ENDBRANCH  21  32
BRANCH  22  34
ATOM     34  O   UNL     1      24.710  31.206  16.971  1.00  0.00    -0.385 OA
ATOM     35  H   UNL     1      24.774  31.656  16.083  1.00  0.00     0.211 HD
ENDBRANCH  22  34
ENDBRANCH  16  17
ENDBRANCH  11  16
BRANCH  13  36
ATOM     36  O   UNL     1      26.278  28.834  21.971  1.00  0.00    -0.385 OA
ATOM     37  H   UNL     1      25.429  29.300  22.027  1.00  0.00     0.211 HD
ENDBRANCH  13  36
BRANCH  14  38
ATOM     38  O   UNL     1      27.973  26.591  20.008  1.00  0.00    -0.387 OA
ATOM     39  H   UNL     1      28.831  26.214  20.292  1.00  0.00     0.211 HD
ENDBRANCH  14  38
BRANCH  15  40
ATOM     40  O   UNL     1      28.079  28.576  18.091  1.00  0.00    -0.387 OA
ATOM     41  H   UNL     1      27.715  29.332  17.575  1.00  0.00     0.211 HD
ENDBRANCH  15  40
ENDBRANCH   9  10
ENDBRANCH   8   9
ENDBRANCH   3   8
BRANCH   3  42
ATOM     42  C   UNL     1      28.482  30.610  16.092  1.00  0.00     0.364 C 
ATOM     43  O   UNL     1      27.237  30.770  16.114  1.00  0.00    -0.246 OA
BRANCH  42  44
ATOM     44  O   UNL     1      28.996  29.604  15.315  1.00  0.00    -0.477 OA
ATOM     45  H   UNL     1      29.539  29.725  14.484  1.00  0.00     0.296 HD
ENDBRANCH  42  44
ENDBRANCH   3  42
BRANCH   6  46
ATOM     46  O   UNL     1      31.093  33.256  18.013  1.00  0.00    -0.391 OA
ATOM     47  H   UNL     1      30.219  33.716  18.181  1.00  0.00     0.211 HD
ENDBRANCH   6  46
BRANCH   7  48
ATOM     48  N   UNL     1      31.015  34.662  14.779  1.00  0.00    -0.348 N 
ATOM     49  C   UNL     1      31.263  36.052  14.630  1.00  0.00     0.217 C 
ATOM     50  H   UNL     1      31.306  34.032  14.000  1.00  0.00     0.163 HD
ATOM     51  C   UNL     1      31.909  36.634  13.429  1.00  0.00     0.114 C 
ATOM     52  O   UNL     1      30.935  36.870  15.538  1.00  0.00    -0.275 OA
ENDBRANCH   7  48
ENDBRANCH   1   2
BRANCH   1  53
ATOM     53  O   UNL     1      27.977  34.484  13.854  1.00  0.00    -0.388 OA
ATOM     54  H   UNL     1      27.290  35.094  13.517  1.00  0.00     0.211 HD
ENDBRANCH   1  53
BRANCH   1  55
ATOM     55  C   UNL     1      26.621  34.129  15.738  1.00  0.00     0.165 C 
BRANCH  55  56
ATOM     56  O   UNL     1      26.154  33.006  15.047  1.00  0.00    -0.388 OA
ATOM     57  H   UNL     1      25.368  33.271  14.513  1.00  0.00     0.211 HD
ENDBRANCH  55  56
BRANCH  55  58
ATOM     58  C   UNL     1      25.724  35.307  15.342  1.00  0.00     0.154 C 
BRANCH  58  59
ATOM     59  N   UNL     1      24.965  34.999  14.162  1.00  0.00    -0.319 N 
ATOM     60  C   UNL     1      25.135  35.639  12.904  1.00  0.00     0.407 C 
ATOM     61  H   UNL     1      24.217  34.242  14.185  1.00  0.00     0.167 HD
ATOM     62  O   UNL     1      26.009  36.538  12.820  1.00  0.00    -0.225 OA
BRANCH  60  63
ATOM     63  O   UNL     1      24.379  35.307  11.794  1.00  0.00    -0.443 OA
BRANCH  63  64
ATOM     64  C   UNL     1      23.381  36.194  11.352  1.00  0.00     0.294 C 
BRANCH  64  65
ATOM     65  C   UNL     1      23.693  36.708  10.005  1.00  0.00     0.120 A 
ATOM     66  C   UNL     1      24.969  36.671   9.458  1.00  0.00     0.138 A 
ATOM     67  N   UNL     1      22.856  37.262   9.094  1.00  0.00    -0.132 NA
ATOM     68  N   UNL     1      24.850  37.210   8.220  1.00  0.00    -0.252 N 
ATOM     69  N   UNL     1      23.583  37.552   8.036  1.00  0.00    -0.067 NA
BRANCH  68  70
ATOM     70  C   UNL     1      25.915  37.382   7.256  1.00  0.00     0.158 C 
BRANCH  70  71
ATOM     71  C   UNL     1      27.009  36.346   7.385  1.00  0.00     0.146 C 
BRANCH  71  72
ATOM     72  C   UNL     1      27.796  36.352   6.144  1.00  0.00     0.305 C 
ATOM     73  O   UNL     1      28.844  35.675   6.071  1.00  0.00    -0.252 OA
BRANCH  72  74
ATOM     74  O   UNL     1      27.409  37.099   5.032  1.00  0.00    -0.481 OA
ATOM     75  H   UNL     1      28.065  37.464   4.349  1.00  0.00     0.296 HD
ENDBRANCH  72  74
ENDBRANCH  71  72
ENDBRANCH  70  71
ENDBRANCH  68  70
ENDBRANCH  64  65
ENDBRANCH  63  64
ENDBRANCH  60  63
ENDBRANCH  58  59
ENDBRANCH  55  58
ENDBRANCH   1  55
TORSDOF 33
BEGIN_RES LYS A 131
REMARK  4 active torsions:
REMARK  status: ('A' for Active; 'I' for Inactive)
REMARK    1  A    between atoms: CA   and  CB  
REMARK    2  A    between atoms: CB   and  CG  
REMARK    3  A    between atoms: CG   and  CD  
REMARK    4  A    between atoms: CD   and  CE  
ROOT
ATOM      1  CA  LYS A 131      29.867  25.555  16.977  1.00 20.52     0.186 C 
ENDROOT
BRANCH   1   2
ATOM      2  CB  LYS A 131      28.345  25.722  17.026  1.00 20.94     0.034 C 
BRANCH   2   3
ATOM      3  CG  LYS A 131      27.602  24.399  16.928  1.00 22.96     0.005 C 
BRANCH   3   4
ATOM      4  CD  LYS A 131      26.151  24.535  17.298  1.00 24.33     0.041 C 
BRANCH   4   5
ATOM      5  CE  LYS A 131      25.879  23.762  18.584  1.00 26.91     0.338 C 
ATOM      6  NZ  LYS A 131      25.292  24.654  19.612  1.00 27.40     0.618 N 
ENDBRANCH   4   5
ENDBRANCH   3   4
ENDBRANCH   2   3
ENDBRANCH   1   2
END_RES LYS A 131
BEGIN_RES LYS A 135
REMARK  4 active torsions:
REMARK  status: ('A' for Active; 'I' for Inactive)
REMARK    5  A    between atoms: CA   and  CB  
REMARK    6  A    between atoms: CB   and  CG  
REMARK    7  A    between atoms: CG   and  CD  
REMARK    8  A    between atoms: CD   and  CE  
ROOT
ATOM      7  CA  LYS A 135      33.193  34.663   9.290  1.00 25.02     0.186 C 
ENDROOT
BRANCH   7   8
ATOM      8  CB  LYS A 135      32.060  35.360  10.034  1.00 26.63     0.034 C 
BRANCH   8   9
ATOM      9  CG  LYS A 135      30.762  35.383   9.270  1.00 29.45     0.005 C 
BRANCH   9  10
ATOM     10  CD  LYS A 135      29.611  35.790  10.178  1.00 32.00     0.041 C 
BRANCH  10  11
ATOM     11  CE  LYS A 135      28.807  34.574  10.595  1.00 34.25     0.338 C 
ATOM     12  NZ  LYS A 135      28.326  33.815   9.407  1.00 35.99     0.618 N 
ENDBRANCH  10  11
ENDBRANCH   9  10
ENDBRANCH   8   9
ENDBRANCH   7   8
END_RES LYS A 135
