REMARK VINA RESULT:    -4.727      3.054      7.093
REMARK INTER + INTRA:         -22.812
REMARK INTER:                 -12.837
REMARK INTRA:                  -9.975
REMARK UNBOUND:               -10.485
REMARK SMILES CC(=O)N[C@@H]1[C@@H](O)C[C@](OC[C@H]2O[C@@H](O[C@H]3[C@H](O)[C@@H](O)[C@H](OCCN=[N+]=[N-])O[C@@H]3CO)[C@H](O)[C@@H](O)[C@H]2O)(C(=O)O)O[C@H]1C(O)[C@H](O)CNC(=O)OCc1cn(CC(O)c2ccccc2)nn1
REMARK SMILES IDX 9 1 8 2 6 3 5 4 42 5 41 6 10 7 11 8 12 9 14 10 13 11 32 12
REMARK SMILES IDX 34 13 36 14 15 15 16 16 29 17 28 18 21 19 17 20 19 21 30 22
REMARK SMILES IDX 31 23 22 25 23 26 24 27 25 28 26 29 27 30 18 31 20 33 33 35
REMARK SMILES IDX 35 37 37 39 38 41 39 42 40 43 7 45 43 47 44 48 45 50 46 51
REMARK SMILES IDX 47 53 48 54 49 55 50 57 51 58 52 59 53 60 54 61 66 62 55 63
REMARK SMILES IDX 65 64 56 65 57 66 58 67 59 69 60 70 64 71 61 72 63 73 62 74
REMARK SMILES IDX 4 75 2 76 1 78 3 79
REMARK H PARENT 31 24 18 32 20 34 33 36 35 38 37 40 40 44 7 46 44 49 46 52
REMARK H PARENT 48 56 58 68 4 77
REMARK Flexibility Score: inf
ROOT
ATOM      1  C   UNL     1      26.049  36.580   8.815  1.00  0.00     0.272 C 
ATOM      2  C   UNL     1      26.648  37.383   7.723  1.00  0.00     0.113 C 
ATOM      3  C   UNL     1      25.962  38.655   7.368  1.00  0.00     0.145 C 
ATOM      4  C   UNL     1      24.596  38.663   7.978  1.00  0.00     0.142 C 
ATOM      5  C   UNL     1      24.032  37.259   7.854  1.00  0.00     0.178 C 
ATOM      6  O   UNL     1      24.703  36.303   8.553  1.00  0.00    -0.332 OA
ENDROOT
BRANCH   1   7
ATOM      7  O   UNL     1      26.108  37.087  10.079  1.00  0.00    -0.338 OA
BRANCH   7   8
ATOM      8  C   UNL     1      27.309  37.526  10.542  1.00  0.00     0.199 C 
BRANCH   8   9
ATOM      9  C   UNL     1      27.567  37.046  11.951  1.00  0.00     0.179 C 
ATOM     10  C   UNL     1      29.282  37.082  13.483  1.00  0.00     0.282 C 
ATOM     11  O   UNL     1      28.921  36.895  12.176  1.00  0.00    -0.341 OA
ATOM     12  C   UNL     1      29.048  38.479  14.016  1.00  0.00     0.202 C 
ATOM     13  C   UNL     1      27.807  39.029  13.348  1.00  0.00     0.179 C 
ATOM     14  C   UNL     1      26.914  37.848  13.026  1.00  0.00     0.177 C 
BRANCH  10  15
ATOM     15  O   UNL     1      30.635  36.833  13.691  1.00  0.00    -0.341 OA
BRANCH  15  16
ATOM     16  C   UNL     1      30.991  35.513  13.743  1.00  0.00     0.184 C 
ATOM     17  C   UNL     1      30.057  34.847  14.746  1.00  0.00     0.178 C 
ATOM     18  O   UNL     1      30.670  34.694  15.973  1.00  0.00    -0.341 OA
ATOM     19  C   UNL     1      31.222  35.936  16.335  1.00  0.00     0.281 C 
ATOM     20  C   UNL     1      32.438  35.466  14.214  1.00  0.00     0.180 C 
ATOM     21  C   UNL     1      32.562  36.042  15.615  1.00  0.00     0.202 C 
BRANCH  17  22
ATOM     22  C   UNL     1      29.537  33.526  14.205  1.00  0.00     0.191 C 
BRANCH  22  23
ATOM     23  O   UNL     1      30.392  32.476  14.523  1.00  0.00    -0.394 OA
ATOM     24  H   UNL     1      30.847  32.616  15.394  1.00  0.00     0.210 HD
ENDBRANCH  22  23
ENDBRANCH  17  22
BRANCH  19  25
ATOM     25  O   UNL     1      31.348  35.930  17.703  1.00  0.00    -0.350 OA
BRANCH  25  26
ATOM     26  C   UNL     1      30.637  34.954  18.359  1.00  0.00     0.169 C 
BRANCH  26  27
ATOM     27  C   UNL     1      31.480  34.023  19.185  1.00  0.00     0.119 C 
BRANCH  27  28
ATOM     28  N   UNL     1      30.859  32.694  19.228  1.00  0.00    -0.092 NA
ATOM     29  N   UNL     1      30.668  32.178  18.116  1.00  0.00     0.001 N 
ATOM     30  N   UNL     1      30.532  31.414  17.161  1.00  0.00    -0.003 NA
ENDBRANCH  27  28
ENDBRANCH  26  27
ENDBRANCH  25  26
ENDBRANCH  19  25
BRANCH  20  31
ATOM     31  O   UNL     1      32.911  34.161  14.184  1.00  0.00    -0.387 OA
ATOM     32  H   UNL     1      33.322  33.932  15.065  1.00  0.00     0.211 HD
ENDBRANCH  20  31
BRANCH  21  33
ATOM     33  O   UNL     1      33.044  37.337  15.580  1.00  0.00    -0.385 OA
ATOM     34  H   UNL     1      32.283  37.948  15.738  1.00  0.00     0.211 HD
ENDBRANCH  21  33
ENDBRANCH  15  16
ENDBRANCH  10  15
BRANCH  12  35
ATOM     35  O   UNL     1      28.830  38.398  15.396  1.00  0.00    -0.385 OA
ATOM     36  H   UNL     1      27.898  38.706  15.564  1.00  0.00     0.211 HD
ENDBRANCH  12  35
BRANCH  13  37
ATOM     37  O   UNL     1      28.240  39.663  12.186  1.00  0.00    -0.387 OA
ATOM     38  H   UNL     1      27.537  40.128  11.700  1.00  0.00     0.211 HD
ENDBRANCH  13  37
BRANCH  14  39
ATOM     39  O   UNL     1      25.609  38.187  12.761  1.00  0.00    -0.387 OA
ATOM     40  H   UNL     1      25.352  39.086  13.092  1.00  0.00     0.211 HD
ENDBRANCH  14  39
ENDBRANCH   8   9
ENDBRANCH   7   8
ENDBRANCH   1   7
BRANCH   1  41
ATOM     41  C   UNL     1      26.718  35.217   8.732  1.00  0.00     0.364 C 
ATOM     42  O   UNL     1      26.632  34.438   9.667  1.00  0.00    -0.246 OA
BRANCH  41  43
ATOM     43  O   UNL     1      27.402  34.949   7.560  1.00  0.00    -0.477 OA
ATOM     44  H   UNL     1      26.850  34.781   6.745  1.00  0.00     0.296 HD
ENDBRANCH  41  43
ENDBRANCH   1  41
BRANCH   3  45
ATOM     45  O   UNL     1      26.728  39.773   7.702  1.00  0.00    -0.391 OA
ATOM     46  H   UNL     1      27.675  39.460   7.717  1.00  0.00     0.211 HD
ENDBRANCH   3  45
BRANCH   5  47
ATOM     47  C   UNL     1      22.565  37.373   8.183  1.00  0.00     0.176 C 
BRANCH  47  48
ATOM     48  O   UNL     1      22.431  38.098   9.377  1.00  0.00    -0.388 OA
ATOM     49  H   UNL     1      22.082  38.997   9.123  1.00  0.00     0.211 HD
ENDBRANCH  47  48
BRANCH  47  50
ATOM     50  C   UNL     1      21.888  36.044   8.249  1.00  0.00     0.165 C 
BRANCH  50  51
ATOM     51  O   UNL     1      20.911  35.897   7.302  1.00  0.00    -0.388 OA
ATOM     52  H   UNL     1      20.008  35.819   7.647  1.00  0.00     0.211 HD
ENDBRANCH  50  51
BRANCH  50  53
ATOM     53  C   UNL     1      21.521  35.595   9.640  1.00  0.00     0.154 C 
BRANCH  53  54
ATOM     54  N   UNL     1      22.531  34.862  10.344  1.00  0.00    -0.319 N 
ATOM     55  C   UNL     1      23.358  35.401  11.372  1.00  0.00     0.407 C 
ATOM     56  H   UNL     1      22.690  33.831  10.103  1.00  0.00     0.167 HD
ATOM     57  O   UNL     1      23.233  36.584  11.732  1.00  0.00    -0.225 OA
BRANCH  55  58
ATOM     58  O   UNL     1      24.316  34.631  11.994  1.00  0.00    -0.443 OA
BRANCH  58  59
ATOM     59  C   UNL     1      24.765  34.867  13.328  1.00  0.00     0.294 C 
BRANCH  59  60
ATOM     60  C   UNL     1      24.970  33.556  14.023  1.00  0.00     0.120 A 
ATOM     61  C   UNL     1      25.335  33.295  15.318  1.00  0.00     0.138 A 
ATOM     62  N   UNL     1      24.797  32.357  13.424  1.00  0.00    -0.132 NA
ATOM     63  N   UNL     1      25.378  31.941  15.495  1.00  0.00    -0.249 N 
ATOM     64  N   UNL     1      25.046  31.441  14.327  1.00  0.00    -0.067 NA
BRANCH  63  65
ATOM     65  C   UNL     1      25.718  31.254  16.731  1.00  0.00     0.182 C 
BRANCH  65  66
ATOM     66  C   UNL     1      26.740  30.165  16.455  1.00  0.00     0.166 C 
BRANCH  66  67
ATOM     67  O   UNL     1      27.832  30.841  15.861  1.00  0.00    -0.386 OA
ATOM     68  H   UNL     1      27.554  31.762  15.599  1.00  0.00     0.211 HD
ENDBRANCH  66  67
BRANCH  66  69
ATOM     69  C   UNL     1      27.181  29.438  17.649  1.00  0.00    -0.018 A 
ATOM     70  C   UNL     1      27.099  28.085  17.768  1.00  0.00     0.006 A 
ATOM     71  C   UNL     1      27.687  30.233  18.687  1.00  0.00     0.006 A 
ATOM     72  C   UNL     1      27.529  27.499  18.948  1.00  0.00     0.000 A 
ATOM     73  C   UNL     1      28.105  29.631  19.843  1.00  0.00     0.000 A 
ATOM     74  C   UNL     1      28.028  28.259  19.980  1.00  0.00     0.000 A 
ENDBRANCH  66  69
ENDBRANCH  65  66
ENDBRANCH  63  65
ENDBRANCH  59  60
ENDBRANCH  58  59
ENDBRANCH  55  58
ENDBRANCH  53  54
ENDBRANCH  50  53
ENDBRANCH  47  50
ENDBRANCH   5  47
BRANCH   4  75
ATOM     75  N   UNL     1      23.690  39.504   7.180  1.00  0.00    -0.348 N 
ATOM     76  C   UNL     1      23.484  40.878   7.461  1.00  0.00     0.217 C 
ATOM     77  H   UNL     1      23.169  39.094   6.375  1.00  0.00     0.163 HD
ATOM     78  C   UNL     1      22.578  41.757   6.679  1.00  0.00     0.114 C 
ATOM     79  O   UNL     1      24.112  41.380   8.434  1.00  0.00    -0.275 OA
ENDBRANCH   4  75
TORSDOF 33
BEGIN_RES LYS A 131
REMARK  4 active torsions:
REMARK  status: ('A' for Active; 'I' for Inactive)
REMARK    1  A    between atoms: CA   and  CB  
REMARK    2  A    between atoms: CB   and  CG  
REMARK    3  A    between atoms: CG   and  CD  
REMARK    4  A    between atoms: CD   and  CE  
ROOT
ATOM      1  CA  LYS A 131      29.867  25.555  16.977  1.00 20.52     0.186 C 
ENDROOT
BRANCH   1   2
ATOM      2  CB  LYS A 131      28.345  25.722  17.026  1.00 20.94     0.034 C 
BRANCH   2   3
ATOM      3  CG  LYS A 131      27.602  24.400  16.912  1.00 22.96     0.005 C 
BRANCH   3   4
ATOM      4  CD  LYS A 131      26.134  24.549  17.201  1.00 24.33     0.041 C 
BRANCH   4   5
ATOM      5  CE  LYS A 131      25.572  23.216  17.684  1.00 26.91     0.338 C 
ATOM      6  NZ  LYS A 131      25.528  23.177  19.164  1.00 27.40     0.618 N 
ENDBRANCH   4   5
ENDBRANCH   3   4
ENDBRANCH   2   3
ENDBRANCH   1   2
END_RES LYS A 131
BEGIN_RES LYS A 135
REMARK  4 active torsions:
REMARK  status: ('A' for Active; 'I' for Inactive)
REMARK    5  A    between atoms: CA   and  CB  
REMARK    6  A    between atoms: CB   and  CG  
REMARK    7  A    between atoms: CG   and  CD  
REMARK    8  A    between atoms: CD   and  CE  
ROOT
ATOM      7  CA  LYS A 135      33.193  34.663   9.290  1.00 25.02     0.186 C 
ENDROOT
BRANCH   7   8
ATOM      8  CB  LYS A 135      32.060  35.360  10.034  1.00 26.63     0.034 C 
BRANCH   8   9
ATOM      9  CG  LYS A 135      30.727  35.251   9.340  1.00 29.45     0.005 C 
BRANCH   9  10
ATOM     10  CD  LYS A 135      30.218  36.627   8.936  1.00 32.00     0.041 C 
BRANCH  10  11
ATOM     11  CE  LYS A 135      31.094  37.714   9.530  1.00 34.25     0.338 C 
ATOM     12  NZ  LYS A 135      31.492  38.707   8.495  1.00 35.99     0.618 N 
ENDBRANCH  10  11
ENDBRANCH   9  10
ENDBRANCH   8   9
ENDBRANCH   7   8
END_RES LYS A 135
