REMARK VINA RESULT:    -4.049      6.212     11.807
REMARK INTER + INTRA:         -21.885
REMARK INTER:                 -10.119
REMARK INTRA:                 -11.766
REMARK UNBOUND:               -10.971
REMARK SMILES C=CCCCCn1cc(COC(=O)NC[C@@H](O)C(O)[C@@H]2O[C@@](OC[C@H]3O[C@@H](O[C@H]4[C@H](O)[C@@H](O)[C@H](OCCN=[N+]=[N-])O[C@@H]4CO)[C@H](O)[C@@H](O)[C@H]3O)(C(=O)O)C[C@H](O)[C@H]2NC(C)=O)nn1
REMARK SMILES IDX 18 1 20 2 22 3 54 4 21 5 55 6 57 7 23 8 24 9 25 10 27 11
REMARK SMILES IDX 26 12 45 13 47 14 49 15 28 16 29 17 42 18 41 19 34 20 30 21
REMARK SMILES IDX 32 22 43 23 44 24 35 26 36 27 37 28 38 29 39 30 40 31 31 32
REMARK SMILES IDX 33 34 46 36 48 38 50 40 51 42 52 43 53 44 56 46 58 48 59 49
REMARK SMILES IDX 60 51 61 52 19 53 16 55 17 56 15 58 14 59 12 60 13 62 11 63
REMARK SMILES IDX 10 64 9 65 8 66 62 67 7 68 63 69 6 70 5 71 4 72 3 73 2 74
REMARK SMILES IDX 1 75
REMARK H PARENT 44 25 31 33 33 35 46 37 48 39 50 41 53 45 56 47 58 50 19 54
REMARK H PARENT 17 57 14 61
REMARK Flexibility Score: inf
ROOT
ATOM      1  C   UNL     1      24.540  37.265  13.300  1.00  0.00     0.176 C 
ENDROOT
BRANCH   1   2
ATOM      2  C   UNL     1      25.194  36.762  12.009  1.00  0.00     0.178 C 
ATOM      3  C   UNL     1      27.257  36.351  11.081  1.00  0.00     0.272 C 
ATOM      4  C   UNL     1      26.793  36.871   9.785  1.00  0.00     0.113 C 
ATOM      5  O   UNL     1      26.507  37.058  12.097  1.00  0.00    -0.332 OA
ATOM      6  C   UNL     1      25.352  36.768   9.533  1.00  0.00     0.145 C 
ATOM      7  C   UNL     1      24.473  36.938  10.761  1.00  0.00     0.142 C 
BRANCH   3   8
ATOM      8  O   UNL     1      28.538  36.757  11.426  1.00  0.00    -0.338 OA
BRANCH   8   9
ATOM      9  C   UNL     1      28.803  37.509  12.476  1.00  0.00     0.199 C 
BRANCH   9  10
ATOM     10  C   UNL     1      29.585  37.001  13.625  1.00  0.00     0.179 C 
ATOM     11  C   UNL     1      29.348  35.545  15.445  1.00  0.00     0.282 C 
ATOM     12  O   UNL     1      28.729  36.405  14.581  1.00  0.00    -0.341 OA
ATOM     13  C   UNL     1      30.819  35.690  15.505  1.00  0.00     0.202 C 
ATOM     14  C   UNL     1      31.510  35.638  14.170  1.00  0.00     0.179 C 
ATOM     15  C   UNL     1      30.491  35.893  13.102  1.00  0.00     0.177 C 
BRANCH  11  16
ATOM     16  O   UNL     1      28.828  34.295  15.240  1.00  0.00    -0.341 OA
BRANCH  16  17
ATOM     17  C   UNL     1      28.820  33.441  16.302  1.00  0.00     0.184 C 
ATOM     18  C   UNL     1      29.252  32.071  15.836  1.00  0.00     0.178 C 
ATOM     19  O   UNL     1      28.500  31.065  16.465  1.00  0.00    -0.341 OA
ATOM     20  C   UNL     1      27.258  31.032  15.839  1.00  0.00     0.281 C 
ATOM     21  C   UNL     1      27.391  33.255  16.862  1.00  0.00     0.180 C 
ATOM     22  C   UNL     1      26.590  32.371  15.933  1.00  0.00     0.202 C 
BRANCH  18  23
ATOM     23  C   UNL     1      30.739  31.821  16.026  1.00  0.00     0.191 C 
BRANCH  23  24
ATOM     24  O   UNL     1      31.422  31.981  14.833  1.00  0.00    -0.394 OA
ATOM     25  H   UNL     1      31.096  32.797  14.386  1.00  0.00     0.210 HD
ENDBRANCH  23  24
ENDBRANCH  18  23
BRANCH  20  26
ATOM     26  O   UNL     1      26.505  30.059  16.498  1.00  0.00    -0.350 OA
BRANCH  26  27
ATOM     27  C   UNL     1      25.139  30.223  16.354  1.00  0.00     0.169 C 
BRANCH  27  28
ATOM     28  C   UNL     1      24.500  29.900  17.692  1.00  0.00     0.119 C 
BRANCH  28  29
ATOM     29  N   UNL     1      25.279  30.402  18.793  1.00  0.00    -0.092 NA
ATOM     30  N   UNL     1      24.847  31.271  19.540  1.00  0.00     0.001 N 
ATOM     31  N   UNL     1      24.233  32.005  20.315  1.00  0.00    -0.003 NA
ENDBRANCH  28  29
ENDBRANCH  27  28
ENDBRANCH  26  27
ENDBRANCH  20  26
BRANCH  21  32
ATOM     32  O   UNL     1      27.542  32.567  18.063  1.00  0.00    -0.387 OA
ATOM     33  H   UNL     1      28.058  31.739  17.990  1.00  0.00     0.211 HD
ENDBRANCH  21  32
BRANCH  22  34
ATOM     34  O   UNL     1      26.412  32.991  14.700  1.00  0.00    -0.385 OA
ATOM     35  H   UNL     1      25.567  32.635  14.312  1.00  0.00     0.211 HD
ENDBRANCH  22  34
ENDBRANCH  16  17
ENDBRANCH  11  16
BRANCH  13  36
ATOM     36  O   UNL     1      31.099  36.936  16.083  1.00  0.00    -0.385 OA
ATOM     37  H   UNL     1      30.294  37.455  16.260  1.00  0.00     0.211 HD
ENDBRANCH  13  36
BRANCH  14  38
ATOM     38  O   UNL     1      32.175  34.428  13.965  1.00  0.00    -0.387 OA
ATOM     39  H   UNL     1      31.743  33.988  13.204  1.00  0.00     0.211 HD
ENDBRANCH  14  38
BRANCH  15  40
ATOM     40  O   UNL     1      29.743  34.748  12.799  1.00  0.00    -0.387 OA
ATOM     41  H   UNL     1      28.809  34.940  12.596  1.00  0.00     0.211 HD
ENDBRANCH  15  40
ENDBRANCH   9  10
ENDBRANCH   8   9
ENDBRANCH   3   8
BRANCH   3  42
ATOM     42  C   UNL     1      26.918  34.949  11.284  1.00  0.00     0.364 C 
ATOM     43  O   UNL     1      26.885  34.451  12.431  1.00  0.00    -0.246 OA
BRANCH  42  44
ATOM     44  O   UNL     1      26.631  34.109  10.250  1.00  0.00    -0.477 OA
ATOM     45  H   UNL     1      25.690  33.840  10.021  1.00  0.00     0.296 HD
ENDBRANCH  42  44
ENDBRANCH   3  42
BRANCH   6  46
ATOM     46  O   UNL     1      24.994  37.727   8.553  1.00  0.00    -0.391 OA
ATOM     47  H   UNL     1      24.012  37.798   8.452  1.00  0.00     0.211 HD
ENDBRANCH   6  46
BRANCH   7  48
ATOM     48  N   UNL     1      23.363  35.968  10.683  1.00  0.00    -0.348 N 
ATOM     49  C   UNL     1      22.006  36.330  10.845  1.00  0.00     0.217 C 
ATOM     50  H   UNL     1      23.537  34.942  10.503  1.00  0.00     0.163 HD
ATOM     51  C   UNL     1      20.916  35.288  10.764  1.00  0.00     0.114 C 
ATOM     52  O   UNL     1      21.722  37.536  11.058  1.00  0.00    -0.275 OA
ENDBRANCH   7  48
ENDBRANCH   1   2
BRANCH   1  53
ATOM     53  O   UNL     1      23.498  36.231  13.570  1.00  0.00    -0.388 OA
ATOM     54  H   UNL     1      23.427  36.332  14.573  1.00  0.00     0.211 HD
ENDBRANCH   1  53
BRANCH   1  55
ATOM     55  C   UNL     1      25.356  37.153  14.508  1.00  0.00     0.165 C 
BRANCH  55  56
ATOM     56  O   UNL     1      25.998  35.908  14.696  1.00  0.00    -0.388 OA
ATOM     57  H   UNL     1      25.679  35.586  15.574  1.00  0.00     0.211 HD
ENDBRANCH  55  56
BRANCH  55  58
ATOM     58  C   UNL     1      24.827  37.628  15.796  1.00  0.00     0.154 C 
BRANCH  58  59
ATOM     59  N   UNL     1      23.895  36.783  16.437  1.00  0.00    -0.319 N 
ATOM     60  C   UNL     1      24.023  35.912  17.525  1.00  0.00     0.407 C 
ATOM     61  H   UNL     1      22.891  36.810  16.015  1.00  0.00     0.167 HD
ATOM     62  O   UNL     1      25.108  35.767  18.111  1.00  0.00    -0.225 OA
BRANCH  60  63
ATOM     63  O   UNL     1      22.932  35.169  17.997  1.00  0.00    -0.443 OA
BRANCH  63  64
ATOM     64  C   UNL     1      22.794  33.821  17.546  1.00  0.00     0.294 C 
BRANCH  64  65
ATOM     65  C   UNL     1      22.406  33.785  16.112  1.00  0.00     0.120 A 
ATOM     66  C   UNL     1      22.850  32.834  15.195  1.00  0.00     0.138 A 
ATOM     67  N   UNL     1      21.599  34.607  15.425  1.00  0.00    -0.132 NA
ATOM     68  N   UNL     1      22.295  33.126  14.015  1.00  0.00    -0.252 N 
ATOM     69  N   UNL     1      21.546  34.189  14.156  1.00  0.00    -0.067 NA
BRANCH  68  70
ATOM     70  C   UNL     1      22.526  32.342  12.794  1.00  0.00     0.146 C 
BRANCH  70  71
ATOM     71  C   UNL     1      23.688  31.413  13.025  1.00  0.00     0.024 C 
BRANCH  71  72
ATOM     72  C   UNL     1      23.243  30.004  12.699  1.00  0.00     0.006 C 
BRANCH  72  73
ATOM     73  C   UNL     1      21.765  29.854  12.980  1.00  0.00     0.027 C 
BRANCH  73  74
ATOM     74  C   UNL     1      21.126  28.923  12.024  1.00  0.00    -0.035 C 
ATOM     75  C   UNL     1      19.815  28.904  11.884  1.00  0.00     0.004 C 
ENDBRANCH  73  74
ENDBRANCH  72  73
ENDBRANCH  71  72
ENDBRANCH  70  71
ENDBRANCH  68  70
ENDBRANCH  64  65
ENDBRANCH  63  64
ENDBRANCH  60  63
ENDBRANCH  58  59
ENDBRANCH  55  58
ENDBRANCH   1  55
TORSDOF 34
BEGIN_RES LYS A 131
REMARK  4 active torsions:
REMARK  status: ('A' for Active; 'I' for Inactive)
REMARK    1  A    between atoms: CA   and  CB  
REMARK    2  A    between atoms: CB   and  CG  
REMARK    3  A    between atoms: CG   and  CD  
REMARK    4  A    between atoms: CD   and  CE  
ROOT
ATOM      1  CA  LYS A 131      29.867  25.555  16.977  1.00 20.52     0.186 C 
ENDROOT
BRANCH   1   2
ATOM      2  CB  LYS A 131      28.345  25.722  17.026  1.00 20.94     0.034 C 
BRANCH   2   3
ATOM      3  CG  LYS A 131      27.602  24.398  16.939  1.00 22.96     0.005 C 
BRANCH   3   4
ATOM      4  CD  LYS A 131      26.146  24.541  17.286  1.00 24.33     0.041 C 
BRANCH   4   5
ATOM      5  CE  LYS A 131      25.973  24.460  18.799  1.00 26.91     0.338 C 
ATOM      6  NZ  LYS A 131      25.884  25.818  19.385  1.00 27.40     0.618 N 
ENDBRANCH   4   5
ENDBRANCH   3   4
ENDBRANCH   2   3
ENDBRANCH   1   2
END_RES LYS A 131
BEGIN_RES LYS A 135
REMARK  4 active torsions:
REMARK  status: ('A' for Active; 'I' for Inactive)
REMARK    5  A    between atoms: CA   and  CB  
REMARK    6  A    between atoms: CB   and  CG  
REMARK    7  A    between atoms: CG   and  CD  
REMARK    8  A    between atoms: CD   and  CE  
ROOT
ATOM      7  CA  LYS A 135      33.193  34.663   9.290  1.00 25.02     0.186 C 
ENDROOT
BRANCH   7   8
ATOM      8  CB  LYS A 135      32.060  35.360  10.034  1.00 26.63     0.034 C 
BRANCH   8   9
ATOM      9  CG  LYS A 135      30.888  35.711   9.155  1.00 29.45     0.005 C 
BRANCH   9  10
ATOM     10  CD  LYS A 135      30.416  34.491   8.378  1.00 32.00     0.041 C 
BRANCH  10  11
ATOM     11  CE  LYS A 135      28.976  34.666   7.936  1.00 34.25     0.338 C 
ATOM     12  NZ  LYS A 135      28.878  35.610   6.788  1.00 35.99     0.618 N 
ENDBRANCH  10  11
ENDBRANCH   9  10
ENDBRANCH   8   9
ENDBRANCH   7   8
END_RES LYS A 135
