REMARK VINA RESULT:    -5.832      4.886      9.422
REMARK INTER + INTRA:         -22.273
REMARK INTER:                 -14.353
REMARK INTRA:                  -7.920
REMARK UNBOUND:                -7.575
REMARK SMILES CC(=O)N[C@@H]1[C@@H](O)C[C@](OC[C@H]2O[C@@H](O[C@H]3[C@H](O)[C@@H](O)[C@H](OCCN=[N+]=[N-])O[C@@H]3CO)[C@H](O)[C@@H](O)[C@H]2O)(C(=O)O)O[C@H]1C(O)[C@H](O)CNC(=O)OCc1cn(Cc2ccccc2Br)nn1
REMARK SMILES IDX 9 1 8 2 6 3 5 4 42 5 41 6 10 7 11 8 12 9 14 10 13 11 32 12
REMARK SMILES IDX 34 13 36 14 15 15 16 16 29 17 28 18 21 19 17 20 19 21 30 22
REMARK SMILES IDX 31 23 22 25 23 26 24 27 25 28 26 29 27 30 18 31 20 33 33 35
REMARK SMILES IDX 35 37 37 39 38 41 39 42 40 43 7 45 43 47 44 48 45 50 46 51
REMARK SMILES IDX 47 53 48 54 49 55 50 57 51 58 52 59 53 60 54 61 65 62 55 63
REMARK SMILES IDX 64 64 56 65 57 66 58 67 62 68 59 69 61 70 63 71 60 72 4 73
REMARK SMILES IDX 2 74 1 76 3 77
REMARK H PARENT 31 24 18 32 20 34 33 36 35 38 37 40 40 44 7 46 44 49 46 52
REMARK H PARENT 48 56 4 75
REMARK Flexibility Score: inf
ROOT
ATOM      1  C   UNL     1      30.687  28.595  22.901  1.00  0.00     0.272 C 
ATOM      2  C   UNL     1      31.002  27.996  24.214  1.00  0.00     0.113 C 
ATOM      3  C   UNL     1      32.090  26.989  24.111  1.00  0.00     0.145 C 
ATOM      4  C   UNL     1      33.307  27.632  23.506  1.00  0.00     0.142 C 
ATOM      5  C   UNL     1      33.007  28.659  22.483  1.00  0.00     0.178 C 
ATOM      6  O   UNL     1      31.888  29.402  22.617  1.00  0.00    -0.332 OA
ENDROOT
BRANCH   1   7
ATOM      7  O   UNL     1      29.691  29.501  22.892  1.00  0.00    -0.338 OA
BRANCH   7   8
ATOM      8  C   UNL     1      28.423  29.361  22.677  1.00  0.00     0.199 C 
BRANCH   8   9
ATOM      9  C   UNL     1      27.686  29.139  21.432  1.00  0.00     0.179 C 
ATOM     10  C   UNL     1      27.089  29.796  19.317  1.00  0.00     0.282 C 
ATOM     11  O   UNL     1      28.108  29.842  20.299  1.00  0.00    -0.341 OA
ATOM     12  C   UNL     1      27.175  28.434  18.687  1.00  0.00     0.202 C 
ATOM     13  C   UNL     1      27.190  27.355  19.714  1.00  0.00     0.179 C 
ATOM     14  C   UNL     1      27.127  27.792  21.151  1.00  0.00     0.177 C 
BRANCH  10  15
ATOM     15  O   UNL     1      27.342  30.814  18.447  1.00  0.00    -0.341 OA
BRANCH  15  16
ATOM     16  C   UNL     1      28.629  31.017  18.050  1.00  0.00     0.184 C 
ATOM     17  C   UNL     1      29.210  32.354  18.353  1.00  0.00     0.178 C 
ATOM     18  O   UNL     1      29.799  32.848  17.192  1.00  0.00    -0.341 OA
ATOM     19  C   UNL     1      28.735  33.046  16.275  1.00  0.00     0.281 C 
ATOM     20  C   UNL     1      28.870  30.650  16.594  1.00  0.00     0.180 C 
ATOM     21  C   UNL     1      28.343  31.727  15.667  1.00  0.00     0.202 C 
BRANCH  17  22
ATOM     22  C   UNL     1      30.322  32.278  19.398  1.00  0.00     0.191 C 
BRANCH  22  23
ATOM     23  O   UNL     1      30.763  30.963  19.548  1.00  0.00    -0.394 OA
ATOM     24  H   UNL     1      31.741  30.882  19.466  1.00  0.00     0.210 HD
ENDBRANCH  22  23
ENDBRANCH  17  22
BRANCH  19  25
ATOM     25  O   UNL     1      29.209  33.964  15.341  1.00  0.00    -0.350 OA
BRANCH  25  26
ATOM     26  C   UNL     1      30.280  33.452  14.609  1.00  0.00     0.169 C 
BRANCH  26  27
ATOM     27  C   UNL     1      31.137  34.624  14.163  1.00  0.00     0.119 C 
BRANCH  27  28
ATOM     28  N   UNL     1      32.392  34.552  14.868  1.00  0.00    -0.092 NA
ATOM     29  N   UNL     1      33.472  34.704  14.288  1.00  0.00     0.001 N 
ATOM     30  N   UNL     1      34.449  34.440  13.558  1.00  0.00    -0.003 NA
ENDBRANCH  27  28
ENDBRANCH  26  27
ENDBRANCH  25  26
ENDBRANCH  19  25
BRANCH  20  31
ATOM     31  O   UNL     1      30.237  30.545  16.329  1.00  0.00    -0.387 OA
ATOM     32  H   UNL     1      30.683  30.398  17.210  1.00  0.00     0.211 HD
ENDBRANCH  20  31
BRANCH  21  33
ATOM     33  O   UNL     1      27.003  31.604  15.402  1.00  0.00    -0.385 OA
ATOM     34  H   UNL     1      26.808  31.970  14.507  1.00  0.00     0.211 HD
ENDBRANCH  21  33
ENDBRANCH  15  16
ENDBRANCH  10  15
BRANCH  12  35
ATOM     35  O   UNL     1      26.063  28.182  17.867  1.00  0.00    -0.385 OA
ATOM     36  H   UNL     1      26.327  28.430  16.952  1.00  0.00     0.211 HD
ENDBRANCH  12  35
BRANCH  13  37
ATOM     37  O   UNL     1      28.350  26.585  19.547  1.00  0.00    -0.387 OA
ATOM     38  H   UNL     1      28.152  25.673  19.256  1.00  0.00     0.211 HD
ENDBRANCH  13  37
BRANCH  14  39
ATOM     39  O   UNL     1      27.725  26.788  21.898  1.00  0.00    -0.387 OA
ATOM     40  H   UNL     1      27.179  26.384  22.589  1.00  0.00     0.211 HD
ENDBRANCH  14  39
ENDBRANCH   8   9
ENDBRANCH   7   8
ENDBRANCH   1   7
BRANCH   1  41
ATOM     41  C   UNL     1      30.685  27.708  21.719  1.00  0.00     0.364 C 
ATOM     42  O   UNL     1      30.565  26.462  21.725  1.00  0.00    -0.246 OA
BRANCH  41  43
ATOM     43  O   UNL     1      30.836  28.276  20.465  1.00  0.00    -0.477 OA
ATOM     44  H   UNL     1      30.631  27.757  19.610  1.00  0.00     0.296 HD
ENDBRANCH  41  43
ENDBRANCH   1  41
BRANCH   3  45
ATOM     45  O   UNL     1      32.405  26.637  25.464  1.00  0.00    -0.391 OA
ATOM     46  H   UNL     1      32.074  25.742  25.672  1.00  0.00     0.211 HD
ENDBRANCH   3  45
BRANCH   5  47
ATOM     47  C   UNL     1      34.175  29.646  22.397  1.00  0.00     0.176 C 
BRANCH  47  48
ATOM     48  O   UNL     1      35.107  29.265  23.351  1.00  0.00    -0.388 OA
ATOM     49  H   UNL     1      35.870  28.785  22.985  1.00  0.00     0.211 HD
ENDBRANCH  47  48
BRANCH  47  50
ATOM     50  C   UNL     1      33.760  31.054  22.642  1.00  0.00     0.165 C 
BRANCH  50  51
ATOM     51  O   UNL     1      33.045  31.588  21.555  1.00  0.00    -0.388 OA
ATOM     52  H   UNL     1      32.566  32.410  21.832  1.00  0.00     0.211 HD
ENDBRANCH  50  51
BRANCH  50  53
ATOM     53  C   UNL     1      34.966  31.942  22.808  1.00  0.00     0.154 C 
BRANCH  53  54
ATOM     54  N   UNL     1      35.759  31.940  21.631  1.00  0.00    -0.319 N 
ATOM     55  C   UNL     1      37.106  32.355  21.581  1.00  0.00     0.407 C 
ATOM     56  H   UNL     1      35.303  31.603  20.732  1.00  0.00     0.167 HD
ATOM     57  O   UNL     1      37.706  32.762  22.607  1.00  0.00    -0.225 OA
BRANCH  55  58
ATOM     58  O   UNL     1      37.833  32.330  20.383  1.00  0.00    -0.443 OA
BRANCH  58  59
ATOM     59  C   UNL     1      39.097  32.929  20.273  1.00  0.00     0.294 C 
BRANCH  59  60
ATOM     60  C   UNL     1      39.243  33.834  19.111  1.00  0.00     0.120 A 
ATOM     61  C   UNL     1      38.192  34.161  18.239  1.00  0.00     0.138 A 
ATOM     62  N   UNL     1      40.308  34.496  18.652  1.00  0.00    -0.132 NA
ATOM     63  N   UNL     1      38.666  34.989  17.315  1.00  0.00    -0.248 N 
ATOM     64  N   UNL     1      39.962  35.181  17.584  1.00  0.00    -0.067 NA
BRANCH  63  65
ATOM     65  C   UNL     1      37.972  35.624  16.196  1.00  0.00     0.182 C 
BRANCH  65  66
ATOM     66  C   UNL     1      38.296  35.026  14.884  1.00  0.00    -0.012 A 
ATOM     67  C   UNL     1      37.640  33.831  14.545  1.00  0.00     0.007 A 
ATOM     68  C   UNL     1      39.205  35.544  14.001  1.00  0.00     0.023 A 
ATOM     69  C   UNL     1      37.931  33.231  13.358  1.00  0.00     0.000 A 
ATOM     70  C   UNL     1      39.491  34.920  12.797  1.00  0.00     0.016 A 
ATOM     71  Br  UNL     1      40.081  37.188  14.371  1.00  0.00    -0.050 Br
ATOM     72  C   UNL     1      38.843  33.755  12.483  1.00  0.00     0.001 A 
ENDBRANCH  65  66
ENDBRANCH  63  65
ENDBRANCH  59  60
ENDBRANCH  58  59
ENDBRANCH  55  58
ENDBRANCH  53  54
ENDBRANCH  50  53
ENDBRANCH  47  50
ENDBRANCH   5  47
BRANCH   4  73
ATOM     73  N   UNL     1      34.152  26.606  22.953  1.00  0.00    -0.348 N 
ATOM     74  C   UNL     1      35.215  25.989  23.678  1.00  0.00     0.217 C 
ATOM     75  H   UNL     1      34.030  26.259  21.978  1.00  0.00     0.163 HD
ATOM     76  C   UNL     1      36.056  24.929  23.039  1.00  0.00     0.114 C 
ATOM     77  O   UNL     1      35.418  26.355  24.844  1.00  0.00    -0.275 OA
ENDBRANCH   4  73
TORSDOF 31
BEGIN_RES LYS A 131
REMARK  4 active torsions:
REMARK  status: ('A' for Active; 'I' for Inactive)
REMARK    1  A    between atoms: CA   and  CB  
REMARK    2  A    between atoms: CB   and  CG  
REMARK    3  A    between atoms: CG   and  CD  
REMARK    4  A    between atoms: CD   and  CE  
ROOT
ATOM      1  CA  LYS A 131      29.867  25.555  16.977  1.00 20.52     0.186 C 
ENDROOT
BRANCH   1   2
ATOM      2  CB  LYS A 131      28.345  25.722  17.026  1.00 20.94     0.034 C 
BRANCH   2   3
ATOM      3  CG  LYS A 131      27.600  24.411  16.827  1.00 22.96     0.005 C 
BRANCH   3   4
ATOM      4  CD  LYS A 131      26.512  24.217  17.847  1.00 24.33     0.041 C 
BRANCH   4   5
ATOM      5  CE  LYS A 131      25.194  24.749  17.292  1.00 26.91     0.338 C 
ATOM      6  NZ  LYS A 131      24.131  24.677  18.322  1.00 27.40     0.618 N 
ENDBRANCH   4   5
ENDBRANCH   3   4
ENDBRANCH   2   3
ENDBRANCH   1   2
END_RES LYS A 131
BEGIN_RES LYS A 135
REMARK  4 active torsions:
REMARK  status: ('A' for Active; 'I' for Inactive)
REMARK    5  A    between atoms: CA   and  CB  
REMARK    6  A    between atoms: CB   and  CG  
REMARK    7  A    between atoms: CG   and  CD  
REMARK    8  A    between atoms: CD   and  CE  
ROOT
ATOM      7  CA  LYS A 135      33.193  34.663   9.290  1.00 25.02     0.186 C 
ENDROOT
BRANCH   7   8
ATOM      8  CB  LYS A 135      32.060  35.360  10.034  1.00 26.63     0.034 C 
BRANCH   8   9
ATOM      9  CG  LYS A 135      30.698  34.791   9.728  1.00 29.45     0.005 C 
BRANCH   9  10
ATOM     10  CD  LYS A 135      30.563  34.493   8.242  1.00 32.00     0.041 C 
BRANCH  10  11
ATOM     11  CE  LYS A 135      29.259  35.049   7.704  1.00 34.25     0.338 C 
ATOM     12  NZ  LYS A 135      28.821  36.239   8.484  1.00 35.99     0.618 N 
ENDBRANCH  10  11
ENDBRANCH   9  10
ENDBRANCH   8   9
ENDBRANCH   7   8
END_RES LYS A 135
