REMARK VINA RESULT:    -4.389      3.882      8.017
REMARK INTER + INTRA:         -22.692
REMARK INTER:                 -10.328
REMARK INTRA:                 -12.364
REMARK UNBOUND:               -11.119
REMARK SMILES CC(=O)N[C@@H]1[C@@H](O)C[C@](OC[C@H]2O[C@@H](O[C@H]3[C@H](O)[C@@H](O)[C@H](OCCN=[N+]=[N-])O[C@@H]3CO)[C@H](O)[C@@H](O)[C@H]2O)(C(=O)O)O[C@H]1C(O)[C@H](O)CNC(=O)OCc1cn(CC(O)CO)nn1
REMARK SMILES IDX 43 1 42 2 9 3 8 4 41 5 6 6 5 7 10 8 11 9 12 10 14 11 13 12
REMARK SMILES IDX 32 13 34 14 36 15 15 16 16 17 29 18 28 19 21 20 17 21 19 22
REMARK SMILES IDX 30 23 31 24 22 26 23 27 24 28 25 29 26 30 27 31 18 32 20 34
REMARK SMILES IDX 33 36 35 38 37 40 38 42 39 43 40 44 7 46 4 48 2 49 1 51 3 52
REMARK SMILES IDX 44 53 45 55 46 56 47 58 48 59 49 60 50 62 51 63 52 64 53 65
REMARK SMILES IDX 54 66 62 67 55 68 61 69 56 70 57 71 58 72 59 74 60 75
REMARK H PARENT 31 25 18 33 20 35 33 37 35 39 37 41 40 45 7 47 4 50 44 54
REMARK H PARENT 46 57 48 61 58 73 60 76
REMARK Flexibility Score: inf
ROOT
ATOM      1  C   UNL     1      28.463  37.866   7.289  1.00  0.00     0.176 C 
ENDROOT
BRANCH   1   2
ATOM      2  C   UNL     1      29.358  39.102   7.083  1.00  0.00     0.178 C 
ATOM      3  C   UNL     1      31.140  40.311   8.054  1.00  0.00     0.272 C 
ATOM      4  C   UNL     1      30.369  41.594   7.918  1.00  0.00     0.113 C 
ATOM      5  O   UNL     1      30.238  39.237   8.071  1.00  0.00    -0.332 OA
ATOM      6  C   UNL     1      28.922  41.487   7.613  1.00  0.00     0.145 C 
ATOM      7  C   UNL     1      28.488  40.283   6.864  1.00  0.00     0.142 C 
BRANCH   3   8
ATOM      8  O   UNL     1      31.815  40.285   9.185  1.00  0.00    -0.338 OA
BRANCH   8   9
ATOM      9  C   UNL     1      31.888  40.742  10.362  1.00  0.00     0.199 C 
BRANCH   9  10
ATOM     10  C   UNL     1      31.194  40.168  11.554  1.00  0.00     0.179 C 
ATOM     11  C   UNL     1      29.586  40.686  13.096  1.00  0.00     0.282 C 
ATOM     12  O   UNL     1      29.973  40.913  11.780  1.00  0.00    -0.341 OA
ATOM     13  C   UNL     1      30.061  39.404  13.688  1.00  0.00     0.202 C 
ATOM     14  C   UNL     1      30.240  38.273  12.721  1.00  0.00     0.179 C 
ATOM     15  C   UNL     1      30.625  38.766  11.336  1.00  0.00     0.177 C 
BRANCH  11  16
ATOM     16  O   UNL     1      28.232  40.821  13.326  1.00  0.00    -0.341 OA
BRANCH  16  17
ATOM     17  C   UNL     1      27.498  41.181  12.198  1.00  0.00     0.184 C 
ATOM     18  C   UNL     1      26.793  42.478  12.453  1.00  0.00     0.178 C 
ATOM     19  O   UNL     1      25.411  42.366  12.438  1.00  0.00    -0.341 OA
ATOM     20  C   UNL     1      24.993  41.216  13.129  1.00  0.00     0.281 C 
ATOM     21  C   UNL     1      26.650  40.059  11.762  1.00  0.00     0.180 C 
ATOM     22  C   UNL     1      25.218  40.072  12.171  1.00  0.00     0.202 C 
BRANCH  18  23
ATOM     23  C   UNL     1      27.175  43.543  11.446  1.00  0.00     0.191 C 
BRANCH  23  24
ATOM     24  O   UNL     1      28.468  43.366  10.973  1.00  0.00    -0.394 OA
ATOM     25  H   UNL     1      28.686  42.386  11.091  1.00  0.00     0.210 HD
ENDBRANCH  23  24
ENDBRANCH  18  23
BRANCH  20  26
ATOM     26  O   UNL     1      23.643  41.393  13.391  1.00  0.00    -0.350 OA
BRANCH  26  27
ATOM     27  C   UNL     1      22.934  41.983  12.357  1.00  0.00     0.169 C 
BRANCH  27  28
ATOM     28  C   UNL     1      21.705  41.195  11.960  1.00  0.00     0.119 C 
BRANCH  28  29
ATOM     29  N   UNL     1      21.870  40.512  10.706  1.00  0.00    -0.092 NA
ATOM     30  N   UNL     1      22.711  40.778   9.855  1.00  0.00     0.001 N 
ATOM     31  N   UNL     1      23.535  41.212   9.051  1.00  0.00    -0.003 NA
ENDBRANCH  28  29
ENDBRANCH  27  28
ENDBRANCH  26  27
ENDBRANCH  20  26
BRANCH  21  32
ATOM     32  O   UNL     1      26.694  39.881  10.357  1.00  0.00    -0.387 OA
ATOM     33  H   UNL     1      26.509  40.806   9.993  1.00  0.00     0.211 HD
ENDBRANCH  21  32
BRANCH  22  34
ATOM     34  O   UNL     1      24.772  38.860  12.692  1.00  0.00    -0.385 OA
ATOM     35  H   UNL     1      24.222  38.353  12.073  1.00  0.00     0.211 HD
ENDBRANCH  22  34
ENDBRANCH  16  17
ENDBRANCH  11  16
BRANCH  13  36
ATOM     36  O   UNL     1      31.185  39.591  14.527  1.00  0.00    -0.385 OA
ATOM     37  H   UNL     1      32.032  39.467  14.061  1.00  0.00     0.211 HD
ENDBRANCH  13  36
BRANCH  14  38
ATOM     38  O   UNL     1      29.143  37.417  12.658  1.00  0.00    -0.387 OA
ATOM     39  H   UNL     1      29.395  36.607  12.153  1.00  0.00     0.211 HD
ENDBRANCH  14  38
BRANCH  15  40
ATOM     40  O   UNL     1      29.408  38.947  10.625  1.00  0.00    -0.387 OA
ATOM     41  H   UNL     1      29.153  39.901  10.614  1.00  0.00     0.211 HD
ENDBRANCH  15  40
ENDBRANCH   9  10
ENDBRANCH   8   9
ENDBRANCH   3   8
BRANCH   3  42
ATOM     42  C   UNL     1      32.049  40.102   6.880  1.00  0.00     0.364 C 
ATOM     43  O   UNL     1      31.996  40.981   5.964  1.00  0.00    -0.246 OA
BRANCH  42  44
ATOM     44  O   UNL     1      32.904  39.038   6.757  1.00  0.00    -0.477 OA
ATOM     45  H   UNL     1      33.056  38.373   7.524  1.00  0.00     0.296 HD
ENDBRANCH  42  44
ENDBRANCH   3  42
BRANCH   6  46
ATOM     46  O   UNL     1      28.236  41.507   8.851  1.00  0.00    -0.391 OA
ATOM     47  H   UNL     1      27.286  41.677   8.693  1.00  0.00     0.211 HD
ENDBRANCH   6  46
BRANCH   7  48
ATOM     48  N   UNL     1      28.320  40.629   5.455  1.00  0.00    -0.348 N 
ATOM     49  C   UNL     1      27.078  40.484   4.788  1.00  0.00     0.217 C 
ATOM     50  H   UNL     1      29.109  40.996   4.888  1.00  0.00     0.163 HD
ATOM     51  C   UNL     1      26.901  40.834   3.355  1.00  0.00     0.114 C 
ATOM     52  O   UNL     1      26.108  40.041   5.454  1.00  0.00    -0.275 OA
ENDBRANCH   7  48
ENDBRANCH   1   2
BRANCH   1  53
ATOM     53  O   UNL     1      27.197  38.278   7.658  1.00  0.00    -0.388 OA
ATOM     54  H   UNL     1      26.570  37.512   7.671  1.00  0.00     0.211 HD
ENDBRANCH   1  53
BRANCH   1  55
ATOM     55  C   UNL     1      28.386  37.061   6.002  1.00  0.00     0.165 C 
BRANCH  55  56
ATOM     56  O   UNL     1      27.015  37.080   5.649  1.00  0.00    -0.388 OA
ATOM     57  H   UNL     1      26.572  36.274   6.009  1.00  0.00     0.211 HD
ENDBRANCH  55  56
BRANCH  55  58
ATOM     58  C   UNL     1      28.815  35.642   6.148  1.00  0.00     0.154 C 
BRANCH  58  59
ATOM     59  N   UNL     1      28.341  35.050   7.380  1.00  0.00    -0.319 N 
ATOM     60  C   UNL     1      29.248  34.503   8.317  1.00  0.00     0.407 C 
ATOM     61  H   UNL     1      27.311  35.007   7.623  1.00  0.00     0.167 HD
ATOM     62  O   UNL     1      30.484  34.495   8.117  1.00  0.00    -0.225 OA
BRANCH  60  63
ATOM     63  O   UNL     1      28.805  33.955   9.504  1.00  0.00    -0.443 OA
BRANCH  63  64
ATOM     64  C   UNL     1      28.239  34.613  10.583  1.00  0.00     0.294 C 
BRANCH  64  65
ATOM     65  C   UNL     1      27.081  35.480  10.271  1.00  0.00     0.120 A 
ATOM     66  C   UNL     1      25.899  35.047   9.740  1.00  0.00     0.138 A 
ATOM     67  N   UNL     1      27.013  36.834  10.449  1.00  0.00    -0.132 NA
ATOM     68  N   UNL     1      25.132  36.144   9.604  1.00  0.00    -0.249 N 
ATOM     69  N   UNL     1      25.805  37.186  10.027  1.00  0.00    -0.067 NA
BRANCH  68  70
ATOM     70  C   UNL     1      23.787  36.199   9.073  1.00  0.00     0.180 C 
BRANCH  70  71
ATOM     71  C   UNL     1      23.653  37.540   8.338  1.00  0.00     0.161 C 
BRANCH  71  72
ATOM     72  O   UNL     1      24.503  37.499   7.260  1.00  0.00    -0.389 OA
ATOM     73  H   UNL     1      24.171  38.031   6.496  1.00  0.00     0.211 HD
ENDBRANCH  71  72
BRANCH  71  74
ATOM     74  C   UNL     1      22.218  37.744   7.914  1.00  0.00     0.189 C 
BRANCH  74  75
ATOM     75  O   UNL     1      21.828  36.737   7.060  1.00  0.00    -0.394 OA
ATOM     76  H   UNL     1      21.506  37.132   6.209  1.00  0.00     0.210 HD
ENDBRANCH  74  75
ENDBRANCH  71  74
ENDBRANCH  70  71
ENDBRANCH  68  70
ENDBRANCH  64  65
ENDBRANCH  63  64
ENDBRANCH  60  63
ENDBRANCH  58  59
ENDBRANCH  55  58
ENDBRANCH   1  55
TORSDOF 34
BEGIN_RES LYS A 131
REMARK  4 active torsions:
REMARK  status: ('A' for Active; 'I' for Inactive)
REMARK    1  A    between atoms: CA   and  CB  
REMARK    2  A    between atoms: CB   and  CG  
REMARK    3  A    between atoms: CG   and  CD  
REMARK    4  A    between atoms: CD   and  CE  
ROOT
ATOM      1  CA  LYS A 131      29.867  25.555  16.977  1.00 20.52     0.186 C 
ENDROOT
BRANCH   1   2
ATOM      2  CB  LYS A 131      28.345  25.722  17.026  1.00 20.94     0.034 C 
BRANCH   2   3
ATOM      3  CG  LYS A 131      27.602  24.398  16.936  1.00 22.96     0.005 C 
BRANCH   3   4
ATOM      4  CD  LYS A 131      26.153  24.534  17.315  1.00 24.33     0.041 C 
BRANCH   4   5
ATOM      5  CE  LYS A 131      25.769  23.409  18.270  1.00 26.91     0.338 C 
ATOM      6  NZ  LYS A 131      25.141  22.291  17.529  1.00 27.40     0.618 N 
ENDBRANCH   4   5
ENDBRANCH   3   4
ENDBRANCH   2   3
ENDBRANCH   1   2
END_RES LYS A 131
BEGIN_RES LYS A 135
REMARK  4 active torsions:
REMARK  status: ('A' for Active; 'I' for Inactive)
REMARK    5  A    between atoms: CA   and  CB  
REMARK    6  A    between atoms: CB   and  CG  
REMARK    7  A    between atoms: CG   and  CD  
REMARK    8  A    between atoms: CD   and  CE  
ROOT
ATOM      7  CA  LYS A 135      33.193  34.663   9.290  1.00 25.02     0.186 C 
ENDROOT
BRANCH   7   8
ATOM      8  CB  LYS A 135      32.060  35.360  10.034  1.00 26.63     0.034 C 
BRANCH   8   9
ATOM      9  CG  LYS A 135      31.930  34.931  11.473  1.00 29.45     0.005 C 
BRANCH   9  10
ATOM     10  CD  LYS A 135      32.753  35.833  12.379  1.00 32.00     0.041 C 
BRANCH  10  11
ATOM     11  CE  LYS A 135      32.766  35.295  13.797  1.00 34.25     0.338 C 
ATOM     12  NZ  LYS A 135      32.561  36.389  14.787  1.00 35.99     0.618 N 
ENDBRANCH  10  11
ENDBRANCH   9  10
ENDBRANCH   8   9
ENDBRANCH   7   8
END_RES LYS A 135
