REMARK VINA RESULT:    -4.221      3.114      8.206
REMARK INTER + INTRA:         -22.190
REMARK INTER:                 -11.500
REMARK INTRA:                 -10.690
REMARK UNBOUND:               -11.308
REMARK SMILES CC(=O)N[C@@H]1[C@@H](O)C[C@](OC[C@H]2O[C@@H](O[C@H]3[C@H](O)[C@@H](O)[C@H](OCCN=[N+]=[N-])O[C@@H]3CO)[C@H](O)[C@@H](O)[C@H]2O)(C(=O)O)O[C@H]1C(O)[C@H](O)CNC(=O)OCc1cn(CCN2CCCC2)nn1
REMARK SMILES IDX 9 1 8 2 6 3 5 4 42 5 41 6 10 7 11 8 12 9 14 10 13 11 32 12
REMARK SMILES IDX 34 13 36 14 15 15 16 16 29 17 28 18 21 19 17 20 19 21 30 22
REMARK SMILES IDX 31 23 22 25 23 26 24 27 25 28 26 29 27 30 18 31 20 33 33 35
REMARK SMILES IDX 35 37 37 39 38 41 39 42 40 43 7 45 43 47 44 48 45 50 46 51
REMARK SMILES IDX 47 53 48 54 49 55 50 57 51 58 52 59 53 60 54 61 64 62 55 63
REMARK SMILES IDX 63 64 56 65 57 66 58 67 59 68 62 69 60 70 61 71 4 72 2 73
REMARK SMILES IDX 1 75 3 76
REMARK H PARENT 31 24 18 32 20 34 33 36 35 38 37 40 40 44 7 46 44 49 46 52
REMARK H PARENT 48 56 4 74
REMARK Flexibility Score: inf
ROOT
ATOM      1  C   UNL     1      28.589  35.873   8.568  1.00  0.00     0.272 C 
ATOM      2  C   UNL     1      29.248  36.428   9.792  1.00  0.00     0.113 C 
ATOM      3  C   UNL     1      28.743  37.847  10.083  1.00  0.00     0.145 C 
ATOM      4  C   UNL     1      29.227  38.708   8.882  1.00  0.00     0.142 C 
ATOM      5  C   UNL     1      28.717  38.049   7.654  1.00  0.00     0.178 C 
ATOM      6  O   UNL     1      27.920  36.941   7.959  1.00  0.00    -0.332 OA
ENDROOT
BRANCH   1   7
ATOM      7  O   UNL     1      27.548  34.997   8.888  1.00  0.00    -0.338 OA
BRANCH   7   8
ATOM      8  C   UNL     1      26.371  35.157   8.252  1.00  0.00     0.199 C 
BRANCH   8   9
ATOM      9  C   UNL     1      25.209  35.427   9.205  1.00  0.00     0.179 C 
ATOM     10  C   UNL     1      24.634  35.543  11.422  1.00  0.00     0.282 C 
ATOM     11  O   UNL     1      25.616  35.745  10.490  1.00  0.00    -0.341 OA
ATOM     12  C   UNL     1      23.305  35.955  10.885  1.00  0.00     0.202 C 
ATOM     13  C   UNL     1      23.509  37.021   9.823  1.00  0.00     0.179 C 
ATOM     14  C   UNL     1      24.278  36.479   8.636  1.00  0.00     0.177 C 
BRANCH  10  15
ATOM     15  O   UNL     1      24.915  35.991  12.679  1.00  0.00    -0.341 OA
BRANCH  15  16
ATOM     16  C   UNL     1      25.966  36.757  12.951  1.00  0.00     0.184 C 
ATOM     17  C   UNL     1      27.113  36.130  13.717  1.00  0.00     0.178 C 
ATOM     18  O   UNL     1      28.256  36.877  13.415  1.00  0.00    -0.341 OA
ATOM     19  C   UNL     1      28.139  38.073  14.181  1.00  0.00     0.281 C 
ATOM     20  C   UNL     1      25.677  38.061  13.673  1.00  0.00     0.180 C 
ATOM     21  C   UNL     1      26.975  38.841  13.588  1.00  0.00     0.202 C 
BRANCH  17  22
ATOM     22  C   UNL     1      27.324  34.680  13.441  1.00  0.00     0.191 C 
BRANCH  22  23
ATOM     23  O   UNL     1      27.640  34.540  12.093  1.00  0.00    -0.394 OA
ATOM     24  H   UNL     1      28.628  34.586  11.967  1.00  0.00     0.210 HD
ENDBRANCH  22  23
ENDBRANCH  17  22
BRANCH  19  25
ATOM     25  O   UNL     1      29.273  38.778  13.932  1.00  0.00    -0.350 OA
BRANCH  25  26
ATOM     26  C   UNL     1      30.386  38.556  14.668  1.00  0.00     0.169 C 
BRANCH  26  27
ATOM     27  C   UNL     1      30.216  38.148  16.089  1.00  0.00     0.119 C 
BRANCH  27  28
ATOM     28  N   UNL     1      30.809  36.876  16.424  1.00  0.00    -0.092 NA
ATOM     29  N   UNL     1      31.980  36.666  16.142  1.00  0.00     0.001 N 
ATOM     30  N   UNL     1      33.187  36.613  15.882  1.00  0.00    -0.003 NA
ENDBRANCH  27  28
ENDBRANCH  26  27
ENDBRANCH  25  26
ENDBRANCH  19  25
BRANCH  20  31
ATOM     31  O   UNL     1      24.724  38.812  13.001  1.00  0.00    -0.387 OA
ATOM     32  H   UNL     1      24.867  38.878  12.037  1.00  0.00     0.211 HD
ENDBRANCH  20  31
BRANCH  21  33
ATOM     33  O   UNL     1      26.872  40.121  14.079  1.00  0.00    -0.385 OA
ATOM     34  H   UNL     1      26.029  40.580  13.928  1.00  0.00     0.211 HD
ENDBRANCH  21  33
ENDBRANCH  15  16
ENDBRANCH  10  15
BRANCH  12  35
ATOM     35  O   UNL     1      22.603  34.909  10.276  1.00  0.00    -0.385 OA
ATOM     36  H   UNL     1      22.072  34.404  10.959  1.00  0.00     0.211 HD
ENDBRANCH  12  35
BRANCH  13  37
ATOM     37  O   UNL     1      24.264  38.075  10.348  1.00  0.00    -0.387 OA
ATOM     38  H   UNL     1      23.977  38.945   9.924  1.00  0.00     0.211 HD
ENDBRANCH  13  37
BRANCH  14  39
ATOM     39  O   UNL     1      24.981  37.552   8.093  1.00  0.00    -0.387 OA
ATOM     40  H   UNL     1      24.963  38.261   8.802  1.00  0.00     0.211 HD
ENDBRANCH  14  39
ENDBRANCH   8   9
ENDBRANCH   7   8
ENDBRANCH   1   7
BRANCH   1  41
ATOM     41  C   UNL     1      29.530  35.249   7.602  1.00  0.00     0.364 C 
ATOM     42  O   UNL     1      30.517  34.604   8.073  1.00  0.00    -0.246 OA
BRANCH  41  43
ATOM     43  O   UNL     1      29.437  35.303   6.237  1.00  0.00    -0.477 OA
ATOM     44  H   UNL     1      30.166  35.210   5.567  1.00  0.00     0.296 HD
ENDBRANCH  41  43
ENDBRANCH   1  41
BRANCH   3  45
ATOM     45  O   UNL     1      27.372  37.906  10.075  1.00  0.00    -0.391 OA
ATOM     46  H   UNL     1      26.980  38.013  10.983  1.00  0.00     0.211 HD
ENDBRANCH   3  45
BRANCH   5  47
ATOM     47  C   UNL     1      27.778  38.966   6.904  1.00  0.00     0.176 C 
BRANCH  47  48
ATOM     48  O   UNL     1      28.087  40.309   7.001  1.00  0.00    -0.388 OA
ATOM     49  H   UNL     1      28.992  40.514   7.325  1.00  0.00     0.211 HD
ENDBRANCH  47  48
BRANCH  47  50
ATOM     50  C   UNL     1      27.371  38.600   5.531  1.00  0.00     0.165 C 
BRANCH  50  51
ATOM     51  O   UNL     1      27.841  37.404   5.042  1.00  0.00    -0.388 OA
ATOM     52  H   UNL     1      28.009  36.703   5.710  1.00  0.00     0.211 HD
ENDBRANCH  50  51
BRANCH  50  53
ATOM     53  C   UNL     1      27.191  39.718   4.558  1.00  0.00     0.154 C 
BRANCH  53  54
ATOM     54  N   UNL     1      25.899  40.297   4.577  1.00  0.00    -0.319 N 
ATOM     55  C   UNL     1      25.650  41.623   5.075  1.00  0.00     0.407 C 
ATOM     56  H   UNL     1      25.072  39.761   4.217  1.00  0.00     0.167 HD
ATOM     57  O   UNL     1      26.548  42.361   5.523  1.00  0.00    -0.225 OA
BRANCH  55  58
ATOM     58  O   UNL     1      24.356  42.144   5.067  1.00  0.00    -0.443 OA
BRANCH  58  59
ATOM     59  C   UNL     1      23.774  42.635   6.278  1.00  0.00     0.294 C 
BRANCH  59  60
ATOM     60  C   UNL     1      23.118  41.544   7.026  1.00  0.00     0.120 A 
ATOM     61  C   UNL     1      21.992  41.496   7.797  1.00  0.00     0.138 A 
ATOM     62  N   UNL     1      23.604  40.269   7.053  1.00  0.00    -0.132 NA
ATOM     63  N   UNL     1      21.819  40.257   8.257  1.00  0.00    -0.251 N 
ATOM     64  N   UNL     1      22.838  39.513   7.779  1.00  0.00    -0.067 NA
BRANCH  63  65
ATOM     65  C   UNL     1      20.796  39.717   9.096  1.00  0.00     0.161 C 
BRANCH  65  66
ATOM     66  C   UNL     1      19.982  38.646   8.469  1.00  0.00     0.108 C 
BRANCH  66  67
ATOM     67  N   UNL     1      20.263  37.302   8.754  1.00  0.00    -0.301 NA
ATOM     68  C   UNL     1      19.518  36.598   9.719  1.00  0.00     0.084 C 
ATOM     69  C   UNL     1      20.564  36.468   7.630  1.00  0.00     0.084 C 
ATOM     70  C   UNL     1      19.116  35.261   9.113  1.00  0.00     0.017 C 
ATOM     71  C   UNL     1      19.996  35.111   7.906  1.00  0.00     0.017 C 
ENDBRANCH  66  67
ENDBRANCH  65  66
ENDBRANCH  63  65
ENDBRANCH  59  60
ENDBRANCH  58  59
ENDBRANCH  55  58
ENDBRANCH  53  54
ENDBRANCH  50  53
ENDBRANCH  47  50
ENDBRANCH   5  47
BRANCH   4  72
ATOM     72  N   UNL     1      30.672  38.763   8.991  1.00  0.00    -0.348 N 
ATOM     73  C   UNL     1      31.469  39.811   8.447  1.00  0.00     0.217 C 
ATOM     74  H   UNL     1      31.191  38.016   9.487  1.00  0.00     0.163 HD
ATOM     75  C   UNL     1      32.963  39.762   8.612  1.00  0.00     0.114 C 
ATOM     76  O   UNL     1      30.921  40.740   7.850  1.00  0.00    -0.275 OA
ENDBRANCH   4  72
TORSDOF 32
BEGIN_RES LYS A 131
REMARK  4 active torsions:
REMARK  status: ('A' for Active; 'I' for Inactive)
REMARK    1  A    between atoms: CA   and  CB  
REMARK    2  A    between atoms: CB   and  CG  
REMARK    3  A    between atoms: CG   and  CD  
REMARK    4  A    between atoms: CD   and  CE  
ROOT
ATOM      1  CA  LYS A 131      29.867  25.555  16.977  1.00 20.52     0.186 C 
ENDROOT
BRANCH   1   2
ATOM      2  CB  LYS A 131      28.345  25.722  17.026  1.00 20.94     0.034 C 
BRANCH   2   3
ATOM      3  CG  LYS A 131      27.601  24.402  16.893  1.00 22.96     0.005 C 
BRANCH   3   4
ATOM      4  CD  LYS A 131      26.168  24.513  17.333  1.00 24.33     0.041 C 
BRANCH   4   5
ATOM      5  CE  LYS A 131      25.745  23.220  18.022  1.00 26.91     0.338 C 
ATOM      6  NZ  LYS A 131      25.580  23.438  19.479  1.00 27.40     0.618 N 
ENDBRANCH   4   5
ENDBRANCH   3   4
ENDBRANCH   2   3
ENDBRANCH   1   2
END_RES LYS A 131
BEGIN_RES LYS A 135
REMARK  4 active torsions:
REMARK  status: ('A' for Active; 'I' for Inactive)
REMARK    5  A    between atoms: CA   and  CB  
REMARK    6  A    between atoms: CB   and  CG  
REMARK    7  A    between atoms: CG   and  CD  
REMARK    8  A    between atoms: CD   and  CE  
ROOT
ATOM      7  CA  LYS A 135      33.193  34.663   9.290  1.00 25.02     0.186 C 
ENDROOT
BRANCH   7   8
ATOM      8  CB  LYS A 135      32.060  35.360  10.034  1.00 26.63     0.034 C 
BRANCH   8   9
ATOM      9  CG  LYS A 135      32.534  36.395  11.021  1.00 29.45     0.005 C 
BRANCH   9  10
ATOM     10  CD  LYS A 135      31.983  36.106  12.409  1.00 32.00     0.041 C 
BRANCH  10  11
ATOM     11  CE  LYS A 135      31.079  34.889  12.380  1.00 34.25     0.338 C 
ATOM     12  NZ  LYS A 135      30.843  34.363  13.753  1.00 35.99     0.618 N 
ENDBRANCH  10  11
ENDBRANCH   9  10
ENDBRANCH   8   9
ENDBRANCH   7   8
END_RES LYS A 135
