REMARK VINA RESULT:    -5.036      4.141     10.607
REMARK INTER + INTRA:         -25.247
REMARK INTER:                 -13.398
REMARK INTRA:                 -11.849
REMARK UNBOUND:                -9.760
REMARK SMILES CC(=O)N[C@@H]1[C@@H](O)C[C@](OC[C@H]2O[C@@H](O[C@H]3[C@H](O)[C@@H](O)[C@H](OCCN=[N+]=[N-])O[C@@H]3CO)[C@H](O)[C@@H](O)[C@H]2O)(C(=O)O)O[C@H]1C(O)[C@H](O)CNC(=O)OCc1cn(CCCCCCCCCCC(=O)O)nn1
REMARK SMILES IDX 51 1 49 2 48 3 50 5 47 6 45 7 43 8 42 9 9 10 8 11 41 12 6 13
REMARK SMILES IDX 5 14 10 15 11 16 12 17 14 18 13 19 32 20 34 21 36 22 15 23
REMARK SMILES IDX 16 24 29 25 28 26 21 27 17 28 19 29 30 30 31 31 22 33 23 34
REMARK SMILES IDX 24 35 25 36 26 37 27 38 18 39 20 41 33 43 35 45 37 47 38 49
REMARK SMILES IDX 39 50 40 51 7 53 4 55 2 56 1 58 3 59 44 60 46 62 52 64 53 65
REMARK SMILES IDX 54 66 70 67 55 68 69 69 56 70 57 71 58 72 59 73 60 74 61 75
REMARK SMILES IDX 62 76 63 77 64 78 65 79 66 80 67 81 68 82
REMARK H PARENT 48 4 31 32 18 40 20 42 33 44 35 46 37 48 40 52 7 54 4 57 44 61
REMARK H PARENT 46 63 68 83
REMARK Flexibility Score: inf
ROOT
ATOM      1  O   UNL     1      25.192  31.507  15.690  1.00  0.00    -0.443 OA
ENDROOT
BRANCH   1   2
ATOM      2  C   UNL     1      25.111  32.342  14.553  1.00  0.00     0.407 C 
ATOM      3  N   UNL     1      25.831  33.561  14.495  1.00  0.00    -0.319 N 
ATOM      4  H   UNL     1      26.422  33.834  15.324  1.00  0.00     0.167 HD
ATOM      5  O   UNL     1      24.405  32.024  13.570  1.00  0.00    -0.225 OA
BRANCH   3   6
ATOM      6  C   UNL     1      25.784  34.432  13.360  1.00  0.00     0.154 C 
BRANCH   6   7
ATOM      7  C   UNL     1      26.724  35.630  13.447  1.00  0.00     0.165 C 
BRANCH   7   8
ATOM      8  C   UNL     1      27.747  35.427  12.385  1.00  0.00     0.176 C 
BRANCH   8   9
ATOM      9  C   UNL     1      29.010  36.247  12.512  1.00  0.00     0.178 C 
ATOM     10  C   UNL     1      30.994  36.271  13.725  1.00  0.00     0.272 C 
ATOM     11  C   UNL     1      30.885  37.781  13.704  1.00  0.00     0.113 C 
ATOM     12  O   UNL     1      29.717  35.763  13.577  1.00  0.00    -0.332 OA
ATOM     13  C   UNL     1      29.477  38.284  13.722  1.00  0.00     0.145 C 
ATOM     14  C   UNL     1      28.748  37.720  12.520  1.00  0.00     0.142 C 
BRANCH  10  15
ATOM     15  O   UNL     1      31.557  35.832  14.935  1.00  0.00    -0.338 OA
BRANCH  15  16
ATOM     16  C   UNL     1      30.780  35.051  15.721  1.00  0.00     0.199 C 
BRANCH  16  17
ATOM     17  C   UNL     1      31.583  33.759  15.979  1.00  0.00     0.179 C 
ATOM     18  C   UNL     1      30.879  32.878  18.059  1.00  0.00     0.282 C 
ATOM     19  O   UNL     1      31.788  33.507  17.278  1.00  0.00    -0.341 OA
ATOM     20  C   UNL     1      29.810  32.181  17.305  1.00  0.00     0.202 C 
ATOM     21  C   UNL     1      30.417  31.555  16.055  1.00  0.00     0.179 C 
ATOM     22  C   UNL     1      31.010  32.624  15.160  1.00  0.00     0.177 C 
BRANCH  18  23
ATOM     23  O   UNL     1      30.392  33.846  18.974  1.00  0.00    -0.341 OA
BRANCH  23  24
ATOM     24  C   UNL     1      30.903  33.526  20.224  1.00  0.00     0.184 C 
ATOM     25  C   UNL     1      29.901  33.486  21.330  1.00  0.00     0.178 C 
ATOM     26  O   UNL     1      30.517  33.336  22.537  1.00  0.00    -0.341 OA
ATOM     27  C   UNL     1      31.832  33.066  22.618  1.00  0.00     0.281 C 
ATOM     28  C   UNL     1      31.951  34.573  20.636  1.00  0.00     0.180 C 
ATOM     29  C   UNL     1      32.720  33.961  21.785  1.00  0.00     0.202 C 
BRANCH  25  30
ATOM     30  C   UNL     1      28.844  32.410  21.155  1.00  0.00     0.191 C 
BRANCH  30  31
ATOM     31  O   UNL     1      29.359  31.162  20.923  1.00  0.00    -0.394 OA
ATOM     32  H   UNL     1      28.669  30.619  20.460  1.00  0.00     0.210 HD
ENDBRANCH  30  31
ENDBRANCH  25  30
BRANCH  27  33
ATOM     33  O   UNL     1      32.077  31.751  22.247  1.00  0.00    -0.350 OA
BRANCH  33  34
ATOM     34  C   UNL     1      33.440  31.469  22.176  1.00  0.00     0.169 C 
BRANCH  34  35
ATOM     35  C   UNL     1      33.704  30.042  21.787  1.00  0.00     0.119 C 
BRANCH  35  36
ATOM     36  N   UNL     1      34.287  29.345  22.935  1.00  0.00    -0.092 NA
ATOM     37  N   UNL     1      33.641  29.218  23.999  1.00  0.00     0.001 N 
ATOM     38  N   UNL     1      32.794  29.257  24.917  1.00  0.00    -0.003 NA
ENDBRANCH  35  36
ENDBRANCH  34  35
ENDBRANCH  33  34
ENDBRANCH  27  33
BRANCH  28  39
ATOM     39  O   UNL     1      32.816  34.889  19.611  1.00  0.00    -0.387 OA
ATOM     40  H   UNL     1      33.633  34.330  19.594  1.00  0.00     0.211 HD
ENDBRANCH  28  39
BRANCH  29  41
ATOM     41  O   UNL     1      33.149  35.003  22.600  1.00  0.00    -0.385 OA
ATOM     42  H   UNL     1      33.097  35.849  22.056  1.00  0.00     0.211 HD
ENDBRANCH  29  41
ENDBRANCH  23  24
ENDBRANCH  18  23
BRANCH  20  43
ATOM     43  O   UNL     1      29.264  31.102  18.014  1.00  0.00    -0.385 OA
ATOM     44  H   UNL     1      29.371  31.336  18.984  1.00  0.00     0.211 HD
ENDBRANCH  20  43
BRANCH  21  45
ATOM     45  O   UNL     1      29.454  30.838  15.348  1.00  0.00    -0.387 OA
ATOM     46  H   UNL     1      29.184  31.410  14.585  1.00  0.00     0.211 HD
ENDBRANCH  21  45
BRANCH  22  47
ATOM     47  O   UNL     1      30.014  33.084  14.335  1.00  0.00    -0.387 OA
ATOM     48  H   UNL     1      30.409  33.731  13.696  1.00  0.00     0.211 HD
ENDBRANCH  22  47
ENDBRANCH  16  17
ENDBRANCH  15  16
ENDBRANCH  10  15
BRANCH  10  49
ATOM     49  C   UNL     1      31.898  35.769  12.687  1.00  0.00     0.364 C 
ATOM     50  O   UNL     1      32.694  36.499  12.074  1.00  0.00    -0.246 OA
BRANCH  49  51
ATOM     51  O   UNL     1      31.896  34.427  12.343  1.00  0.00    -0.477 OA
ATOM     52  H   UNL     1      31.288  33.745  12.804  1.00  0.00     0.296 HD
ENDBRANCH  49  51
ENDBRANCH  10  49
BRANCH  13  53
ATOM     53  O   UNL     1      28.788  38.091  14.899  1.00  0.00    -0.391 OA
ATOM     54  H   UNL     1      27.801  38.228  14.815  1.00  0.00     0.211 HD
ENDBRANCH  13  53
BRANCH  14  55
ATOM     55  N   UNL     1      29.208  38.426  11.371  1.00  0.00    -0.348 N 
ATOM     56  C   UNL     1      28.439  38.629  10.189  1.00  0.00     0.217 C 
ATOM     57  H   UNL     1      30.172  38.839  11.352  1.00  0.00     0.163 HD
ATOM     58  C   UNL     1      28.986  39.370   9.040  1.00  0.00     0.114 C 
ATOM     59  O   UNL     1      27.288  38.157  10.162  1.00  0.00    -0.275 OA
ENDBRANCH  14  55
ENDBRANCH   8   9
BRANCH   8  60
ATOM     60  O   UNL     1      27.142  35.505  11.160  1.00  0.00    -0.388 OA
ATOM     61  H   UNL     1      27.699  35.836  10.438  1.00  0.00     0.211 HD
ENDBRANCH   8  60
ENDBRANCH   7   8
BRANCH   7  62
ATOM     62  O   UNL     1      27.227  35.656  14.743  1.00  0.00    -0.388 OA
ATOM     63  H   UNL     1      27.626  36.530  14.971  1.00  0.00     0.211 HD
ENDBRANCH   7  62
ENDBRANCH   6   7
ENDBRANCH   3   6
ENDBRANCH   1   2
BRANCH   1  64
ATOM     64  C   UNL     1      25.625  30.159  15.461  1.00  0.00     0.294 C 
BRANCH  64  65
ATOM     65  C   UNL     1      26.243  29.682  16.716  1.00  0.00     0.120 A 
ATOM     66  C   UNL     1      25.690  29.826  17.976  1.00  0.00     0.138 A 
ATOM     67  N   UNL     1      27.406  29.036  16.873  1.00  0.00    -0.132 NA
ATOM     68  N   UNL     1      26.553  29.255  18.837  1.00  0.00    -0.252 N 
ATOM     69  N   UNL     1      27.599  28.777  18.136  1.00  0.00    -0.067 NA
BRANCH  68  70
ATOM     70  C   UNL     1      26.453  29.129  20.258  1.00  0.00     0.146 C 
BRANCH  70  71
ATOM     71  C   UNL     1      27.226  28.014  20.870  1.00  0.00     0.024 C 
BRANCH  71  72
ATOM     72  C   UNL     1      26.428  26.932  21.509  1.00  0.00     0.002 C 
BRANCH  72  73
ATOM     73  C   UNL     1      26.481  26.879  22.996  1.00  0.00     0.000 C 
BRANCH  73  74
ATOM     74  C   UNL     1      26.490  25.514  23.594  1.00  0.00     0.000 C 
BRANCH  74  75
ATOM     75  C   UNL     1      27.751  25.301  24.385  1.00  0.00     0.000 C 
BRANCH  75  76
ATOM     76  C   UNL     1      28.689  26.488  24.340  1.00  0.00     0.000 C 
BRANCH  76  77
ATOM     77  C   UNL     1      29.972  26.205  23.632  1.00  0.00     0.001 C 
BRANCH  77  78
ATOM     78  C   UNL     1      30.534  27.361  22.863  1.00  0.00     0.012 C 
BRANCH  78  79
ATOM     79  C   UNL     1      31.565  26.826  21.884  1.00  0.00     0.122 C 
BRANCH  79  80
ATOM     80  C   UNL     1      31.480  27.597  20.632  1.00  0.00     0.303 C 
ATOM     81  O   UNL     1      30.688  28.557  20.527  1.00  0.00    -0.252 OA
BRANCH  80  82
ATOM     82  O   UNL     1      32.269  27.284  19.534  1.00  0.00    -0.481 OA
ATOM     83  H   UNL     1      33.220  26.976  19.629  1.00  0.00     0.296 HD
ENDBRANCH  80  82
ENDBRANCH  79  80
ENDBRANCH  78  79
ENDBRANCH  77  78
ENDBRANCH  76  77
ENDBRANCH  75  76
ENDBRANCH  74  75
ENDBRANCH  73  74
ENDBRANCH  72  73
ENDBRANCH  71  72
ENDBRANCH  70  71
ENDBRANCH  68  70
ENDBRANCH  64  65
ENDBRANCH   1  64
TORSDOF 41
BEGIN_RES LYS A 131
REMARK  4 active torsions:
REMARK  status: ('A' for Active; 'I' for Inactive)
REMARK    1  A    between atoms: CA   and  CB  
REMARK    2  A    between atoms: CB   and  CG  
REMARK    3  A    between atoms: CG   and  CD  
REMARK    4  A    between atoms: CD   and  CE  
ROOT
ATOM      1  CA  LYS A 131      29.867  25.555  16.977  1.00 20.52     0.186 C 
ENDROOT
BRANCH   1   2
ATOM      2  CB  LYS A 131      28.345  25.722  17.026  1.00 20.94     0.034 C 
BRANCH   2   3
ATOM      3  CG  LYS A 131      27.599  24.443  16.679  1.00 22.96     0.005 C 
BRANCH   3   4
ATOM      4  CD  LYS A 131      26.303  24.321  17.432  1.00 24.33     0.041 C 
BRANCH   4   5
ATOM      5  CE  LYS A 131      26.026  25.620  18.181  1.00 26.91     0.338 C 
ATOM      6  NZ  LYS A 131      24.816  26.283  17.641  1.00 27.40     0.618 N 
ENDBRANCH   4   5
ENDBRANCH   3   4
ENDBRANCH   2   3
ENDBRANCH   1   2
END_RES LYS A 131
BEGIN_RES LYS A 135
REMARK  4 active torsions:
REMARK  status: ('A' for Active; 'I' for Inactive)
REMARK    5  A    between atoms: CA   and  CB  
REMARK    6  A    between atoms: CB   and  CG  
REMARK    7  A    between atoms: CG   and  CD  
REMARK    8  A    between atoms: CD   and  CE  
ROOT
ATOM      7  CA  LYS A 135      33.193  34.663   9.290  1.00 25.02     0.186 C 
ENDROOT
BRANCH   7   8
ATOM      8  CB  LYS A 135      32.060  35.360  10.034  1.00 26.63     0.034 C 
BRANCH   8   9
ATOM      9  CG  LYS A 135      30.827  35.569   9.194  1.00 29.45     0.005 C 
BRANCH   9  10
ATOM     10  CD  LYS A 135      29.908  34.360   9.278  1.00 32.00     0.041 C 
BRANCH  10  11
ATOM     11  CE  LYS A 135      28.767  34.487   8.287  1.00 34.25     0.338 C 
ATOM     12  NZ  LYS A 135      28.721  35.853   7.695  1.00 35.99     0.618 N 
ENDBRANCH  10  11
ENDBRANCH   9  10
ENDBRANCH   8   9
ENDBRANCH   7   8
END_RES LYS A 135
