REMARK VINA RESULT:    -4.443      3.672     10.309
REMARK INTER + INTRA:         -21.841
REMARK INTER:                  -8.306
REMARK INTRA:                 -13.535
REMARK UNBOUND:               -10.516
REMARK SMILES CC(=O)N[C@@H]1[C@@H](O)C[C@](OC[C@H]2O[C@@H](O[C@H]3[C@H](O)[C@@H](O)[C@H](OCCN=[N+]=[N-])O[C@@H]3CO)[C@H](O)[C@@H](O)[C@H]2O)(C(=O)O)O[C@H]1C(O)[C@H](O)CNC(=O)OCc1cn(C(C)(C)C(=O)O)nn1
REMARK SMILES IDX 9 1 8 2 6 3 5 4 42 5 41 6 10 7 11 8 12 9 14 10 13 11 32 12
REMARK SMILES IDX 34 13 36 14 15 15 16 16 29 17 28 18 21 19 17 20 19 21 30 22
REMARK SMILES IDX 31 23 22 25 23 26 24 27 25 28 26 29 27 30 18 31 20 33 33 35
REMARK SMILES IDX 35 37 37 39 38 41 39 42 40 43 7 45 43 47 44 48 45 50 46 51
REMARK SMILES IDX 47 53 48 54 49 55 50 57 51 58 52 59 53 60 54 61 63 62 55 63
REMARK SMILES IDX 62 64 56 65 57 66 58 67 59 68 60 69 61 70 4 72 2 73 1 75
REMARK SMILES IDX 3 76
REMARK H PARENT 31 24 18 32 20 34 33 36 35 38 37 40 40 44 7 46 44 49 46 52
REMARK H PARENT 48 56 61 71 4 74
REMARK Flexibility Score: inf
ROOT
ATOM      1  C   UNL     1      27.026  29.450  18.282  1.00  0.00     0.272 C 
ATOM      2  C   UNL     1      27.162  27.984  18.242  1.00  0.00     0.113 C 
ATOM      3  C   UNL     1      27.127  27.302  19.580  1.00  0.00     0.145 C 
ATOM      4  C   UNL     1      27.590  28.246  20.648  1.00  0.00     0.142 C 
ATOM      5  C   UNL     1      28.583  29.197  19.955  1.00  0.00     0.178 C 
ATOM      6  O   UNL     1      27.836  30.093  19.224  1.00  0.00    -0.332 OA
ENDROOT
BRANCH   1   7
ATOM      7  O   UNL     1      25.755  29.903  18.454  1.00  0.00    -0.338 OA
BRANCH   7   8
ATOM      8  C   UNL     1      24.788  29.474  17.600  1.00  0.00     0.199 C 
BRANCH   8   9
ATOM      9  C   UNL     1      23.937  30.622  17.106  1.00  0.00     0.179 C 
ATOM     10  C   UNL     1      23.703  32.907  17.336  1.00  0.00     0.282 C 
ATOM     11  O   UNL     1      24.587  31.782  17.521  1.00  0.00    -0.341 OA
ATOM     12  C   UNL     1      23.599  33.112  15.873  1.00  0.00     0.202 C 
ATOM     13  C   UNL     1      24.236  31.968  15.086  1.00  0.00     0.179 C 
ATOM     14  C   UNL     1      23.792  30.618  15.630  1.00  0.00     0.177 C 
BRANCH  10  15
ATOM     15  O   UNL     1      24.271  33.883  18.096  1.00  0.00    -0.341 OA
BRANCH  15  16
ATOM     16  C   UNL     1      25.522  33.581  18.607  1.00  0.00     0.184 C 
ATOM     17  C   UNL     1      25.531  33.809  20.086  1.00  0.00     0.178 C 
ATOM     18  O   UNL     1      26.835  33.996  20.569  1.00  0.00    -0.341 OA
ATOM     19  C   UNL     1      27.361  35.233  20.225  1.00  0.00     0.281 C 
ATOM     20  C   UNL     1      26.582  34.500  17.999  1.00  0.00     0.180 C 
ATOM     21  C   UNL     1      26.799  35.691  18.896  1.00  0.00     0.202 C 
BRANCH  17  22
ATOM     22  C   UNL     1      25.016  32.576  20.848  1.00  0.00     0.191 C 
BRANCH  22  23
ATOM     23  O   UNL     1      26.028  31.638  20.845  1.00  0.00    -0.394 OA
ATOM     24  H   UNL     1      26.086  31.231  21.760  1.00  0.00     0.210 HD
ENDBRANCH  22  23
ENDBRANCH  17  22
BRANCH  19  25
ATOM     25  O   UNL     1      28.743  35.063  20.158  1.00  0.00    -0.350 OA
BRANCH  25  26
ATOM     26  C   UNL     1      29.456  36.212  19.936  1.00  0.00     0.169 C 
BRANCH  26  27
ATOM     27  C   UNL     1      30.638  35.814  19.041  1.00  0.00     0.119 C 
BRANCH  27  28
ATOM     28  N   UNL     1      30.811  36.724  17.933  1.00  0.00    -0.092 NA
ATOM     29  N   UNL     1      29.847  36.916  17.176  1.00  0.00     0.001 N 
ATOM     30  N   UNL     1      28.977  36.901  16.316  1.00  0.00    -0.003 NA
ENDBRANCH  27  28
ENDBRANCH  26  27
ENDBRANCH  25  26
ENDBRANCH  19  25
BRANCH  20  31
ATOM     31  O   UNL     1      27.787  33.811  17.904  1.00  0.00    -0.387 OA
ATOM     32  H   UNL     1      28.542  34.387  17.627  1.00  0.00     0.211 HD
ENDBRANCH  20  31
BRANCH  21  33
ATOM     33  O   UNL     1      25.583  36.346  19.048  1.00  0.00    -0.385 OA
ATOM     34  H   UNL     1      25.230  36.315  19.969  1.00  0.00     0.211 HD
ENDBRANCH  21  33
ENDBRANCH  15  16
ENDBRANCH  10  15
BRANCH  12  35
ATOM     35  O   UNL     1      22.233  33.067  15.517  1.00  0.00    -0.385 OA
ATOM     36  H   UNL     1      21.667  32.635  16.174  1.00  0.00     0.211 HD
ENDBRANCH  12  35
BRANCH  13  37
ATOM     37  O   UNL     1      25.612  32.090  15.086  1.00  0.00    -0.387 OA
ATOM     38  H   UNL     1      25.988  31.802  15.957  1.00  0.00     0.211 HD
ENDBRANCH  13  37
BRANCH  14  39
ATOM     39  O   UNL     1      24.606  29.661  15.046  1.00  0.00    -0.387 OA
ATOM     40  H   UNL     1      25.394  29.527  15.646  1.00  0.00     0.211 HD
ENDBRANCH  14  39
ENDBRANCH   8   9
ENDBRANCH   7   8
ENDBRANCH   1   7
BRANCH   1  41
ATOM     41  C   UNL     1      27.583  29.974  16.953  1.00  0.00     0.364 C 
ATOM     42  O   UNL     1      27.975  29.175  16.076  1.00  0.00    -0.246 OA
BRANCH  41  43
ATOM     43  O   UNL     1      27.663  31.329  16.698  1.00  0.00    -0.477 OA
ATOM     44  H   UNL     1      27.094  31.810  16.020  1.00  0.00     0.296 HD
ENDBRANCH  41  43
ENDBRANCH   1  41
BRANCH   3  45
ATOM     45  O   UNL     1      25.834  26.907  19.854  1.00  0.00    -0.391 OA
ATOM     46  H   UNL     1      25.302  27.621  20.293  1.00  0.00     0.211 HD
ENDBRANCH   3  45
BRANCH   5  47
ATOM     47  C   UNL     1      29.450  29.910  20.953  1.00  0.00     0.176 C 
BRANCH  47  48
ATOM     48  O   UNL     1      30.567  29.130  21.240  1.00  0.00    -0.388 OA
ATOM     49  H   UNL     1      30.603  28.328  20.638  1.00  0.00     0.211 HD
ENDBRANCH  47  48
BRANCH  47  50
ATOM     50  C   UNL     1      29.931  31.221  20.374  1.00  0.00     0.165 C 
BRANCH  50  51
ATOM     51  O   UNL     1      28.903  32.173  20.367  1.00  0.00    -0.388 OA
ATOM     52  H   UNL     1      29.231  32.980  20.821  1.00  0.00     0.211 HD
ENDBRANCH  50  51
BRANCH  50  53
ATOM     53  C   UNL     1      30.458  31.082  18.970  1.00  0.00     0.154 C 
BRANCH  53  54
ATOM     54  N   UNL     1      30.441  32.343  18.270  1.00  0.00    -0.319 N 
ATOM     55  C   UNL     1      30.618  32.416  16.868  1.00  0.00     0.407 C 
ATOM     56  H   UNL     1      30.297  33.228  18.796  1.00  0.00     0.167 HD
ATOM     57  O   UNL     1      30.796  31.391  16.162  1.00  0.00    -0.225 OA
BRANCH  55  58
ATOM     58  O   UNL     1      30.603  33.649  16.199  1.00  0.00    -0.443 OA
BRANCH  58  59
ATOM     59  C   UNL     1      30.581  33.655  14.768  1.00  0.00     0.294 C 
BRANCH  59  60
ATOM     60  C   UNL     1      29.251  33.986  14.259  1.00  0.00     0.120 A 
ATOM     61  C   UNL     1      28.958  34.540  13.039  1.00  0.00     0.139 A 
ATOM     62  N   UNL     1      28.091  33.807  14.896  1.00  0.00    -0.132 NA
ATOM     63  N   UNL     1      27.622  34.690  12.955  1.00  0.00    -0.235 N 
ATOM     64  N   UNL     1      27.135  34.228  14.112  1.00  0.00    -0.066 NA
BRANCH  63  65
ATOM     65  C   UNL     1      26.821  35.228  11.875  1.00  0.00     0.155 C 
ATOM     66  C   UNL     1      25.361  35.067  12.177  1.00  0.00     0.049 C 
ATOM     67  C   UNL     1      27.115  34.495  10.570  1.00  0.00     0.049 C 
BRANCH  65  68
ATOM     68  C   UNL     1      27.202  36.646  11.689  1.00  0.00     0.331 C 
ATOM     69  O   UNL     1      27.691  37.007  10.608  1.00  0.00    -0.250 OA
BRANCH  68  70
ATOM     70  O   UNL     1      27.001  37.536  12.729  1.00  0.00    -0.479 OA
ATOM     71  H   UNL     1      26.079  37.783  13.070  1.00  0.00     0.296 HD
ENDBRANCH  68  70
ENDBRANCH  65  68
ENDBRANCH  63  65
ENDBRANCH  59  60
ENDBRANCH  58  59
ENDBRANCH  55  58
ENDBRANCH  53  54
ENDBRANCH  50  53
ENDBRANCH  47  50
ENDBRANCH   5  47
BRANCH   4  72
ATOM     72  N   UNL     1      28.334  27.587  21.690  1.00  0.00    -0.348 N 
ATOM     73  C   UNL     1      27.741  26.986  22.836  1.00  0.00     0.217 C 
ATOM     74  H   UNL     1      29.368  27.544  21.603  1.00  0.00     0.163 HD
ATOM     75  C   UNL     1      28.588  26.321  23.874  1.00  0.00     0.114 C 
ATOM     76  O   UNL     1      26.489  27.018  22.969  1.00  0.00    -0.275 OA
ENDBRANCH   4  72
TORSDOF 32
BEGIN_RES LYS A 131
REMARK  4 active torsions:
REMARK  status: ('A' for Active; 'I' for Inactive)
REMARK    1  A    between atoms: CA   and  CB  
REMARK    2  A    between atoms: CB   and  CG  
REMARK    3  A    between atoms: CG   and  CD  
REMARK    4  A    between atoms: CD   and  CE  
ROOT
ATOM      1  CA  LYS A 131      29.867  25.555  16.977  1.00 20.52     0.186 C 
ENDROOT
BRANCH   1   2
ATOM      2  CB  LYS A 131      28.345  25.722  17.026  1.00 20.94     0.034 C 
BRANCH   2   3
ATOM      3  CG  LYS A 131      27.601  24.403  16.888  1.00 22.96     0.005 C 
BRANCH   3   4
ATOM      4  CD  LYS A 131      26.148  24.531  17.252  1.00 24.33     0.041 C 
BRANCH   4   5
ATOM      5  CE  LYS A 131      25.641  23.201  17.801  1.00 26.91     0.338 C 
ATOM      6  NZ  LYS A 131      25.493  23.270  19.274  1.00 27.40     0.618 N 
ENDBRANCH   4   5
ENDBRANCH   3   4
ENDBRANCH   2   3
ENDBRANCH   1   2
END_RES LYS A 131
BEGIN_RES LYS A 135
REMARK  4 active torsions:
REMARK  status: ('A' for Active; 'I' for Inactive)
REMARK    5  A    between atoms: CA   and  CB  
REMARK    6  A    between atoms: CB   and  CG  
REMARK    7  A    between atoms: CG   and  CD  
REMARK    8  A    between atoms: CD   and  CE  
ROOT
ATOM      7  CA  LYS A 135      33.193  34.663   9.290  1.00 25.02     0.186 C 
ENDROOT
BRANCH   7   8
ATOM      8  CB  LYS A 135      32.060  35.360  10.034  1.00 26.63     0.034 C 
BRANCH   8   9
ATOM      9  CG  LYS A 135      30.716  34.709   9.831  1.00 29.45     0.005 C 
BRANCH   9  10
ATOM     10  CD  LYS A 135      30.386  34.610   8.350  1.00 32.00     0.041 C 
BRANCH  10  11
ATOM     11  CE  LYS A 135      29.536  35.788   7.913  1.00 34.25     0.338 C 
ATOM     12  NZ  LYS A 135      28.864  35.512   6.613  1.00 35.99     0.618 N 
ENDBRANCH  10  11
ENDBRANCH   9  10
ENDBRANCH   8   9
ENDBRANCH   7   8
END_RES LYS A 135
