REMARK VINA RESULT:    -4.803      5.611     13.711
REMARK INTER + INTRA:         -24.530
REMARK INTER:                 -11.944
REMARK INTRA:                 -12.587
REMARK UNBOUND:                -9.760
REMARK SMILES CC(=O)N[C@@H]1[C@@H](O)C[C@](OC[C@H]2O[C@@H](O[C@H]3[C@H](O)[C@@H](O)[C@H](OCCN=[N+]=[N-])O[C@@H]3CO)[C@H](O)[C@@H](O)[C@H]2O)(C(=O)O)O[C@H]1C(O)[C@H](O)CNC(=O)OCc1cn(CCCCCCCCCCC(=O)O)nn1
REMARK SMILES IDX 51 1 49 2 48 3 50 5 47 6 45 7 43 8 42 9 9 10 8 11 41 12 6 13
REMARK SMILES IDX 5 14 10 15 11 16 12 17 14 18 13 19 32 20 34 21 36 22 15 23
REMARK SMILES IDX 16 24 29 25 28 26 21 27 17 28 19 29 30 30 31 31 22 33 23 34
REMARK SMILES IDX 24 35 25 36 26 37 27 38 18 39 20 41 33 43 35 45 37 47 38 49
REMARK SMILES IDX 39 50 40 51 7 53 4 55 2 56 1 58 3 59 44 60 46 62 52 64 53 65
REMARK SMILES IDX 54 66 70 67 55 68 69 69 56 70 57 71 58 72 59 73 60 74 61 75
REMARK SMILES IDX 62 76 63 77 64 78 65 79 66 80 67 81 68 82
REMARK H PARENT 48 4 31 32 18 40 20 42 33 44 35 46 37 48 40 52 7 54 4 57 44 61
REMARK H PARENT 46 63 68 83
REMARK Flexibility Score: inf
ROOT
ATOM      1  O   UNL     1      31.010  36.347  16.468  1.00  0.00    -0.443 OA
ENDROOT
BRANCH   1   2
ATOM      2  C   UNL     1      29.693  35.842  16.538  1.00  0.00     0.407 C 
ATOM      3  N   UNL     1      29.081  35.251  15.405  1.00  0.00    -0.319 N 
ATOM      4  H   UNL     1      29.630  35.204  14.506  1.00  0.00     0.167 HD
ATOM      5  O   UNL     1      29.035  35.902  17.601  1.00  0.00    -0.225 OA
BRANCH   3   6
ATOM      6  C   UNL     1      27.753  34.718  15.433  1.00  0.00     0.154 C 
BRANCH   6   7
ATOM      7  C   UNL     1      27.685  33.195  15.425  1.00  0.00     0.165 C 
BRANCH   7   8
ATOM      8  C   UNL     1      26.567  32.829  16.337  1.00  0.00     0.176 C 
BRANCH   8   9
ATOM      9  C   UNL     1      26.594  31.424  16.893  1.00  0.00     0.178 C 
ATOM     10  C   UNL     1      27.715  30.175  18.503  1.00  0.00     0.272 C 
ATOM     11  C   UNL     1      27.618  29.011  17.539  1.00  0.00     0.113 C 
ATOM     12  O   UNL     1      27.651  31.336  17.755  1.00  0.00    -0.332 OA
ATOM     13  C   UNL     1      27.671  29.413  16.100  1.00  0.00     0.145 C 
ATOM     14  C   UNL     1      26.534  30.376  15.826  1.00  0.00     0.142 C 
BRANCH  10  15
ATOM     15  O   UNL     1      28.921  30.124  19.222  1.00  0.00    -0.338 OA
BRANCH  15  16
ATOM     16  C   UNL     1      29.766  31.170  19.071  1.00  0.00     0.199 C 
BRANCH  16  17
ATOM     17  C   UNL     1      29.873  31.844  20.455  1.00  0.00     0.179 C 
ATOM     18  C   UNL     1      31.409  30.592  21.748  1.00  0.00     0.282 C 
ATOM     19  O   UNL     1      30.149  30.989  21.446  1.00  0.00    -0.341 OA
ATOM     20  C   UNL     1      32.470  31.433  21.146  1.00  0.00     0.202 C 
ATOM     21  C   UNL     1      32.021  32.888  21.173  1.00  0.00     0.179 C 
ATOM     22  C   UNL     1      30.754  33.070  20.364  1.00  0.00     0.177 C 
BRANCH  18  23
ATOM     23  O   UNL     1      31.496  29.222  21.393  1.00  0.00    -0.341 OA
BRANCH  23  24
ATOM     24  C   UNL     1      31.127  28.482  22.509  1.00  0.00     0.184 C 
ATOM     25  C   UNL     1      32.175  27.558  23.034  1.00  0.00     0.178 C 
ATOM     26  O   UNL     1      31.667  26.756  24.013  1.00  0.00    -0.341 OA
ATOM     27  C   UNL     1      30.438  26.968  24.517  1.00  0.00     0.281 C 
ATOM     28  C   UNL     1      29.915  27.601  22.164  1.00  0.00     0.180 C 
ATOM     29  C   UNL     1      29.347  27.142  23.487  1.00  0.00     0.202 C 
BRANCH  25  30
ATOM     30  C   UNL     1      33.414  28.271  23.546  1.00  0.00     0.191 C 
BRANCH  30  31
ATOM     31  O   UNL     1      34.292  28.632  22.558  1.00  0.00    -0.394 OA
ATOM     32  H   UNL     1      33.800  28.668  21.697  1.00  0.00     0.210 HD
ENDBRANCH  30  31
ENDBRANCH  25  30
BRANCH  27  33
ATOM     33  O   UNL     1      30.441  28.089  25.336  1.00  0.00    -0.350 OA
BRANCH  33  34
ATOM     34  C   UNL     1      29.169  28.388  25.823  1.00  0.00     0.169 C 
BRANCH  34  35
ATOM     35  C   UNL     1      29.005  29.853  26.115  1.00  0.00     0.119 C 
BRANCH  35  36
ATOM     36  N   UNL     1      29.094  30.592  24.854  1.00  0.00    -0.092 NA
ATOM     37  N   UNL     1      28.206  30.474  23.981  1.00  0.00     0.001 N 
ATOM     38  N   UNL     1      27.207  30.156  23.300  1.00  0.00    -0.003 NA
ENDBRANCH  35  36
ENDBRANCH  34  35
ENDBRANCH  33  34
ENDBRANCH  27  33
BRANCH  28  39
ATOM     39  O   UNL     1      28.951  28.280  21.451  1.00  0.00    -0.387 OA
ATOM     40  H   UNL     1      29.320  28.946  20.819  1.00  0.00     0.211 HD
ENDBRANCH  28  39
BRANCH  29  41
ATOM     41  O   UNL     1      28.763  25.896  23.279  1.00  0.00    -0.385 OA
ATOM     42  H   UNL     1      29.104  25.551  22.397  1.00  0.00     0.211 HD
ENDBRANCH  29  41
ENDBRANCH  23  24
ENDBRANCH  18  23
BRANCH  20  43
ATOM     43  O   UNL     1      33.661  31.413  21.886  1.00  0.00    -0.385 OA
ATOM     44  H   UNL     1      34.213  32.167  21.524  1.00  0.00     0.211 HD
ENDBRANCH  20  43
BRANCH  21  45
ATOM     45  O   UNL     1      33.019  33.720  20.669  1.00  0.00    -0.387 OA
ATOM     46  H   UNL     1      32.721  34.649  20.841  1.00  0.00     0.211 HD
ENDBRANCH  21  45
BRANCH  22  47
ATOM     47  O   UNL     1      31.117  33.303  19.060  1.00  0.00    -0.387 OA
ATOM     48  H   UNL     1      31.201  32.431  18.596  1.00  0.00     0.211 HD
ENDBRANCH  22  47
ENDBRANCH  16  17
ENDBRANCH  15  16
ENDBRANCH  10  15
BRANCH  10  49
ATOM     49  C   UNL     1      26.666  30.134  19.525  1.00  0.00     0.364 C 
ATOM     50  O   UNL     1      25.845  29.207  19.613  1.00  0.00    -0.246 OA
BRANCH  49  51
ATOM     51  O   UNL     1      26.551  31.155  20.454  1.00  0.00    -0.477 OA
ATOM     52  H   UNL     1      25.662  31.385  20.906  1.00  0.00     0.296 HD
ENDBRANCH  49  51
ENDBRANCH  10  49
BRANCH  13  53
ATOM     53  O   UNL     1      28.886  29.886  15.656  1.00  0.00    -0.391 OA
ATOM     54  H   UNL     1      28.833  30.782  15.215  1.00  0.00     0.211 HD
ENDBRANCH  13  53
BRANCH  14  55
ATOM     55  N   UNL     1      25.329  29.616  15.787  1.00  0.00    -0.348 N 
ATOM     56  C   UNL     1      24.243  29.875  14.904  1.00  0.00     0.217 C 
ATOM     57  H   UNL     1      25.193  28.804  16.436  1.00  0.00     0.163 HD
ATOM     58  C   UNL     1      23.027  29.042  14.924  1.00  0.00     0.114 C 
ATOM     59  O   UNL     1      24.356  30.829  14.114  1.00  0.00    -0.275 OA
ENDBRANCH  14  55
ENDBRANCH   8   9
BRANCH   8  60
ATOM     60  O   UNL     1      25.380  33.186  15.756  1.00  0.00    -0.388 OA
ATOM     61  H   UNL     1      24.607  32.668  16.031  1.00  0.00     0.211 HD
ENDBRANCH   8  60
ENDBRANCH   7   8
BRANCH   7  62
ATOM     62  O   UNL     1      28.934  32.732  15.821  1.00  0.00    -0.388 OA
ATOM     63  H   UNL     1      29.238  31.966  15.276  1.00  0.00     0.211 HD
ENDBRANCH   7  62
ENDBRANCH   6   7
ENDBRANCH   3   6
ENDBRANCH   1   2
BRANCH   1  64
ATOM     64  C   UNL     1      32.029  35.416  16.078  1.00  0.00     0.294 C 
BRANCH  64  65
ATOM     65  C   UNL     1      33.177  35.622  16.987  1.00  0.00     0.120 A 
ATOM     66  C   UNL     1      34.443  36.011  16.588  1.00  0.00     0.138 A 
ATOM     67  N   UNL     1      33.211  35.488  18.319  1.00  0.00    -0.132 NA
ATOM     68  N   UNL     1      35.185  36.093  17.709  1.00  0.00    -0.252 N 
ATOM     69  N   UNL     1      34.407  35.767  18.759  1.00  0.00    -0.067 NA
BRANCH  68  70
ATOM     70  C   UNL     1      36.561  36.457  17.850  1.00  0.00     0.146 C 
BRANCH  70  71
ATOM     71  C   UNL     1      37.390  36.364  16.618  1.00  0.00     0.024 C 
BRANCH  71  72
ATOM     72  C   UNL     1      37.894  35.010  16.264  1.00  0.00     0.002 C 
BRANCH  72  73
ATOM     73  C   UNL     1      38.867  34.410  17.217  1.00  0.00     0.000 C 
BRANCH  73  74
ATOM     74  C   UNL     1      38.589  33.004  17.626  1.00  0.00     0.000 C 
BRANCH  74  75
ATOM     75  C   UNL     1      38.763  32.850  19.111  1.00  0.00     0.000 C 
BRANCH  75  76
ATOM     76  C   UNL     1      38.206  34.016  19.899  1.00  0.00     0.000 C 
BRANCH  76  77
ATOM     77  C   UNL     1      37.154  33.620  20.882  1.00  0.00     0.001 C 
BRANCH  77  78
ATOM     78  C   UNL     1      36.952  32.144  21.026  1.00  0.00     0.012 C 
BRANCH  78  79
ATOM     79  C   UNL     1      37.719  31.676  22.251  1.00  0.00     0.122 C 
BRANCH  79  80
ATOM     80  C   UNL     1      36.908  30.678  22.971  1.00  0.00     0.303 C 
ATOM     81  O   UNL     1      35.895  31.024  23.614  1.00  0.00    -0.252 OA
BRANCH  80  82
ATOM     82  O   UNL     1      37.242  29.331  22.960  1.00  0.00    -0.481 OA
ATOM     83  H   UNL     1      36.692  28.647  22.474  1.00  0.00     0.296 HD
ENDBRANCH  80  82
ENDBRANCH  79  80
ENDBRANCH  78  79
ENDBRANCH  77  78
ENDBRANCH  76  77
ENDBRANCH  75  76
ENDBRANCH  74  75
ENDBRANCH  73  74
ENDBRANCH  72  73
ENDBRANCH  71  72
ENDBRANCH  70  71
ENDBRANCH  68  70
ENDBRANCH  64  65
ENDBRANCH   1  64
TORSDOF 41
BEGIN_RES LYS A 131
REMARK  4 active torsions:
REMARK  status: ('A' for Active; 'I' for Inactive)
REMARK    1  A    between atoms: CA   and  CB  
REMARK    2  A    between atoms: CB   and  CG  
REMARK    3  A    between atoms: CG   and  CD  
REMARK    4  A    between atoms: CD   and  CE  
ROOT
ATOM      1  CA  LYS A 131      29.867  25.555  16.977  1.00 20.52     0.186 C 
ENDROOT
BRANCH   1   2
ATOM      2  CB  LYS A 131      28.345  25.722  17.026  1.00 20.94     0.034 C 
BRANCH   2   3
ATOM      3  CG  LYS A 131      27.602  24.398  16.939  1.00 22.96     0.005 C 
BRANCH   3   4
ATOM      4  CD  LYS A 131      26.623  24.222  18.066  1.00 24.33     0.041 C 
BRANCH   4   5
ATOM      5  CE  LYS A 131      26.399  25.562  18.759  1.00 26.91     0.338 C 
ATOM      6  NZ  LYS A 131      25.006  26.026  18.554  1.00 27.40     0.618 N 
ENDBRANCH   4   5
ENDBRANCH   3   4
ENDBRANCH   2   3
ENDBRANCH   1   2
END_RES LYS A 131
BEGIN_RES LYS A 135
REMARK  4 active torsions:
REMARK  status: ('A' for Active; 'I' for Inactive)
REMARK    5  A    between atoms: CA   and  CB  
REMARK    6  A    between atoms: CB   and  CG  
REMARK    7  A    between atoms: CG   and  CD  
REMARK    8  A    between atoms: CD   and  CE  
ROOT
ATOM      7  CA  LYS A 135      33.193  34.663   9.290  1.00 25.02     0.186 C 
ENDROOT
BRANCH   7   8
ATOM      8  CB  LYS A 135      32.060  35.360  10.034  1.00 26.63     0.034 C 
BRANCH   8   9
ATOM      9  CG  LYS A 135      30.824  35.564   9.196  1.00 29.45     0.005 C 
BRANCH   9  10
ATOM     10  CD  LYS A 135      30.072  34.253   9.021  1.00 32.00     0.041 C 
BRANCH  10  11
ATOM     11  CE  LYS A 135      28.717  34.497   8.385  1.00 34.25     0.338 C 
ATOM     12  NZ  LYS A 135      28.844  35.330   7.157  1.00 35.99     0.618 N 
ENDBRANCH  10  11
ENDBRANCH   9  10
ENDBRANCH   8   9
ENDBRANCH   7   8
END_RES LYS A 135
