REMARK VINA RESULT:    -4.215      2.848      7.256
REMARK INTER + INTRA:         -24.116
REMARK INTER:                 -13.894
REMARK INTRA:                 -10.222
REMARK UNBOUND:               -13.000
REMARK SMILES CC(=O)N[C@@H]1[C@@H](O)C[C@](OC[C@H]2O[C@@H](O[C@H]3[C@H](O)[C@@H](O)[C@H](OCCN=[N+]=[N-])O[C@@H]3CO)[C@H](O)[C@@H](O)[C@H]2O)(C(=O)O)O[C@H]1C(O)[C@H](O)CNC(=O)OCc1cn(C(C)CC(=O)c2ccccc2)nn1
REMARK SMILES IDX 43 1 42 2 9 3 8 4 41 5 6 6 5 7 10 8 11 9 12 10 14 11 13 12
REMARK SMILES IDX 32 13 34 14 36 15 15 16 16 17 29 18 28 19 21 20 17 21 19 22
REMARK SMILES IDX 30 23 31 24 22 26 23 27 24 28 25 29 26 30 27 31 18 32 20 34
REMARK SMILES IDX 33 36 35 38 37 40 38 42 39 43 40 44 7 46 4 48 2 49 1 51 3 52
REMARK SMILES IDX 44 53 45 55 46 56 47 58 48 59 49 60 50 62 51 63 52 64 53 65
REMARK SMILES IDX 54 66 68 67 55 68 67 69 56 70 57 71 58 72 59 73 60 74 61 75
REMARK SMILES IDX 62 76 66 77 63 78 65 79 64 80
REMARK H PARENT 31 25 18 33 20 35 33 37 35 39 37 41 40 45 7 47 4 50 44 54
REMARK H PARENT 46 57 48 61
REMARK Flexibility Score: inf
ROOT
ATOM      1  C   UNL     1      29.975  39.367   8.065  1.00  0.00     0.176 C 
ENDROOT
BRANCH   1   2
ATOM      2  C   UNL     1      29.657  38.932   6.703  1.00  0.00     0.178 C 
ATOM      3  C   UNL     1      28.408  40.388   5.329  1.00  0.00     0.272 C 
ATOM      4  C   UNL     1      27.737  39.277   4.596  1.00  0.00     0.113 C 
ATOM      5  O   UNL     1      29.685  39.837   5.717  1.00  0.00    -0.332 OA
ATOM      6  C   UNL     1      28.030  37.932   5.233  1.00  0.00     0.145 C 
ATOM      7  C   UNL     1      28.372  38.073   6.668  1.00  0.00     0.142 C 
BRANCH   3   8
ATOM      8  O   UNL     1      27.894  40.941   6.388  1.00  0.00    -0.338 OA
BRANCH   8   9
ATOM      9  C   UNL     1      26.867  41.634   6.731  1.00  0.00     0.199 C 
BRANCH   9  10
ATOM     10  C   UNL     1      25.996  41.460   7.933  1.00  0.00     0.179 C 
ATOM     11  C   UNL     1      24.794  39.666   8.902  1.00  0.00     0.282 C 
ATOM     12  O   UNL     1      25.382  40.274   7.858  1.00  0.00    -0.341 OA
ATOM     13  C   UNL     1      25.714  39.578  10.074  1.00  0.00     0.202 C 
ATOM     14  C   UNL     1      26.478  40.800  10.309  1.00  0.00     0.179 C 
ATOM     15  C   UNL     1      26.552  41.843   9.246  1.00  0.00     0.177 C 
BRANCH  11  16
ATOM     16  O   UNL     1      24.459  38.368   8.430  1.00  0.00    -0.341 OA
BRANCH  16  17
ATOM     17  C   UNL     1      23.117  38.322   8.141  1.00  0.00     0.184 C 
ATOM     18  C   UNL     1      22.289  38.803   9.296  1.00  0.00     0.178 C 
ATOM     19  O   UNL     1      22.401  37.967  10.395  1.00  0.00    -0.341 OA
ATOM     20  C   UNL     1      22.132  36.647  10.203  1.00  0.00     0.281 C 
ATOM     21  C   UNL     1      22.737  36.860   7.825  1.00  0.00     0.180 C 
ATOM     22  C   UNL     1      22.809  36.009   9.039  1.00  0.00     0.202 C 
BRANCH  18  23
ATOM     23  C   UNL     1      20.843  39.016   8.896  1.00  0.00     0.191 C 
BRANCH  23  24
ATOM     24  O   UNL     1      20.712  39.826   7.775  1.00  0.00    -0.394 OA
ATOM     25  H   UNL     1      20.581  39.251   6.974  1.00  0.00     0.210 HD
ENDBRANCH  23  24
ENDBRANCH  18  23
BRANCH  20  26
ATOM     26  O   UNL     1      20.802  36.314  10.242  1.00  0.00    -0.350 OA
BRANCH  26  27
ATOM     27  C   UNL     1      20.530  34.974  10.187  1.00  0.00     0.169 C 
BRANCH  27  28
ATOM     28  C   UNL     1      19.221  34.670   9.508  1.00  0.00     0.119 C 
BRANCH  28  29
ATOM     29  N   UNL     1      19.201  35.349   8.224  1.00  0.00    -0.092 NA
ATOM     30  N   UNL     1      18.323  36.176   7.991  1.00  0.00     0.001 N 
ATOM     31  N   UNL     1      17.566  37.138   7.851  1.00  0.00    -0.003 NA
ENDBRANCH  28  29
ENDBRANCH  27  28
ENDBRANCH  26  27
ENDBRANCH  20  26
BRANCH  21  32
ATOM     32  O   UNL     1      21.511  36.800   7.175  1.00  0.00    -0.387 OA
ATOM     33  H   UNL     1      21.602  36.660   6.202  1.00  0.00     0.211 HD
ENDBRANCH  21  32
BRANCH  22  34
ATOM     34  O   UNL     1      24.112  35.594   9.320  1.00  0.00    -0.385 OA
ATOM     35  H   UNL     1      24.582  35.588   8.447  1.00  0.00     0.211 HD
ENDBRANCH  22  34
ENDBRANCH  16  17
ENDBRANCH  11  16
BRANCH  13  36
ATOM     36  O   UNL     1      24.964  39.284  11.251  1.00  0.00    -0.385 OA
ATOM     37  H   UNL     1      25.651  39.120  11.950  1.00  0.00     0.211 HD
ENDBRANCH  13  36
BRANCH  14  38
ATOM     38  O   UNL     1      27.797  40.418  10.692  1.00  0.00    -0.387 OA
ATOM     39  H   UNL     1      27.818  40.070  11.614  1.00  0.00     0.211 HD
ENDBRANCH  14  38
BRANCH  15  40
ATOM     40  O   UNL     1      27.836  42.352   9.234  1.00  0.00    -0.387 OA
ATOM     41  H   UNL     1      27.982  43.214   8.837  1.00  0.00     0.211 HD
ENDBRANCH  15  40
ENDBRANCH   9  10
ENDBRANCH   8   9
ENDBRANCH   3   8
BRANCH   3  42
ATOM     42  C   UNL     1      28.827  41.422   4.286  1.00  0.00     0.364 C 
ATOM     43  O   UNL     1      28.041  41.731   3.382  1.00  0.00    -0.246 OA
BRANCH  42  44
ATOM     44  O   UNL     1      30.067  42.017   4.341  1.00  0.00    -0.477 OA
ATOM     45  H   UNL     1      30.866  41.453   4.075  1.00  0.00     0.296 HD
ENDBRANCH  42  44
ENDBRANCH   3  42
BRANCH   6  46
ATOM     46  O   UNL     1      27.003  37.025   4.998  1.00  0.00    -0.391 OA
ATOM     47  H   UNL     1      26.429  37.398   4.249  1.00  0.00     0.211 HD
ENDBRANCH   6  46
BRANCH   7  48
ATOM     48  N   UNL     1      28.734  36.777   7.235  1.00  0.00    -0.348 N 
ATOM     49  C   UNL     1      27.785  35.892   7.815  1.00  0.00     0.217 C 
ATOM     50  H   UNL     1      29.727  36.485   7.216  1.00  0.00     0.163 HD
ATOM     51  C   UNL     1      28.153  34.594   8.384  1.00  0.00     0.114 C 
ATOM     52  O   UNL     1      26.556  36.246   7.842  1.00  0.00    -0.275 OA
ENDBRANCH   7  48
ENDBRANCH   1   2
BRANCH   1  53
ATOM     53  O   UNL     1      29.793  40.752   8.292  1.00  0.00    -0.388 OA
ATOM     54  H   UNL     1      28.908  40.986   7.873  1.00  0.00     0.211 HD
ENDBRANCH   1  53
BRANCH   1  55
ATOM     55  C   UNL     1      31.351  39.037   8.604  1.00  0.00     0.165 C 
BRANCH  55  56
ATOM     56  O   UNL     1      32.253  38.647   7.668  1.00  0.00    -0.388 OA
ATOM     57  H   UNL     1      31.929  38.886   6.769  1.00  0.00     0.211 HD
ENDBRANCH  55  56
BRANCH  55  58
ATOM     58  C   UNL     1      31.149  37.918   9.637  1.00  0.00     0.154 C 
BRANCH  58  59
ATOM     59  N   UNL     1      30.048  38.236  10.518  1.00  0.00    -0.319 N 
ATOM     60  C   UNL     1      30.153  38.590  11.881  1.00  0.00     0.407 C 
ATOM     61  H   UNL     1      29.049  38.224  10.144  1.00  0.00     0.167 HD
ATOM     62  O   UNL     1      31.266  38.700  12.431  1.00  0.00    -0.225 OA
BRANCH  60  63
ATOM     63  O   UNL     1      29.007  38.826  12.667  1.00  0.00    -0.443 OA
BRANCH  63  64
ATOM     64  C   UNL     1      28.636  37.834  13.649  1.00  0.00     0.294 C 
BRANCH  64  65
ATOM     65  C   UNL     1      27.443  37.152  13.024  1.00  0.00     0.120 A 
ATOM     66  C   UNL     1      26.453  36.501  13.785  1.00  0.00     0.138 A 
ATOM     67  N   UNL     1      27.095  36.970  11.765  1.00  0.00    -0.132 NA
ATOM     68  N   UNL     1      25.557  35.953  12.950  1.00  0.00    -0.249 N 
ATOM     69  N   UNL     1      25.957  36.245  11.737  1.00  0.00    -0.067 NA
BRANCH  68  70
ATOM     70  C   UNL     1      24.402  35.172  13.398  1.00  0.00     0.114 C 
ATOM     71  C   UNL     1      23.222  36.084  13.522  1.00  0.00     0.034 C 
BRANCH  70  72
ATOM     72  C   UNL     1      24.206  33.974  12.529  1.00  0.00     0.108 C 
BRANCH  72  73
ATOM     73  C   UNL     1      24.437  32.764  13.363  1.00  0.00     0.164 C 
ATOM     74  O   UNL     1      25.262  32.761  14.279  1.00  0.00    -0.294 OA
BRANCH  73  75
ATOM     75  C   UNL     1      23.640  31.567  13.051  1.00  0.00     0.018 A 
ATOM     76  C   UNL     1      22.320  31.618  12.789  1.00  0.00     0.012 A 
ATOM     77  C   UNL     1      24.324  30.341  13.032  1.00  0.00     0.012 A 
ATOM     78  C   UNL     1      21.612  30.441  12.489  1.00  0.00     0.001 A 
ATOM     79  C   UNL     1      23.618  29.210  12.739  1.00  0.00     0.001 A 
ATOM     80  C   UNL     1      22.276  29.237  12.467  1.00  0.00     0.000 A 
ENDBRANCH  73  75
ENDBRANCH  72  73
ENDBRANCH  70  72
ENDBRANCH  68  70
ENDBRANCH  64  65
ENDBRANCH  63  64
ENDBRANCH  60  63
ENDBRANCH  58  59
ENDBRANCH  55  58
ENDBRANCH   1  55
TORSDOF 33
BEGIN_RES LYS A 131
REMARK  4 active torsions:
REMARK  status: ('A' for Active; 'I' for Inactive)
REMARK    1  A    between atoms: CA   and  CB  
REMARK    2  A    between atoms: CB   and  CG  
REMARK    3  A    between atoms: CG   and  CD  
REMARK    4  A    between atoms: CD   and  CE  
ROOT
ATOM      1  CA  LYS A 131      29.867  25.555  16.977  1.00 20.52     0.186 C 
ENDROOT
BRANCH   1   2
ATOM      2  CB  LYS A 131      28.345  25.722  17.026  1.00 20.94     0.034 C 
BRANCH   2   3
ATOM      3  CG  LYS A 131      27.818  25.926  18.438  1.00 22.96     0.005 C 
BRANCH   3   4
ATOM      4  CD  LYS A 131      27.400  27.349  18.687  1.00 24.33     0.041 C 
BRANCH   4   5
ATOM      5  CE  LYS A 131      27.041  28.013  17.361  1.00 26.91     0.338 C 
ATOM      6  NZ  LYS A 131      27.558  29.401  17.320  1.00 27.40     0.618 N 
ENDBRANCH   4   5
ENDBRANCH   3   4
ENDBRANCH   2   3
ENDBRANCH   1   2
END_RES LYS A 131
BEGIN_RES LYS A 135
REMARK  4 active torsions:
REMARK  status: ('A' for Active; 'I' for Inactive)
REMARK    5  A    between atoms: CA   and  CB  
REMARK    6  A    between atoms: CB   and  CG  
REMARK    7  A    between atoms: CG   and  CD  
REMARK    8  A    between atoms: CD   and  CE  
ROOT
ATOM      7  CA  LYS A 135      33.193  34.663   9.290  1.00 25.02     0.186 C 
ENDROOT
BRANCH   7   8
ATOM      8  CB  LYS A 135      32.060  35.360  10.034  1.00 26.63     0.034 C 
BRANCH   8   9
ATOM      9  CG  LYS A 135      30.781  34.564  10.066  1.00 29.45     0.005 C 
BRANCH   9  10
ATOM     10  CD  LYS A 135      30.198  34.541  11.471  1.00 32.00     0.041 C 
BRANCH  10  11
ATOM     11  CE  LYS A 135      31.171  35.151  12.461  1.00 34.25     0.338 C 
ATOM     12  NZ  LYS A 135      30.764  34.858  13.863  1.00 35.99     0.618 N 
ENDBRANCH  10  11
ENDBRANCH   9  10
ENDBRANCH   8   9
ENDBRANCH   7   8
END_RES LYS A 135
