REMARK VINA RESULT:    -3.182      3.513      9.039
REMARK INTER + INTRA:         -21.864
REMARK INTER:                  -9.965
REMARK INTRA:                 -11.899
REMARK UNBOUND:               -13.473
REMARK SMILES CC(=O)N[C@@H]1[C@@H](O)C[C@](OC[C@H]2O[C@@H](O[C@H]3[C@H](O)[C@@H](O)[C@H](OCCN=[N+]=[N-])O[C@@H]3CO)[C@H](O)[C@@H](O)[C@H]2O)(C(=O)O)O[C@H]1C(O)[C@H](O)CNC(=O)OCc1cn(CCOC(C)=O)nn1
REMARK SMILES IDX 43 1 42 2 9 3 8 4 41 5 6 6 5 7 10 8 11 9 12 10 14 11 13 12
REMARK SMILES IDX 32 13 34 14 36 15 15 16 16 17 29 18 28 19 21 20 17 21 19 22
REMARK SMILES IDX 30 23 31 24 22 26 23 27 24 28 25 29 26 30 27 31 18 32 20 34
REMARK SMILES IDX 33 36 35 38 37 40 38 42 39 43 40 44 7 46 4 48 2 49 1 51 3 52
REMARK SMILES IDX 44 53 45 55 46 56 47 58 48 59 49 60 50 62 51 63 52 64 53 65
REMARK SMILES IDX 54 66 63 67 55 68 62 69 56 70 57 71 58 72 59 73 61 74 60 75
REMARK H PARENT 31 25 18 33 20 35 33 37 35 39 37 41 40 45 7 47 4 50 44 54
REMARK H PARENT 46 57 48 61
REMARK Flexibility Score: inf
ROOT
ATOM      1  C   UNL     1      28.512  41.262   9.019  1.00  0.00     0.176 C 
ENDROOT
BRANCH   1   2
ATOM      2  C   UNL     1      28.978  41.159   7.589  1.00  0.00     0.178 C 
ATOM      3  C   UNL     1      28.742  39.685   5.765  1.00  0.00     0.272 C 
ATOM      4  C   UNL     1      29.522  40.803   5.116  1.00  0.00     0.113 C 
ATOM      5  O   UNL     1      28.291  40.045   7.064  1.00  0.00    -0.332 OA
ATOM      6  C   UNL     1      30.699  41.236   5.913  1.00  0.00     0.145 C 
ATOM      7  C   UNL     1      30.431  40.852   7.396  1.00  0.00     0.142 C 
BRANCH   3   8
ATOM      8  O   UNL     1      29.335  38.523   5.892  1.00  0.00    -0.338 OA
BRANCH   8   9
ATOM      9  C   UNL     1      28.894  37.297   5.854  1.00  0.00     0.199 C 
BRANCH   9  10
ATOM     10  C   UNL     1      28.488  36.472   7.000  1.00  0.00     0.179 C 
ATOM     11  C   UNL     1      28.715  36.419   9.293  1.00  0.00     0.282 C 
ATOM     12  O   UNL     1      28.629  37.283   8.192  1.00  0.00    -0.341 OA
ATOM     13  C   UNL     1      27.777  35.286   9.254  1.00  0.00     0.202 C 
ATOM     14  C   UNL     1      26.749  35.274   8.177  1.00  0.00     0.179 C 
ATOM     15  C   UNL     1      26.970  36.209   7.039  1.00  0.00     0.177 C 
BRANCH  11  16
ATOM     16  O   UNL     1      28.675  37.215  10.425  1.00  0.00    -0.341 OA
BRANCH  16  17
ATOM     17  C   UNL     1      27.982  36.652  11.465  1.00  0.00     0.184 C 
ATOM     18  C   UNL     1      27.268  37.730  12.249  1.00  0.00     0.178 C 
ATOM     19  O   UNL     1      26.566  37.056  13.258  1.00  0.00    -0.341 OA
ATOM     20  C   UNL     1      27.428  36.688  14.248  1.00  0.00     0.281 C 
ATOM     21  C   UNL     1      28.889  35.859  12.392  1.00  0.00     0.180 C 
ATOM     22  C   UNL     1      28.832  36.356  13.799  1.00  0.00     0.202 C 
BRANCH  18  23
ATOM     23  C   UNL     1      26.265  38.441  11.359  1.00  0.00     0.191 C 
BRANCH  23  24
ATOM     24  O   UNL     1      25.712  37.542  10.465  1.00  0.00    -0.394 OA
ATOM     25  H   UNL     1      25.398  36.765  11.016  1.00  0.00     0.210 HD
ENDBRANCH  23  24
ENDBRANCH  18  23
BRANCH  20  26
ATOM     26  O   UNL     1      26.850  35.607  14.928  1.00  0.00    -0.350 OA
BRANCH  26  27
ATOM     27  C   UNL     1      27.671  35.158  15.956  1.00  0.00     0.169 C 
BRANCH  27  28
ATOM     28  C   UNL     1      27.165  33.753  16.301  1.00  0.00     0.119 C 
BRANCH  28  29
ATOM     29  N   UNL     1      26.619  33.162  15.091  1.00  0.00    -0.092 NA
ATOM     30  N   UNL     1      25.920  32.141  15.110  1.00  0.00     0.001 N 
ATOM     31  N   UNL     1      25.571  30.946  15.077  1.00  0.00    -0.003 NA
ENDBRANCH  28  29
ENDBRANCH  27  28
ENDBRANCH  26  27
ENDBRANCH  20  26
BRANCH  21  32
ATOM     32  O   UNL     1      28.666  34.489  12.331  1.00  0.00    -0.387 OA
ATOM     33  H   UNL     1      29.412  33.947  12.687  1.00  0.00     0.211 HD
ENDBRANCH  21  32
BRANCH  22  34
ATOM     34  O   UNL     1      29.728  37.387  13.998  1.00  0.00    -0.385 OA
ATOM     35  H   UNL     1      30.655  37.013  13.937  1.00  0.00     0.211 HD
ENDBRANCH  22  34
ENDBRANCH  16  17
ENDBRANCH  11  16
BRANCH  13  36
ATOM     36  O   UNL     1      28.454  34.039   9.326  1.00  0.00    -0.385 OA
ATOM     37  H   UNL     1      29.283  34.105   9.845  1.00  0.00     0.211 HD
ENDBRANCH  13  36
BRANCH  14  38
ATOM     38  O   UNL     1      25.464  35.518   8.687  1.00  0.00    -0.387 OA
ATOM     39  H   UNL     1      25.332  36.511   8.725  1.00  0.00     0.211 HD
ENDBRANCH  14  38
BRANCH  15  40
ATOM     40  O   UNL     1      26.343  37.436   7.389  1.00  0.00    -0.387 OA
ATOM     41  H   UNL     1      25.977  37.875   6.595  1.00  0.00     0.211 HD
ENDBRANCH  15  40
ENDBRANCH   9  10
ENDBRANCH   8   9
ENDBRANCH   3   8
BRANCH   3  42
ATOM     42  C   UNL     1      27.448  39.640   5.027  1.00  0.00     0.364 C 
ATOM     43  O   UNL     1      27.308  39.551   3.793  1.00  0.00    -0.246 OA
BRANCH  42  44
ATOM     44  O   UNL     1      26.234  39.700   5.745  1.00  0.00    -0.477 OA
ATOM     45  H   UNL     1      26.245  39.482   6.731  1.00  0.00     0.296 HD
ENDBRANCH  42  44
ENDBRANCH   3  42
BRANCH   6  46
ATOM     46  O   UNL     1      31.914  40.745   5.495  1.00  0.00    -0.391 OA
ATOM     47  H   UNL     1      32.632  40.834   6.173  1.00  0.00     0.211 HD
ENDBRANCH   6  46
BRANCH   7  48
ATOM     48  N   UNL     1      31.369  41.526   8.229  1.00  0.00    -0.348 N 
ATOM     49  C   UNL     1      32.612  40.946   8.591  1.00  0.00     0.217 C 
ATOM     50  H   UNL     1      31.155  42.479   8.566  1.00  0.00     0.163 HD
ATOM     51  C   UNL     1      33.591  41.660   9.467  1.00  0.00     0.114 C 
ATOM     52  O   UNL     1      32.952  39.793   8.187  1.00  0.00    -0.275 OA
ENDBRANCH   7  48
ENDBRANCH   1   2
BRANCH   1  53
ATOM     53  O   UNL     1      28.728  39.953   9.556  1.00  0.00    -0.388 OA
ATOM     54  H   UNL     1      28.016  39.348   9.262  1.00  0.00     0.211 HD
ENDBRANCH   1  53
BRANCH   1  55
ATOM     55  C   UNL     1      27.012  41.426   9.068  1.00  0.00     0.165 C 
BRANCH  55  56
ATOM     56  O   UNL     1      26.405  40.193   8.782  1.00  0.00    -0.388 OA
ATOM     57  H   UNL     1      25.463  40.249   9.043  1.00  0.00     0.211 HD
ENDBRANCH  55  56
BRANCH  55  58
ATOM     58  C   UNL     1      26.506  42.513   8.171  1.00  0.00     0.154 C 
BRANCH  58  59
ATOM     59  N   UNL     1      25.217  42.290   7.595  1.00  0.00    -0.319 N 
ATOM     60  C   UNL     1      24.014  42.717   8.190  1.00  0.00     0.407 C 
ATOM     61  H   UNL     1      25.101  41.780   6.665  1.00  0.00     0.167 HD
ATOM     62  O   UNL     1      23.978  43.339   9.272  1.00  0.00    -0.225 OA
BRANCH  60  63
ATOM     63  O   UNL     1      22.767  42.464   7.599  1.00  0.00    -0.443 OA
BRANCH  63  64
ATOM     64  C   UNL     1      22.497  41.297   6.876  1.00  0.00     0.294 C 
BRANCH  64  65
ATOM     65  C   UNL     1      22.823  40.072   7.657  1.00  0.00     0.120 A 
ATOM     66  C   UNL     1      22.027  39.573   8.674  1.00  0.00     0.138 A 
ATOM     67  N   UNL     1      23.855  39.239   7.566  1.00  0.00    -0.132 NA
ATOM     68  N   UNL     1      22.617  38.470   9.144  1.00  0.00    -0.249 N 
ATOM     69  N   UNL     1      23.728  38.285   8.455  1.00  0.00    -0.067 NA
BRANCH  68  70
ATOM     70  C   UNL     1      22.146  37.608  10.238  1.00  0.00     0.187 C 
BRANCH  70  71
ATOM     71  C   UNL     1      22.310  36.155   9.851  1.00  0.00     0.256 C 
BRANCH  71  72
ATOM     72  O   UNL     1      23.469  35.647  10.503  1.00  0.00    -0.464 OA
BRANCH  72  73
ATOM     73  C   UNL     1      23.347  34.790  11.593  1.00  0.00     0.302 C 
ATOM     74  O   UNL     1      22.193  34.447  11.946  1.00  0.00    -0.253 OA
ATOM     75  C   UNL     1      24.538  34.275  12.345  1.00  0.00     0.139 C 
ENDBRANCH  72  73
ENDBRANCH  71  72
ENDBRANCH  70  71
ENDBRANCH  68  70
ENDBRANCH  64  65
ENDBRANCH  63  64
ENDBRANCH  60  63
ENDBRANCH  58  59
ENDBRANCH  55  58
ENDBRANCH   1  55
TORSDOF 33
BEGIN_RES LYS A 131
REMARK  4 active torsions:
REMARK  status: ('A' for Active; 'I' for Inactive)
REMARK    1  A    between atoms: CA   and  CB  
REMARK    2  A    between atoms: CB   and  CG  
REMARK    3  A    between atoms: CG   and  CD  
REMARK    4  A    between atoms: CD   and  CE  
ROOT
ATOM      1  CA  LYS A 131      29.867  25.555  16.977  1.00 20.52     0.186 C 
ENDROOT
BRANCH   1   2
ATOM      2  CB  LYS A 131      28.345  25.722  17.026  1.00 20.94     0.034 C 
BRANCH   2   3
ATOM      3  CG  LYS A 131      27.601  24.402  16.892  1.00 22.96     0.005 C 
BRANCH   3   4
ATOM      4  CD  LYS A 131      26.529  24.248  17.936  1.00 24.33     0.041 C 
BRANCH   4   5
ATOM      5  CE  LYS A 131      25.581  23.124  17.529  1.00 26.91     0.338 C 
ATOM      6  NZ  LYS A 131      24.297  23.681  17.041  1.00 27.40     0.618 N 
ENDBRANCH   4   5
ENDBRANCH   3   4
ENDBRANCH   2   3
ENDBRANCH   1   2
END_RES LYS A 131
BEGIN_RES LYS A 135
REMARK  4 active torsions:
REMARK  status: ('A' for Active; 'I' for Inactive)
REMARK    5  A    between atoms: CA   and  CB  
REMARK    6  A    between atoms: CB   and  CG  
REMARK    7  A    between atoms: CG   and  CD  
REMARK    8  A    between atoms: CD   and  CE  
ROOT
ATOM      7  CA  LYS A 135      33.193  34.663   9.290  1.00 25.02     0.186 C 
ENDROOT
BRANCH   7   8
ATOM      8  CB  LYS A 135      32.060  35.360  10.034  1.00 26.63     0.034 C 
BRANCH   8   9
ATOM      9  CG  LYS A 135      32.262  35.412  11.526  1.00 29.45     0.005 C 
BRANCH   9  10
ATOM     10  CD  LYS A 135      32.398  36.851  11.999  1.00 32.00     0.041 C 
BRANCH  10  11
ATOM     11  CE  LYS A 135      31.936  37.813  10.921  1.00 34.25     0.338 C 
ATOM     12  NZ  LYS A 135      31.488  39.105  11.511  1.00 35.99     0.618 N 
ENDBRANCH  10  11
ENDBRANCH   9  10
ENDBRANCH   8   9
ENDBRANCH   7   8
END_RES LYS A 135
