REMARK VINA RESULT:    -5.012      5.680     12.061
REMARK INTER + INTRA:         -23.482
REMARK INTER:                 -13.447
REMARK INTRA:                 -10.036
REMARK UNBOUND:               -10.853
REMARK SMILES CC(=O)N[C@@H]1[C@@H](O)C[C@](OC[C@H]2O[C@@H](O[C@H]3[C@H](O)[C@@H](O)[C@H](OCCN=[N+]=[N-])O[C@@H]3CO)[C@H](O)[C@@H](O)[C@H]2O)(C(=O)O)O[C@H]1C(O)[C@H](O)CNC(=O)OCc1cn(-c2ncn3c2c(=O)n(C(C)C)c2ccccc23)nn1
REMARK SMILES IDX 9 1 8 2 6 3 5 4 42 5 41 6 10 7 11 8 12 9 14 10 13 11 32 12
REMARK SMILES IDX 34 13 36 14 15 15 16 16 29 17 28 18 21 19 17 20 19 21 30 22
REMARK SMILES IDX 31 23 22 25 23 26 24 27 25 28 26 29 27 30 18 31 20 33 33 35
REMARK SMILES IDX 35 37 37 39 38 41 39 42 40 43 7 45 43 47 44 48 45 50 46 51
REMARK SMILES IDX 47 53 48 54 49 55 50 57 51 58 52 59 53 60 54 61 74 62 55 63
REMARK SMILES IDX 73 64 56 65 57 66 60 67 58 68 59 69 61 70 72 71 63 72 62 73
REMARK SMILES IDX 71 74 67 75 70 76 68 77 69 78 64 79 65 80 66 81 4 82 2 83
REMARK SMILES IDX 1 85 3 86
REMARK H PARENT 31 24 18 32 20 34 33 36 35 38 37 40 40 44 7 46 44 49 46 52
REMARK H PARENT 48 56 4 84
REMARK Flexibility Score: inf
ROOT
ATOM      1  C   UNL     1      31.450  31.274  21.597  1.00  0.00     0.272 C 
ATOM      2  C   UNL     1      32.933  31.389  21.824  1.00  0.00     0.113 C 
ATOM      3  C   UNL     1      33.457  30.359  22.733  1.00  0.00     0.145 C 
ATOM      4  C   UNL     1      32.945  28.971  22.476  1.00  0.00     0.142 C 
ATOM      5  C   UNL     1      31.591  28.935  21.864  1.00  0.00     0.178 C 
ATOM      6  O   UNL     1      31.214  29.954  21.096  1.00  0.00    -0.332 OA
ENDROOT
BRANCH   1   7
ATOM      7  O   UNL     1      31.174  32.034  20.494  1.00  0.00    -0.338 OA
BRANCH   7   8
ATOM      8  C   UNL     1      30.003  32.295  19.985  1.00  0.00     0.199 C 
BRANCH   8   9
ATOM      9  C   UNL     1      29.695  32.521  18.545  1.00  0.00     0.179 C 
ATOM     10  C   UNL     1      30.864  33.185  16.643  1.00  0.00     0.282 C 
ATOM     11  O   UNL     1      30.950  32.931  17.987  1.00  0.00    -0.341 OA
ATOM     12  C   UNL     1      30.513  31.945  15.842  1.00  0.00     0.202 C 
ATOM     13  C   UNL     1      29.272  31.275  16.405  1.00  0.00     0.179 C 
ATOM     14  C   UNL     1      29.429  31.162  17.896  1.00  0.00     0.177 C 
BRANCH  10  15
ATOM     15  O   UNL     1      32.119  33.616  16.229  1.00  0.00    -0.341 OA
BRANCH  15  16
ATOM     16  C   UNL     1      32.224  34.980  16.304  1.00  0.00     0.184 C 
ATOM     17  C   UNL     1      30.909  35.621  16.046  1.00  0.00     0.178 C 
ATOM     18  O   UNL     1      30.701  36.089  14.773  1.00  0.00    -0.341 OA
ATOM     19  C   UNL     1      31.413  35.474  13.778  1.00  0.00     0.281 C 
ATOM     20  C   UNL     1      33.325  35.535  15.423  1.00  0.00     0.180 C 
ATOM     21  C   UNL     1      32.905  35.519  14.000  1.00  0.00     0.202 C 
BRANCH  17  22
ATOM     22  C   UNL     1      30.653  36.731  17.043  1.00  0.00     0.191 C 
BRANCH  22  23
ATOM     23  O   UNL     1      31.564  36.501  18.102  1.00  0.00    -0.394 OA
ATOM     24  H   UNL     1      31.983  37.371  18.293  1.00  0.00     0.210 HD
ENDBRANCH  22  23
ENDBRANCH  17  22
BRANCH  19  25
ATOM     25  O   UNL     1      31.184  36.198  12.594  1.00  0.00    -0.350 OA
BRANCH  25  26
ATOM     26  C   UNL     1      31.577  37.507  12.654  1.00  0.00     0.169 C 
BRANCH  26  27
ATOM     27  C   UNL     1      30.482  38.524  12.575  1.00  0.00     0.119 C 
BRANCH  27  28
ATOM     28  N   UNL     1      29.344  37.842  11.936  1.00  0.00    -0.092 NA
ATOM     29  N   UNL     1      28.992  38.046  10.795  1.00  0.00     0.001 N 
ATOM     30  N   UNL     1      28.389  38.377   9.769  1.00  0.00    -0.003 NA
ENDBRANCH  27  28
ENDBRANCH  26  27
ENDBRANCH  25  26
ENDBRANCH  19  25
BRANCH  20  31
ATOM     31  O   UNL     1      33.677  36.807  15.892  1.00  0.00    -0.387 OA
ATOM     32  H   UNL     1      34.417  37.107  15.287  1.00  0.00     0.211 HD
ENDBRANCH  20  31
BRANCH  21  33
ATOM     33  O   UNL     1      33.463  34.370  13.410  1.00  0.00    -0.385 OA
ATOM     34  H   UNL     1      33.135  33.540  13.845  1.00  0.00     0.211 HD
ENDBRANCH  21  33
ENDBRANCH  15  16
ENDBRANCH  10  15
BRANCH  12  35
ATOM     35  O   UNL     1      30.177  32.362  14.556  1.00  0.00    -0.385 OA
ATOM     36  H   UNL     1      30.969  32.473  13.978  1.00  0.00     0.211 HD
ENDBRANCH  12  35
BRANCH  13  37
ATOM     37  O   UNL     1      29.270  29.960  15.905  1.00  0.00    -0.387 OA
ATOM     38  H   UNL     1      29.997  29.430  16.335  1.00  0.00     0.211 HD
ENDBRANCH  13  37
BRANCH  14  39
ATOM     39  O   UNL     1      30.583  30.361  18.103  1.00  0.00    -0.387 OA
ATOM     40  H   UNL     1      30.335  29.516  18.550  1.00  0.00     0.211 HD
ENDBRANCH  14  39
ENDBRANCH   8   9
ENDBRANCH   7   8
ENDBRANCH   1   7
BRANCH   1  41
ATOM     41  C   UNL     1      30.632  31.435  22.791  1.00  0.00     0.364 C 
ATOM     42  O   UNL     1      30.906  32.177  23.734  1.00  0.00    -0.246 OA
BRANCH  41  43
ATOM     43  O   UNL     1      29.431  30.714  22.931  1.00  0.00    -0.477 OA
ATOM     44  H   UNL     1      28.974  30.343  22.107  1.00  0.00     0.296 HD
ENDBRANCH  41  43
ENDBRANCH   1  41
BRANCH   3  45
ATOM     45  O   UNL     1      34.869  30.366  22.586  1.00  0.00    -0.391 OA
ATOM     46  H   UNL     1      35.123  30.633  21.674  1.00  0.00     0.211 HD
ENDBRANCH   3  45
BRANCH   5  47
ATOM     47  C   UNL     1      31.329  27.635  21.125  1.00  0.00     0.176 C 
BRANCH  47  48
ATOM     48  O   UNL     1      32.158  27.547  20.029  1.00  0.00    -0.388 OA
ATOM     49  H   UNL     1      33.011  28.038  20.136  1.00  0.00     0.211 HD
ENDBRANCH  47  48
BRANCH  47  50
ATOM     50  C   UNL     1      29.909  27.419  20.735  1.00  0.00     0.165 C 
BRANCH  50  51
ATOM     51  O   UNL     1      29.405  28.251  19.771  1.00  0.00    -0.388 OA
ATOM     52  H   UNL     1      29.591  27.965  18.848  1.00  0.00     0.211 HD
ENDBRANCH  50  51
BRANCH  50  53
ATOM     53  C   UNL     1      28.967  27.340  21.898  1.00  0.00     0.154 C 
BRANCH  53  54
ATOM     54  N   UNL     1      27.580  27.230  21.433  1.00  0.00    -0.319 N 
ATOM     55  C   UNL     1      26.641  28.262  21.597  1.00  0.00     0.407 C 
ATOM     56  H   UNL     1      27.261  26.338  20.949  1.00  0.00     0.167 HD
ATOM     57  O   UNL     1      26.950  29.337  22.172  1.00  0.00    -0.225 OA
BRANCH  55  58
ATOM     58  O   UNL     1      25.344  28.062  21.102  1.00  0.00    -0.443 OA
BRANCH  58  59
ATOM     59  C   UNL     1      25.131  27.289  19.954  1.00  0.00     0.294 C 
BRANCH  59  60
ATOM     60  C   UNL     1      25.560  28.002  18.692  1.00  0.00     0.121 A 
ATOM     61  C   UNL     1      24.745  28.714  17.842  1.00  0.00     0.146 A 
ATOM     62  N   UNL     1      26.792  28.087  18.166  1.00  0.00    -0.131 NA
ATOM     63  N   UNL     1      25.493  29.219  16.817  1.00  0.00    -0.200 N 
ATOM     64  N   UNL     1      26.725  28.814  17.053  1.00  0.00    -0.060 NA
BRANCH  63  65
ATOM     65  C   UNL     1      24.998  30.015  15.740  1.00  0.00     0.186 A 
ATOM     66  N   UNL     1      24.407  29.531  14.635  1.00  0.00    -0.216 NA
ATOM     67  C   UNL     1      25.013  31.376  15.565  1.00  0.00     0.158 A 
ATOM     68  C   UNL     1      24.072  30.546  13.815  1.00  0.00     0.207 A 
ATOM     69  N   UNL     1      24.444  31.715  14.380  1.00  0.00    -0.291 N 
ATOM     70  C   UNL     1      25.500  32.360  16.386  1.00  0.00     0.279 A 
ATOM     71  C   UNL     1      24.347  32.997  13.988  1.00  0.00     0.071 A 
ATOM     72  N   UNL     1      25.416  33.664  16.016  1.00  0.00    -0.302 N 
ATOM     73  O   UNL     1      26.037  32.073  17.501  1.00  0.00    -0.267 OA
ATOM     74  C   UNL     1      23.779  33.339  12.790  1.00  0.00     0.029 A 
ATOM     75  C   UNL     1      24.845  33.967  14.830  1.00  0.00     0.068 A 
ATOM     76  C   UNL     1      23.682  34.678  12.378  1.00  0.00     0.002 A 
ATOM     77  C   UNL     1      24.748  35.283  14.420  1.00  0.00     0.028 A 
ATOM     78  C   UNL     1      24.176  35.656  13.210  1.00  0.00     0.002 A 
BRANCH  72  79
ATOM     79  C   UNL     1      25.928  34.716  16.896  1.00  0.00     0.085 C 
ATOM     80  C   UNL     1      25.258  34.759  18.230  1.00  0.00     0.031 C 
ATOM     81  C   UNL     1      27.435  34.730  16.952  1.00  0.00     0.031 C 
ENDBRANCH  72  79
ENDBRANCH  63  65
ENDBRANCH  59  60
ENDBRANCH  58  59
ENDBRANCH  55  58
ENDBRANCH  53  54
ENDBRANCH  50  53
ENDBRANCH  47  50
ENDBRANCH   5  47
BRANCH   4  82
ATOM     82  N   UNL     1      33.024  28.219  23.711  1.00  0.00    -0.348 N 
ATOM     83  C   UNL     1      34.163  27.478  24.099  1.00  0.00     0.217 C 
ATOM     84  H   UNL     1      32.206  28.211  24.367  1.00  0.00     0.163 HD
ATOM     85  C   UNL     1      34.231  26.706  25.374  1.00  0.00     0.114 C 
ATOM     86  O   UNL     1      35.159  27.477  23.317  1.00  0.00    -0.275 OA
ENDBRANCH   4  82
TORSDOF 31
BEGIN_RES LYS A 131
REMARK  4 active torsions:
REMARK  status: ('A' for Active; 'I' for Inactive)
REMARK    1  A    between atoms: CA   and  CB  
REMARK    2  A    between atoms: CB   and  CG  
REMARK    3  A    between atoms: CG   and  CD  
REMARK    4  A    between atoms: CD   and  CE  
ROOT
ATOM      1  CA  LYS A 131      29.867  25.555  16.977  1.00 20.52     0.186 C 
ENDROOT
BRANCH   1   2
ATOM      2  CB  LYS A 131      28.345  25.722  17.026  1.00 20.94     0.034 C 
BRANCH   2   3
ATOM      3  CG  LYS A 131      27.601  24.402  16.893  1.00 22.96     0.005 C 
BRANCH   3   4
ATOM      4  CD  LYS A 131      26.158  24.522  17.298  1.00 24.33     0.041 C 
BRANCH   4   5
ATOM      5  CE  LYS A 131      25.725  23.249  18.019  1.00 26.91     0.338 C 
ATOM      6  NZ  LYS A 131      25.561  23.504  19.470  1.00 27.40     0.618 N 
ENDBRANCH   4   5
ENDBRANCH   3   4
ENDBRANCH   2   3
ENDBRANCH   1   2
END_RES LYS A 131
BEGIN_RES LYS A 135
REMARK  4 active torsions:
REMARK  status: ('A' for Active; 'I' for Inactive)
REMARK    5  A    between atoms: CA   and  CB  
REMARK    6  A    between atoms: CB   and  CG  
REMARK    7  A    between atoms: CG   and  CD  
REMARK    8  A    between atoms: CD   and  CE  
ROOT
ATOM      7  CA  LYS A 135      33.193  34.663   9.290  1.00 25.02     0.186 C 
ENDROOT
BRANCH   7   8
ATOM      8  CB  LYS A 135      32.060  35.360  10.034  1.00 26.63     0.034 C 
BRANCH   8   9
ATOM      9  CG  LYS A 135      30.792  35.477   9.228  1.00 29.45     0.005 C 
BRANCH   9  10
ATOM     10  CD  LYS A 135      29.983  34.192   9.312  1.00 32.00     0.041 C 
BRANCH  10  11
ATOM     11  CE  LYS A 135      28.729  34.406  10.138  1.00 34.25     0.338 C 
ATOM     12  NZ  LYS A 135      27.572  33.669   9.557  1.00 35.99     0.618 N 
ENDBRANCH  10  11
ENDBRANCH   9  10
ENDBRANCH   8   9
ENDBRANCH   7   8
END_RES LYS A 135
