REMARK VINA RESULT:    -5.198      2.899      7.901
REMARK INTER + INTRA:         -22.952
REMARK INTER:                  -9.316
REMARK INTRA:                 -13.636
REMARK UNBOUND:                -9.852
REMARK SMILES CC(=O)N[C@@H]1[C@@H](O)C[C@](OC[C@H]2O[C@@H](O[C@H]3[C@H](O)[C@@H](O)[C@H](OCCN=[N+]=[N-])O[C@@H]3CO)[C@H](O)[C@@H](O)[C@H]2O)(C(=O)O)O[C@H]1C(O)[C@H](O)CNC(=O)OCc1cn(Cc2ccc3c(c2)OCO3)nn1
REMARK SMILES IDX 9 1 8 2 6 3 5 4 42 5 41 6 10 7 11 8 12 9 14 10 13 11 32 12
REMARK SMILES IDX 34 13 36 14 15 15 16 16 29 17 28 18 21 19 17 20 19 21 30 22
REMARK SMILES IDX 31 23 22 25 23 26 24 27 25 28 26 29 27 30 18 31 20 33 33 35
REMARK SMILES IDX 35 37 37 39 38 41 39 42 40 43 7 45 43 47 44 48 45 50 46 51
REMARK SMILES IDX 47 53 48 54 49 55 50 57 51 58 52 59 53 60 54 61 67 62 55 63
REMARK SMILES IDX 66 64 56 65 57 66 58 67 62 68 59 69 61 70 60 71 63 72 65 73
REMARK SMILES IDX 64 74 4 75 2 76 1 78 3 79
REMARK H PARENT 31 24 18 32 20 34 33 36 35 38 37 40 40 44 7 46 44 49 46 52
REMARK H PARENT 48 56 4 77
REMARK Flexibility Score: inf
ROOT
ATOM      1  C   UNL     1      29.513  34.258  15.084  1.00  0.00     0.272 C 
ATOM      2  C   UNL     1      30.902  34.295  15.688  1.00  0.00     0.113 C 
ATOM      3  C   UNL     1      31.432  32.897  15.803  1.00  0.00     0.145 C 
ATOM      4  C   UNL     1      30.483  32.155  16.781  1.00  0.00     0.142 C 
ATOM      5  C   UNL     1      29.102  32.303  16.253  1.00  0.00     0.178 C 
ATOM      6  O   UNL     1      29.020  32.977  15.037  1.00  0.00    -0.332 OA
ENDROOT
BRANCH   1   7
ATOM      7  O   UNL     1      29.513  34.858  13.814  1.00  0.00    -0.338 OA
BRANCH   7   8
ATOM      8  C   UNL     1      30.560  35.662  13.517  1.00  0.00     0.199 C 
BRANCH   8   9
ATOM      9  C   UNL     1      30.065  36.789  12.596  1.00  0.00     0.179 C 
ATOM     10  C   UNL     1      28.177  37.944  11.971  1.00  0.00     0.282 C 
ATOM     11  O   UNL     1      28.697  36.814  12.602  1.00  0.00    -0.341 OA
ATOM     12  C   UNL     1      28.554  39.173  12.804  1.00  0.00     0.202 C 
ATOM     13  C   UNL     1      29.831  39.028  13.549  1.00  0.00     0.179 C 
ATOM     14  C   UNL     1      30.755  38.078  12.864  1.00  0.00     0.177 C 
BRANCH  10  15
ATOM     15  O   UNL     1      26.841  37.873  11.961  1.00  0.00    -0.341 OA
BRANCH  15  16
ATOM     16  C   UNL     1      26.184  36.787  12.457  1.00  0.00     0.184 C 
ATOM     17  C   UNL     1      25.549  35.914  11.411  1.00  0.00     0.178 C 
ATOM     18  O   UNL     1      24.196  35.898  11.476  1.00  0.00    -0.341 OA
ATOM     19  C   UNL     1      23.641  35.411  12.677  1.00  0.00     0.281 C 
ATOM     20  C   UNL     1      25.153  37.248  13.453  1.00  0.00     0.180 C 
ATOM     21  C   UNL     1      24.329  36.045  13.865  1.00  0.00     0.202 C 
BRANCH  17  22
ATOM     22  C   UNL     1      26.091  34.513  11.545  1.00  0.00     0.191 C 
BRANCH  22  23
ATOM     23  O   UNL     1      27.107  34.469  12.536  1.00  0.00    -0.394 OA
ATOM     24  H   UNL     1      27.939  34.064  12.200  1.00  0.00     0.210 HD
ENDBRANCH  22  23
ENDBRANCH  17  22
BRANCH  19  25
ATOM     25  O   UNL     1      23.602  34.054  12.697  1.00  0.00    -0.350 OA
BRANCH  25  26
ATOM     26  C   UNL     1      22.478  33.345  12.620  1.00  0.00     0.169 C 
BRANCH  26  27
ATOM     27  C   UNL     1      22.486  31.996  13.267  1.00  0.00     0.119 C 
BRANCH  27  28
ATOM     28  N   UNL     1      23.668  31.226  13.104  1.00  0.00    -0.092 NA
ATOM     29  N   UNL     1      23.690  30.061  12.716  1.00  0.00     0.001 N 
ATOM     30  N   UNL     1      23.505  28.831  12.719  1.00  0.00    -0.003 NA
ENDBRANCH  27  28
ENDBRANCH  26  27
ENDBRANCH  25  26
ENDBRANCH  19  25
BRANCH  20  31
ATOM     31  O   UNL     1      25.823  37.736  14.572  1.00  0.00    -0.387 OA
ATOM     32  H   UNL     1      25.675  37.160  15.366  1.00  0.00     0.211 HD
ENDBRANCH  20  31
BRANCH  21  33
ATOM     33  O   UNL     1      23.391  36.515  14.780  1.00  0.00    -0.385 OA
ATOM     34  H   UNL     1      22.761  35.787  15.028  1.00  0.00     0.211 HD
ENDBRANCH  21  33
ENDBRANCH  15  16
ENDBRANCH  10  15
BRANCH  12  35
ATOM     35  O   UNL     1      28.573  40.311  12.000  1.00  0.00    -0.385 OA
ATOM     36  H   UNL     1      27.859  40.281  11.342  1.00  0.00     0.211 HD
ENDBRANCH  12  35
BRANCH  13  37
ATOM     37  O   UNL     1      29.661  38.715  14.888  1.00  0.00    -0.387 OA
ATOM     38  H   UNL     1      28.698  38.783  15.111  1.00  0.00     0.211 HD
ENDBRANCH  13  37
BRANCH  14  39
ATOM     39  O   UNL     1      31.873  37.899  13.692  1.00  0.00    -0.387 OA
ATOM     40  H   UNL     1      32.654  38.264  13.233  1.00  0.00     0.211 HD
ENDBRANCH  14  39
ENDBRANCH   8   9
ENDBRANCH   7   8
ENDBRANCH   1   7
BRANCH   1  41
ATOM     41  C   UNL     1      28.614  35.104  15.891  1.00  0.00     0.364 C 
ATOM     42  O   UNL     1      28.818  35.368  17.083  1.00  0.00    -0.246 OA
BRANCH  41  43
ATOM     43  O   UNL     1      27.460  35.666  15.336  1.00  0.00    -0.477 OA
ATOM     44  H   UNL     1      26.696  35.054  15.001  1.00  0.00     0.296 HD
ENDBRANCH  41  43
ENDBRANCH   1  41
BRANCH   3  45
ATOM     45  O   UNL     1      31.443  32.150  14.662  1.00  0.00    -0.391 OA
ATOM     46  H   UNL     1      31.247  32.662  13.838  1.00  0.00     0.211 HD
ENDBRANCH   3  45
BRANCH   5  47
ATOM     47  C   UNL     1      28.505  30.914  15.920  1.00  0.00     0.176 C 
BRANCH  47  48
ATOM     48  O   UNL     1      29.456  29.944  15.809  1.00  0.00    -0.388 OA
ATOM     49  H   UNL     1      29.683  29.800  14.860  1.00  0.00     0.211 HD
ENDBRANCH  47  48
BRANCH  47  50
ATOM     50  C   UNL     1      27.327  30.526  16.699  1.00  0.00     0.165 C 
BRANCH  50  51
ATOM     51  O   UNL     1      27.421  29.292  17.357  1.00  0.00    -0.388 OA
ATOM     52  H   UNL     1      26.661  28.704  17.109  1.00  0.00     0.211 HD
ENDBRANCH  50  51
BRANCH  50  53
ATOM     53  C   UNL     1      26.003  30.551  15.985  1.00  0.00     0.154 C 
BRANCH  53  54
ATOM     54  N   UNL     1      25.222  31.664  16.552  1.00  0.00    -0.319 N 
ATOM     55  C   UNL     1      25.177  32.944  15.928  1.00  0.00     0.407 C 
ATOM     56  H   UNL     1      24.703  31.493  17.420  1.00  0.00     0.167 HD
ATOM     57  O   UNL     1      25.836  33.086  14.864  1.00  0.00    -0.225 OA
BRANCH  55  58
ATOM     58  O   UNL     1      24.458  34.000  16.432  1.00  0.00    -0.443 OA
BRANCH  58  59
ATOM     59  C   UNL     1      24.480  34.304  17.807  1.00  0.00     0.294 C 
BRANCH  59  60
ATOM     60  C   UNL     1      25.259  35.549  18.002  1.00  0.00     0.120 A 
ATOM     61  C   UNL     1      26.050  35.907  19.088  1.00  0.00     0.138 A 
ATOM     62  N   UNL     1      25.346  36.598  17.159  1.00  0.00    -0.132 NA
ATOM     63  N   UNL     1      26.574  37.127  18.865  1.00  0.00    -0.248 N 
ATOM     64  N   UNL     1      26.133  37.520  17.698  1.00  0.00    -0.067 NA
BRANCH  63  65
ATOM     65  C   UNL     1      27.448  37.835  19.752  1.00  0.00     0.181 C 
BRANCH  65  66
ATOM     66  C   UNL     1      28.888  37.691  19.432  1.00  0.00    -0.023 A 
ATOM     67  C   UNL     1      29.653  36.796  20.114  1.00  0.00     0.010 A 
ATOM     68  C   UNL     1      29.467  38.476  18.429  1.00  0.00     0.056 A 
ATOM     69  C   UNL     1      30.984  36.681  19.803  1.00  0.00     0.051 A 
ATOM     70  C   UNL     1      30.793  38.372  18.110  1.00  0.00     0.166 A 
ATOM     71  C   UNL     1      31.543  37.453  18.822  1.00  0.00     0.165 A 
ATOM     72  O   UNL     1      31.654  38.969  17.211  1.00  0.00    -0.454 OA
ATOM     73  O   UNL     1      32.864  37.490  18.358  1.00  0.00    -0.454 OA
ATOM     74  C   UNL     1      32.828  38.165  17.118  1.00  0.00     0.468 C 
ENDBRANCH  65  66
ENDBRANCH  63  65
ENDBRANCH  59  60
ENDBRANCH  58  59
ENDBRANCH  55  58
ENDBRANCH  53  54
ENDBRANCH  50  53
ENDBRANCH  47  50
ENDBRANCH   5  47
BRANCH   4  75
ATOM     75  N   UNL     1      30.737  32.766  18.054  1.00  0.00    -0.348 N 
ATOM     76  C   UNL     1      30.553  31.973  19.237  1.00  0.00     0.217 C 
ATOM     77  H   UNL     1      31.048  33.738  18.233  1.00  0.00     0.163 HD
ATOM     78  C   UNL     1      30.808  32.590  20.583  1.00  0.00     0.114 C 
ATOM     79  O   UNL     1      30.184  30.779  19.147  1.00  0.00    -0.275 OA
ENDBRANCH   4  75
TORSDOF 31
BEGIN_RES LYS A 131
REMARK  4 active torsions:
REMARK  status: ('A' for Active; 'I' for Inactive)
REMARK    1  A    between atoms: CA   and  CB  
REMARK    2  A    between atoms: CB   and  CG  
REMARK    3  A    between atoms: CG   and  CD  
REMARK    4  A    between atoms: CD   and  CE  
ROOT
ATOM      1  CA  LYS A 131      29.867  25.555  16.977  1.00 20.52     0.186 C 
ENDROOT
BRANCH   1   2
ATOM      2  CB  LYS A 131      28.345  25.722  17.026  1.00 20.94     0.034 C 
BRANCH   2   3
ATOM      3  CG  LYS A 131      27.602  24.400  16.913  1.00 22.96     0.005 C 
BRANCH   3   4
ATOM      4  CD  LYS A 131      26.532  24.260  17.960  1.00 24.33     0.041 C 
BRANCH   4   5
ATOM      5  CE  LYS A 131      26.321  25.602  18.654  1.00 26.91     0.338 C 
ATOM      6  NZ  LYS A 131      24.979  26.145  18.337  1.00 27.40     0.618 N 
ENDBRANCH   4   5
ENDBRANCH   3   4
ENDBRANCH   2   3
ENDBRANCH   1   2
END_RES LYS A 131
BEGIN_RES LYS A 135
REMARK  4 active torsions:
REMARK  status: ('A' for Active; 'I' for Inactive)
REMARK    5  A    between atoms: CA   and  CB  
REMARK    6  A    between atoms: CB   and  CG  
REMARK    7  A    between atoms: CG   and  CD  
REMARK    8  A    between atoms: CD   and  CE  
ROOT
ATOM      7  CA  LYS A 135      33.193  34.663   9.290  1.00 25.02     0.186 C 
ENDROOT
BRANCH   7   8
ATOM      8  CB  LYS A 135      32.060  35.360  10.034  1.00 26.63     0.034 C 
BRANCH   8   9
ATOM      9  CG  LYS A 135      31.044  35.999   9.123  1.00 29.45     0.005 C 
BRANCH   9  10
ATOM     10  CD  LYS A 135      30.166  34.941   8.472  1.00 32.00     0.041 C 
BRANCH  10  11
ATOM     11  CE  LYS A 135      29.355  34.204   9.520  1.00 34.25     0.338 C 
ATOM     12  NZ  LYS A 135      27.986  33.896   9.021  1.00 35.99     0.618 N 
ENDBRANCH  10  11
ENDBRANCH   9  10
ENDBRANCH   8   9
ENDBRANCH   7   8
END_RES LYS A 135
