REMARK VINA RESULT:    -4.984      3.205      7.990
REMARK INTER + INTRA:         -23.467
REMARK INTER:                 -13.082
REMARK INTRA:                 -10.385
REMARK UNBOUND:               -11.198
REMARK SMILES CC(=O)N[C@@H]1[C@@H](O)C[C@](OC[C@H]2O[C@@H](O[C@H]3[C@H](O)[C@@H](O)[C@H](OCCN=[N+]=[N-])O[C@@H]3CO)[C@H](O)[C@@H](O)[C@H]2O)(C(=O)O)O[C@H]1C(O)[C@H](O)CNC(=O)OCc1cn(C23CC4CC(CC(C4)C2)C3)nn1
REMARK SMILES IDX 9 1 8 2 6 3 5 4 42 5 41 6 10 7 11 8 12 9 14 10 13 11 32 12
REMARK SMILES IDX 34 13 36 14 15 15 16 16 29 17 28 18 21 19 17 20 19 21 30 22
REMARK SMILES IDX 31 23 22 25 23 26 24 27 25 28 26 29 27 30 18 31 20 33 33 35
REMARK SMILES IDX 35 37 37 39 38 41 39 42 40 43 7 45 43 47 44 48 45 50 46 51
REMARK SMILES IDX 47 53 48 54 49 55 50 57 51 58 52 59 53 60 54 61 67 62 55 63
REMARK SMILES IDX 66 64 56 65 65 66 64 67 57 68 60 69 62 70 58 71 59 72 61 73
REMARK SMILES IDX 63 74 4 75 2 76 1 78 3 79
REMARK H PARENT 31 24 18 32 20 34 33 36 35 38 37 40 40 44 7 46 44 49 46 52
REMARK H PARENT 48 56 4 77
REMARK Flexibility Score: inf
ROOT
ATOM      1  C   UNL     1      29.097  36.053   8.956  1.00  0.00     0.272 C 
ATOM      2  C   UNL     1      30.379  36.803   8.841  1.00  0.00     0.113 C 
ATOM      3  C   UNL     1      30.254  38.179   9.465  1.00  0.00     0.145 C 
ATOM      4  C   UNL     1      29.400  38.987   8.477  1.00  0.00     0.142 C 
ATOM      5  C   UNL     1      28.251  38.093   8.119  1.00  0.00     0.178 C 
ATOM      6  O   UNL     1      28.040  37.033   8.965  1.00  0.00    -0.332 OA
ENDROOT
BRANCH   1   7
ATOM      7  O   UNL     1      28.889  35.347  10.058  1.00  0.00    -0.338 OA
BRANCH   7   8
ATOM      8  C   UNL     1      27.962  34.469  10.341  1.00  0.00     0.199 C 
BRANCH   8   9
ATOM      9  C   UNL     1      27.128  34.503  11.578  1.00  0.00     0.179 C 
ATOM     10  C   UNL     1      27.042  34.993  13.770  1.00  0.00     0.282 C 
ATOM     11  O   UNL     1      27.920  35.020  12.666  1.00  0.00    -0.341 OA
ATOM     12  C   UNL     1      26.332  36.307  13.750  1.00  0.00     0.202 C 
ATOM     13  C   UNL     1      26.081  36.667  12.298  1.00  0.00     0.179 C 
ATOM     14  C   UNL     1      25.929  35.435  11.438  1.00  0.00     0.177 C 
BRANCH  10  15
ATOM     15  O   UNL     1      27.729  34.722  14.947  1.00  0.00    -0.341 OA
BRANCH  15  16
ATOM     16  C   UNL     1      27.640  33.391  15.232  1.00  0.00     0.184 C 
ATOM     17  C   UNL     1      26.849  32.999  16.427  1.00  0.00     0.178 C 
ATOM     18  O   UNL     1      26.544  31.628  16.260  1.00  0.00    -0.341 OA
ATOM     19  C   UNL     1      27.700  30.832  16.433  1.00  0.00     0.281 C 
ATOM     20  C   UNL     1      29.017  32.752  15.436  1.00  0.00     0.180 C 
ATOM     21  C   UNL     1      28.819  31.281  15.554  1.00  0.00     0.202 C 
BRANCH  17  22
ATOM     22  C   UNL     1      25.633  33.795  16.718  1.00  0.00     0.191 C 
BRANCH  22  23
ATOM     23  O   UNL     1      26.051  35.061  17.158  1.00  0.00    -0.394 OA
ATOM     24  H   UNL     1      26.267  35.659  16.396  1.00  0.00     0.210 HD
ENDBRANCH  22  23
ENDBRANCH  17  22
BRANCH  19  25
ATOM     25  O   UNL     1      27.317  29.567  16.049  1.00  0.00    -0.350 OA
BRANCH  25  26
ATOM     26  C   UNL     1      27.382  28.599  16.982  1.00  0.00     0.169 C 
BRANCH  26  27
ATOM     27  C   UNL     1      27.166  29.110  18.371  1.00  0.00     0.119 C 
BRANCH  27  28
ATOM     28  N   UNL     1      26.104  28.347  19.037  1.00  0.00    -0.092 NA
ATOM     29  N   UNL     1      25.177  27.947  18.344  1.00  0.00     0.001 N 
ATOM     30  N   UNL     1      24.050  27.691  17.870  1.00  0.00    -0.003 NA
ENDBRANCH  27  28
ENDBRANCH  26  27
ENDBRANCH  25  26
ENDBRANCH  19  25
BRANCH  20  31
ATOM     31  O   UNL     1      29.859  33.005  14.354  1.00  0.00    -0.387 OA
ATOM     32  H   UNL     1      29.643  33.889  13.983  1.00  0.00     0.211 HD
ENDBRANCH  20  31
BRANCH  21  33
ATOM     33  O   UNL     1      30.014  30.745  16.031  1.00  0.00    -0.385 OA
ATOM     34  H   UNL     1      30.737  30.882  15.389  1.00  0.00     0.211 HD
ENDBRANCH  21  33
ENDBRANCH  15  16
ENDBRANCH  10  15
BRANCH  12  35
ATOM     35  O   UNL     1      25.188  36.376  14.504  1.00  0.00    -0.385 OA
ATOM     36  H   UNL     1      24.424  36.002  14.005  1.00  0.00     0.211 HD
ENDBRANCH  12  35
BRANCH  13  37
ATOM     37  O   UNL     1      27.043  37.529  11.787  1.00  0.00    -0.387 OA
ATOM     38  H   UNL     1      27.915  37.026  11.696  1.00  0.00     0.211 HD
ENDBRANCH  13  37
BRANCH  14  39
ATOM     39  O   UNL     1      25.869  35.846  10.113  1.00  0.00    -0.387 OA
ATOM     40  H   UNL     1      25.634  35.096   9.506  1.00  0.00     0.211 HD
ENDBRANCH  14  39
ENDBRANCH   8   9
ENDBRANCH   7   8
ENDBRANCH   1   7
BRANCH   1  41
ATOM     41  C   UNL     1      28.827  35.325   7.705  1.00  0.00     0.364 C 
ATOM     42  O   UNL     1      27.713  35.035   7.250  1.00  0.00    -0.246 OA
BRANCH  41  43
ATOM     43  O   UNL     1      29.987  34.928   6.978  1.00  0.00    -0.477 OA
ATOM     44  H   UNL     1      30.775  35.540   6.975  1.00  0.00     0.296 HD
ENDBRANCH  41  43
ENDBRANCH   1  41
BRANCH   3  45
ATOM     45  O   UNL     1      29.533  38.085  10.649  1.00  0.00    -0.391 OA
ATOM     46  H   UNL     1      29.017  37.240  10.610  1.00  0.00     0.211 HD
ENDBRANCH   3  45
BRANCH   5  47
ATOM     47  C   UNL     1      26.890  38.885   8.190  1.00  0.00     0.176 C 
BRANCH  47  48
ATOM     48  O   UNL     1      26.882  39.270   9.547  1.00  0.00    -0.388 OA
ATOM     49  H   UNL     1      27.231  40.196   9.555  1.00  0.00     0.211 HD
ENDBRANCH  47  48
BRANCH  47  50
ATOM     50  C   UNL     1      25.768  37.988   7.917  1.00  0.00     0.165 C 
BRANCH  50  51
ATOM     51  O   UNL     1      25.843  37.273   6.708  1.00  0.00    -0.388 OA
ATOM     52  H   UNL     1      26.539  36.556   6.799  1.00  0.00     0.211 HD
ENDBRANCH  50  51
BRANCH  50  53
ATOM     53  C   UNL     1      24.397  38.526   8.066  1.00  0.00     0.154 C 
BRANCH  53  54
ATOM     54  N   UNL     1      23.772  38.240   9.305  1.00  0.00    -0.319 N 
ATOM     55  C   UNL     1      22.848  37.226   9.595  1.00  0.00     0.407 C 
ATOM     56  H   UNL     1      24.054  38.903  10.131  1.00  0.00     0.167 HD
ATOM     57  O   UNL     1      22.457  36.444   8.715  1.00  0.00    -0.225 OA
BRANCH  55  58
ATOM     58  O   UNL     1      22.366  37.110  10.922  1.00  0.00    -0.443 OA
BRANCH  58  59
ATOM     59  C   UNL     1      21.459  36.074  11.202  1.00  0.00     0.294 C 
BRANCH  59  60
ATOM     60  C   UNL     1      22.059  35.141  12.169  1.00  0.00     0.120 A 
ATOM     61  C   UNL     1      21.976  33.774  12.110  1.00  0.00     0.138 A 
ATOM     62  N   UNL     1      22.783  35.429  13.266  1.00  0.00    -0.132 NA
ATOM     63  N   UNL     1      22.644  33.285  13.158  1.00  0.00    -0.246 N 
ATOM     64  N   UNL     1      23.121  34.308  13.839  1.00  0.00    -0.066 NA
BRANCH  63  65
ATOM     65  C   UNL     1      22.775  31.866  13.427  1.00  0.00     0.065 C 
ATOM     66  C   UNL     1      24.203  31.469  13.220  1.00  0.00     0.034 C 
ATOM     67  C   UNL     1      22.263  31.551  14.818  1.00  0.00     0.034 C 
ATOM     68  C   UNL     1      21.921  31.080  12.449  1.00  0.00     0.034 C 
ATOM     69  C   UNL     1      24.393  30.004  13.523  1.00  0.00    -0.008 C 
ATOM     70  C   UNL     1      22.521  30.105  15.122  1.00  0.00    -0.008 C 
ATOM     71  C   UNL     1      22.090  29.615  12.775  1.00  0.00    -0.008 C 
ATOM     72  C   UNL     1      23.523  29.198  12.592  1.00  0.00     0.007 C 
ATOM     73  C   UNL     1      23.972  29.770  14.955  1.00  0.00     0.007 C 
ATOM     74  C   UNL     1      21.668  29.273  14.176  1.00  0.00     0.007 C 
ENDBRANCH  63  65
ENDBRANCH  59  60
ENDBRANCH  58  59
ENDBRANCH  55  58
ENDBRANCH  53  54
ENDBRANCH  50  53
ENDBRANCH  47  50
ENDBRANCH   5  47
BRANCH   4  75
ATOM     75  N   UNL     1      30.222  39.251   7.291  1.00  0.00    -0.348 N 
ATOM     76  C   UNL     1      30.087  40.461   6.555  1.00  0.00     0.217 C 
ATOM     77  H   UNL     1      30.923  38.539   6.966  1.00  0.00     0.163 HD
ATOM     78  C   UNL     1      30.935  40.711   5.334  1.00  0.00     0.114 C 
ATOM     79  O   UNL     1      29.251  41.303   6.949  1.00  0.00    -0.275 OA
ENDBRANCH   4  75
TORSDOF 30
BEGIN_RES LYS A 131
REMARK  4 active torsions:
REMARK  status: ('A' for Active; 'I' for Inactive)
REMARK    1  A    between atoms: CA   and  CB  
REMARK    2  A    between atoms: CB   and  CG  
REMARK    3  A    between atoms: CG   and  CD  
REMARK    4  A    between atoms: CD   and  CE  
ROOT
ATOM      1  CA  LYS A 131      29.867  25.555  16.977  1.00 20.52     0.186 C 
ENDROOT
BRANCH   1   2
ATOM      2  CB  LYS A 131      28.345  25.722  17.026  1.00 20.94     0.034 C 
BRANCH   2   3
ATOM      3  CG  LYS A 131      27.602  24.398  16.938  1.00 22.96     0.005 C 
BRANCH   3   4
ATOM      4  CD  LYS A 131      26.139  24.547  17.251  1.00 24.33     0.041 C 
BRANCH   4   5
ATOM      5  CE  LYS A 131      25.571  23.199  17.682  1.00 26.91     0.338 C 
ATOM      6  NZ  LYS A 131      25.458  23.133  19.158  1.00 27.40     0.618 N 
ENDBRANCH   4   5
ENDBRANCH   3   4
ENDBRANCH   2   3
ENDBRANCH   1   2
END_RES LYS A 131
BEGIN_RES LYS A 135
REMARK  4 active torsions:
REMARK  status: ('A' for Active; 'I' for Inactive)
REMARK    5  A    between atoms: CA   and  CB  
REMARK    6  A    between atoms: CB   and  CG  
REMARK    7  A    between atoms: CG   and  CD  
REMARK    8  A    between atoms: CD   and  CE  
ROOT
ATOM      7  CA  LYS A 135      33.193  34.663   9.290  1.00 25.02     0.186 C 
ENDROOT
BRANCH   7   8
ATOM      8  CB  LYS A 135      32.060  35.360  10.034  1.00 26.63     0.034 C 
BRANCH   8   9
ATOM      9  CG  LYS A 135      32.475  35.932  11.365  1.00 29.45     0.005 C 
BRANCH   9  10
ATOM     10  CD  LYS A 135      31.567  35.424  12.474  1.00 32.00     0.041 C 
BRANCH  10  11
ATOM     11  CE  LYS A 135      32.170  35.720  13.834  1.00 34.25     0.338 C 
ATOM     12  NZ  LYS A 135      33.376  34.883  14.079  1.00 35.99     0.618 N 
ENDBRANCH  10  11
ENDBRANCH   9  10
ENDBRANCH   8   9
ENDBRANCH   7   8
END_RES LYS A 135
