REMARK VINA RESULT:    -4.158      4.013      9.207
REMARK INTER + INTRA:         -22.911
REMARK INTER:                 -10.982
REMARK INTRA:                 -11.928
REMARK UNBOUND:               -11.702
REMARK SMILES CC(=O)N[C@@H]1[C@@H](O)C[C@](OC[C@H]2O[C@@H](O[C@H]3[C@H](O)[C@@H](O)[C@H](OCCN=[N+]=[N-])O[C@@H]3CO)[C@H](O)[C@@H](O)[C@H]2O)(C(=O)O)O[C@H]1C(O)[C@H](O)CNC(=O)OCc1cn([C@@H](CC(=O)O)C(=O)O)nn1
REMARK SMILES IDX 43 1 42 2 9 3 8 4 41 5 6 6 5 7 10 8 11 9 12 10 14 11 13 12
REMARK SMILES IDX 32 13 34 14 36 15 15 16 16 17 29 18 28 19 21 20 17 21 19 22
REMARK SMILES IDX 30 23 31 24 22 26 23 27 24 28 25 29 26 30 27 31 18 32 20 34
REMARK SMILES IDX 33 36 35 38 37 40 38 42 39 43 40 44 7 46 4 48 2 49 1 51 3 52
REMARK SMILES IDX 44 53 45 55 46 56 47 58 48 59 49 60 50 62 51 63 52 64 53 65
REMARK SMILES IDX 54 66 65 67 55 68 64 69 56 70 57 71 58 72 59 73 60 74 61 76
REMARK SMILES IDX 62 77 63 78
REMARK H PARENT 31 25 18 33 20 35 33 37 35 39 37 41 40 45 7 47 4 50 44 54
REMARK H PARENT 46 57 48 61 60 75 63 79
REMARK Flexibility Score: inf
ROOT
ATOM      1  C   UNL     1      28.291  34.494  15.738  1.00  0.00     0.176 C 
ENDROOT
BRANCH   1   2
ATOM      2  C   UNL     1      28.607  35.497  14.642  1.00  0.00     0.178 C 
ATOM      3  C   UNL     1      27.545  36.742  12.953  1.00  0.00     0.272 C 
ATOM      4  C   UNL     1      29.025  36.773  12.545  1.00  0.00     0.113 C 
ATOM      5  O   UNL     1      27.456  35.759  13.965  1.00  0.00    -0.332 OA
ATOM      6  C   UNL     1      29.431  35.316  12.386  1.00  0.00     0.145 C 
ATOM      7  C   UNL     1      29.729  34.876  13.830  1.00  0.00     0.142 C 
BRANCH   3   8
ATOM      8  O   UNL     1      26.803  36.485  11.978  1.00  0.00    -0.338 OA
BRANCH   8   9
ATOM      9  C   UNL     1      26.068  36.240  11.005  1.00  0.00     0.199 C 
BRANCH   9  10
ATOM     10  C   UNL     1      26.493  36.780   9.639  1.00  0.00     0.179 C 
ATOM     11  C   UNL     1      24.561  36.599   8.402  1.00  0.00     0.282 C 
ATOM     12  O   UNL     1      25.865  36.235   8.571  1.00  0.00    -0.341 OA
ATOM     13  C   UNL     1      24.376  38.065   8.330  1.00  0.00     0.202 C 
ATOM     14  C   UNL     1      25.787  38.670   8.260  1.00  0.00     0.179 C 
ATOM     15  C   UNL     1      26.437  38.288   9.576  1.00  0.00     0.177 C 
BRANCH  11  16
ATOM     16  O   UNL     1      23.631  35.892   9.149  1.00  0.00    -0.341 OA
BRANCH  16  17
ATOM     17  C   UNL     1      22.397  36.496   9.211  1.00  0.00     0.184 C 
ATOM     18  C   UNL     1      21.787  36.391  10.563  1.00  0.00     0.178 C 
ATOM     19  O   UNL     1      20.568  37.055  10.623  1.00  0.00    -0.341 OA
ATOM     20  C   UNL     1      19.801  36.941   9.459  1.00  0.00     0.281 C 
ATOM     21  C   UNL     1      21.520  35.765   8.198  1.00  0.00     0.180 C 
ATOM     22  C   UNL     1      20.135  35.634   8.746  1.00  0.00     0.202 C 
BRANCH  18  23
ATOM     23  C   UNL     1      22.704  37.128  11.538  1.00  0.00     0.191 C 
BRANCH  23  24
ATOM     24  O   UNL     1      22.863  38.455  11.087  1.00  0.00    -0.394 OA
ATOM     25  H   UNL     1      22.126  38.963  11.539  1.00  0.00     0.210 HD
ENDBRANCH  23  24
ENDBRANCH  18  23
BRANCH  20  26
ATOM     26  O   UNL     1      20.164  37.977   8.619  1.00  0.00    -0.350 OA
BRANCH  26  27
ATOM     27  C   UNL     1      19.356  39.071   8.608  1.00  0.00     0.169 C 
BRANCH  27  28
ATOM     28  C   UNL     1      20.123  40.309   8.964  1.00  0.00     0.119 C 
BRANCH  28  29
ATOM     29  N   UNL     1      21.544  40.046   8.725  1.00  0.00    -0.092 NA
ATOM     30  N   UNL     1      22.339  40.995   8.876  1.00  0.00     0.001 N 
ATOM     31  N   UNL     1      23.268  41.760   8.556  1.00  0.00    -0.003 NA
ENDBRANCH  28  29
ENDBRANCH  27  28
ENDBRANCH  26  27
ENDBRANCH  20  26
BRANCH  21  32
ATOM     32  O   UNL     1      21.488  36.475   7.004  1.00  0.00    -0.387 OA
ATOM     33  H   UNL     1      21.306  37.442   7.182  1.00  0.00     0.211 HD
ENDBRANCH  21  32
BRANCH  22  34
ATOM     34  O   UNL     1      19.965  34.547   9.605  1.00  0.00    -0.385 OA
ATOM     35  H   UNL     1      20.587  33.840   9.243  1.00  0.00     0.211 HD
ENDBRANCH  22  34
ENDBRANCH  16  17
ENDBRANCH  11  16
BRANCH  13  36
ATOM     36  O   UNL     1      23.730  38.495   7.169  1.00  0.00    -0.385 OA
ATOM     37  H   UNL     1      23.741  39.496   7.177  1.00  0.00     0.211 HD
ENDBRANCH  13  36
BRANCH  14  38
ATOM     38  O   UNL     1      25.777  40.029   8.067  1.00  0.00    -0.387 OA
ATOM     39  H   UNL     1      26.609  40.464   8.406  1.00  0.00     0.211 HD
ENDBRANCH  14  38
BRANCH  15  40
ATOM     40  O   UNL     1      25.716  38.833  10.615  1.00  0.00    -0.387 OA
ATOM     41  H   UNL     1      24.900  39.288  10.345  1.00  0.00     0.211 HD
ENDBRANCH  15  40
ENDBRANCH   9  10
ENDBRANCH   8   9
ENDBRANCH   3   8
BRANCH   3  42
ATOM     42  C   UNL     1      27.330  38.095  13.625  1.00  0.00     0.364 C 
ATOM     43  O   UNL     1      28.308  38.771  13.977  1.00  0.00    -0.246 OA
BRANCH  42  44
ATOM     44  O   UNL     1      26.059  38.586  13.853  1.00  0.00    -0.477 OA
ATOM     45  H   UNL     1      25.800  39.061  14.728  1.00  0.00     0.296 HD
ENDBRANCH  42  44
ENDBRANCH   3  42
BRANCH   6  46
ATOM     46  O   UNL     1      28.302  34.539  12.043  1.00  0.00    -0.391 OA
ATOM     47  H   UNL     1      28.070  33.890  12.728  1.00  0.00     0.211 HD
ENDBRANCH   6  46
BRANCH   7  48
ATOM     48  N   UNL     1      31.032  35.410  14.147  1.00  0.00    -0.348 N 
ATOM     49  C   UNL     1      32.011  34.585  14.781  1.00  0.00     0.217 C 
ATOM     50  H   UNL     1      31.310  36.396  13.936  1.00  0.00     0.163 HD
ATOM     51  C   UNL     1      33.346  35.200  15.088  1.00  0.00     0.114 C 
ATOM     52  O   UNL     1      31.776  33.383  15.078  1.00  0.00    -0.275 OA
ENDBRANCH   7  48
ENDBRANCH   1   2
BRANCH   1  53
ATOM     53  O   UNL     1      29.376  34.299  16.584  1.00  0.00    -0.388 OA
ATOM     54  H   UNL     1      30.182  33.979  16.087  1.00  0.00     0.211 HD
ENDBRANCH   1  53
BRANCH   1  55
ATOM     55  C   UNL     1      27.735  33.197  15.286  1.00  0.00     0.165 C 
BRANCH  55  56
ATOM     56  O   UNL     1      26.398  33.188  14.958  1.00  0.00    -0.388 OA
ATOM     57  H   UNL     1      25.912  32.368  15.237  1.00  0.00     0.211 HD
ENDBRANCH  55  56
BRANCH  55  58
ATOM     58  C   UNL     1      28.154  32.080  16.179  1.00  0.00     0.154 C 
BRANCH  58  59
ATOM     59  N   UNL     1      27.532  30.814  15.947  1.00  0.00    -0.319 N 
ATOM     60  C   UNL     1      26.554  30.341  16.854  1.00  0.00     0.407 C 
ATOM     61  H   UNL     1      27.776  30.237  15.131  1.00  0.00     0.167 HD
ATOM     62  O   UNL     1      26.254  31.085  17.852  1.00  0.00    -0.225 OA
BRANCH  60  63
ATOM     63  O   UNL     1      25.884  29.133  16.774  1.00  0.00    -0.443 OA
BRANCH  63  64
ATOM     64  C   UNL     1      24.476  29.122  16.489  1.00  0.00     0.294 C 
BRANCH  64  65
ATOM     65  C   UNL     1      24.193  30.153  15.462  1.00  0.00     0.120 A 
ATOM     66  C   UNL     1      23.226  31.133  15.431  1.00  0.00     0.139 A 
ATOM     67  N   UNL     1      24.877  30.305  14.279  1.00  0.00    -0.132 NA
ATOM     68  N   UNL     1      23.344  31.833  14.266  1.00  0.00    -0.237 N 
ATOM     69  N   UNL     1      24.341  31.297  13.623  1.00  0.00    -0.066 NA
BRANCH  68  70
ATOM     70  C   UNL     1      22.511  32.934  13.840  1.00  0.00     0.229 C 
BRANCH  70  71
ATOM     71  C   UNL     1      23.419  34.074  13.412  1.00  0.00     0.161 C 
BRANCH  71  72
ATOM     72  C   UNL     1      23.536  35.099  14.466  1.00  0.00     0.306 C 
ATOM     73  O   UNL     1      22.564  35.375  15.215  1.00  0.00    -0.252 OA
BRANCH  72  74
ATOM     74  O   UNL     1      24.720  35.779  14.650  1.00  0.00    -0.481 OA
ATOM     75  H   UNL     1      25.226  35.655  15.535  1.00  0.00     0.296 HD
ENDBRANCH  72  74
ENDBRANCH  71  72
ENDBRANCH  70  71
BRANCH  70  76
ATOM     76  C   UNL     1      21.692  32.502  12.694  1.00  0.00     0.329 C 
ATOM     77  O   UNL     1      20.972  33.345  12.111  1.00  0.00    -0.250 OA
BRANCH  76  78
ATOM     78  O   UNL     1      21.677  31.196  12.223  1.00  0.00    -0.480 OA
ATOM     79  H   UNL     1      21.434  30.453  12.873  1.00  0.00     0.296 HD
ENDBRANCH  76  78
ENDBRANCH  70  76
ENDBRANCH  68  70
ENDBRANCH  64  65
ENDBRANCH  63  64
ENDBRANCH  60  63
ENDBRANCH  58  59
ENDBRANCH  55  58
ENDBRANCH   1  55
TORSDOF 35
BEGIN_RES LYS A 131
REMARK  4 active torsions:
REMARK  status: ('A' for Active; 'I' for Inactive)
REMARK    1  A    between atoms: CA   and  CB  
REMARK    2  A    between atoms: CB   and  CG  
REMARK    3  A    between atoms: CG   and  CD  
REMARK    4  A    between atoms: CD   and  CE  
ROOT
ATOM      1  CA  LYS A 131      29.867  25.555  16.977  1.00 20.52     0.186 C 
ENDROOT
BRANCH   1   2
ATOM      2  CB  LYS A 131      28.345  25.722  17.026  1.00 20.94     0.034 C 
BRANCH   2   3
ATOM      3  CG  LYS A 131      27.602  24.400  16.912  1.00 22.96     0.005 C 
BRANCH   3   4
ATOM      4  CD  LYS A 131      26.468  24.301  17.895  1.00 24.33     0.041 C 
BRANCH   4   5
ATOM      5  CE  LYS A 131      25.655  25.591  17.866  1.00 26.91     0.338 C 
ATOM      6  NZ  LYS A 131      24.320  25.349  17.269  1.00 27.40     0.618 N 
ENDBRANCH   4   5
ENDBRANCH   3   4
ENDBRANCH   2   3
ENDBRANCH   1   2
END_RES LYS A 131
BEGIN_RES LYS A 135
REMARK  4 active torsions:
REMARK  status: ('A' for Active; 'I' for Inactive)
REMARK    5  A    between atoms: CA   and  CB  
REMARK    6  A    between atoms: CB   and  CG  
REMARK    7  A    between atoms: CG   and  CD  
REMARK    8  A    between atoms: CD   and  CE  
ROOT
ATOM      7  CA  LYS A 135      33.193  34.663   9.290  1.00 25.02     0.186 C 
ENDROOT
BRANCH   7   8
ATOM      8  CB  LYS A 135      32.060  35.360  10.034  1.00 26.63     0.034 C 
BRANCH   8   9
ATOM      9  CG  LYS A 135      30.832  35.583   9.189  1.00 29.45     0.005 C 
BRANCH   9  10
ATOM     10  CD  LYS A 135      30.216  34.255   8.777  1.00 32.00     0.041 C 
BRANCH  10  11
ATOM     11  CE  LYS A 135      28.816  34.464   8.232  1.00 34.25     0.338 C 
ATOM     12  NZ  LYS A 135      28.833  35.346   7.032  1.00 35.99     0.618 N 
ENDBRANCH  10  11
ENDBRANCH   9  10
ENDBRANCH   8   9
ENDBRANCH   7   8
END_RES LYS A 135
