REMARK VINA RESULT:    -4.608      4.024      8.892
REMARK INTER + INTRA:         -22.945
REMARK INTER:                 -11.336
REMARK INTRA:                 -11.609
REMARK UNBOUND:               -11.064
REMARK SMILES CC(=O)N[C@@H]1[C@@H](O)C[C@](OC[C@H]2O[C@@H](O[C@H]3[C@H](O)[C@@H](O)[C@H](OCCN=[N+]=[N-])O[C@@H]3CO)[C@H](O)[C@@H](O)[C@H]2O)(C(=O)O)O[C@H]1C(O)[C@H](O)CNC(=O)OCc1cn(CC(=O)Nc2ncccn2)nn1
REMARK SMILES IDX 9 1 8 2 6 3 5 4 42 5 41 6 10 7 11 8 12 9 14 10 13 11 32 12
REMARK SMILES IDX 34 13 36 14 15 15 16 16 29 17 28 18 21 19 17 20 19 21 30 22
REMARK SMILES IDX 31 23 22 25 23 26 24 27 25 28 26 29 27 30 18 31 20 33 33 35
REMARK SMILES IDX 35 37 37 39 38 41 39 42 40 43 7 45 43 47 44 48 45 50 46 51
REMARK SMILES IDX 47 53 48 54 49 55 50 57 51 58 52 59 53 60 54 61 67 62 55 63
REMARK SMILES IDX 66 64 56 65 57 66 58 67 59 68 60 70 61 71 65 72 62 73 64 74
REMARK SMILES IDX 63 75 4 76 2 77 1 79 3 80
REMARK H PARENT 31 24 18 32 20 34 33 36 35 38 37 40 40 44 7 46 44 49 46 52
REMARK H PARENT 48 56 59 69 4 78
REMARK Flexibility Score: inf
ROOT
ATOM      1  C   UNL     1      30.849  34.399  16.111  1.00  0.00     0.272 C 
ATOM      2  C   UNL     1      31.305  35.797  16.496  1.00  0.00     0.113 C 
ATOM      3  C   UNL     1      31.668  36.580  15.300  1.00  0.00     0.145 C 
ATOM      4  C   UNL     1      30.693  36.494  14.136  1.00  0.00     0.142 C 
ATOM      5  C   UNL     1      29.935  35.244  14.098  1.00  0.00     0.178 C 
ATOM      6  O   UNL     1      29.660  34.740  15.361  1.00  0.00    -0.332 OA
ENDROOT
BRANCH   1   7
ATOM      7  O   UNL     1      30.426  33.770  17.200  1.00  0.00    -0.338 OA
BRANCH   7   8
ATOM      8  C   UNL     1      29.344  33.465  17.794  1.00  0.00     0.199 C 
BRANCH   8   9
ATOM      9  C   UNL     1      28.727  32.117  17.968  1.00  0.00     0.179 C 
ATOM     10  C   UNL     1      26.810  30.988  17.260  1.00  0.00     0.282 C 
ATOM     11  O   UNL     1      27.434  32.195  17.291  1.00  0.00    -0.341 OA
ATOM     12  C   UNL     1      27.431  30.111  16.125  1.00  0.00     0.202 C 
ATOM     13  C   UNL     1      28.762  30.794  15.884  1.00  0.00     0.179 C 
ATOM     14  C   UNL     1      29.372  30.963  17.294  1.00  0.00     0.177 C 
BRANCH  10  15
ATOM     15  O   UNL     1      25.458  31.168  16.937  1.00  0.00    -0.341 OA
BRANCH  15  16
ATOM     16  C   UNL     1      25.205  32.407  16.362  1.00  0.00     0.184 C 
ATOM     17  C   UNL     1      24.006  33.021  17.097  1.00  0.00     0.178 C 
ATOM     18  O   UNL     1      23.027  33.429  16.203  1.00  0.00    -0.341 OA
ATOM     19  C   UNL     1      22.499  32.336  15.498  1.00  0.00     0.281 C 
ATOM     20  C   UNL     1      24.951  32.260  14.908  1.00  0.00     0.180 C 
ATOM     21  C   UNL     1      23.547  31.927  14.503  1.00  0.00     0.202 C 
BRANCH  17  22
ATOM     22  C   UNL     1      24.454  34.258  17.857  1.00  0.00     0.191 C 
BRANCH  22  23
ATOM     23  O   UNL     1      25.581  34.829  17.264  1.00  0.00    -0.394 OA
ATOM     24  H   UNL     1      26.426  34.506  17.679  1.00  0.00     0.210 HD
ENDBRANCH  22  23
ENDBRANCH  17  22
BRANCH  19  25
ATOM     25  O   UNL     1      21.372  32.812  14.856  1.00  0.00    -0.350 OA
BRANCH  25  26
ATOM     26  C   UNL     1      21.310  34.187  14.783  1.00  0.00     0.169 C 
BRANCH  26  27
ATOM     27  C   UNL     1      21.526  34.743  13.392  1.00  0.00     0.119 C 
BRANCH  27  28
ATOM     28  N   UNL     1      22.124  36.068  13.428  1.00  0.00    -0.092 NA
ATOM     29  N   UNL     1      23.088  36.329  14.154  1.00  0.00     0.001 N 
ATOM     30  N   UNL     1      23.942  36.433  15.028  1.00  0.00    -0.003 NA
ENDBRANCH  27  28
ENDBRANCH  26  27
ENDBRANCH  25  26
ENDBRANCH  19  25
BRANCH  20  31
ATOM     31  O   UNL     1      25.248  33.494  14.266  1.00  0.00    -0.387 OA
ATOM     32  H   UNL     1      26.229  33.537  14.076  1.00  0.00     0.211 HD
ENDBRANCH  20  31
BRANCH  21  33
ATOM     33  O   UNL     1      23.462  30.557  14.275  1.00  0.00    -0.385 OA
ATOM     34  H   UNL     1      24.260  30.253  13.780  1.00  0.00     0.211 HD
ENDBRANCH  21  33
ENDBRANCH  15  16
ENDBRANCH  10  15
BRANCH  12  35
ATOM     35  O   UNL     1      27.739  28.861  16.674  1.00  0.00    -0.385 OA
ATOM     36  H   UNL     1      28.198  28.348  15.955  1.00  0.00     0.211 HD
ENDBRANCH  12  35
BRANCH  13  37
ATOM     37  O   UNL     1      28.662  31.975  15.200  1.00  0.00    -0.387 OA
ATOM     38  H   UNL     1      29.421  32.576  15.329  1.00  0.00     0.211 HD
ENDBRANCH  13  37
BRANCH  14  39
ATOM     39  O   UNL     1      30.715  30.892  17.179  1.00  0.00    -0.387 OA
ATOM     40  H   UNL     1      31.079  31.570  16.559  1.00  0.00     0.211 HD
ENDBRANCH  14  39
ENDBRANCH   8   9
ENDBRANCH   7   8
ENDBRANCH   1   7
BRANCH   1  41
ATOM     41  C   UNL     1      31.738  33.656  15.245  1.00  0.00     0.364 C 
ATOM     42  O   UNL     1      32.897  34.120  14.971  1.00  0.00    -0.246 OA
BRANCH  41  43
ATOM     43  O   UNL     1      31.453  32.449  14.652  1.00  0.00    -0.477 OA
ATOM     44  H   UNL     1      31.988  31.618  14.736  1.00  0.00     0.296 HD
ENDBRANCH  41  43
ENDBRANCH   1  41
BRANCH   3  45
ATOM     45  O   UNL     1      31.782  37.931  15.714  1.00  0.00    -0.391 OA
ATOM     46  H   UNL     1      31.584  38.525  14.928  1.00  0.00     0.211 HD
ENDBRANCH   3  45
BRANCH   5  47
ATOM     47  C   UNL     1      28.536  35.352  13.436  1.00  0.00     0.176 C 
BRANCH  47  48
ATOM     48  O   UNL     1      27.992  34.192  13.038  1.00  0.00    -0.388 OA
ATOM     49  H   UNL     1      28.468  33.368  13.339  1.00  0.00     0.211 HD
ENDBRANCH  47  48
BRANCH  47  50
ATOM     50  C   UNL     1      27.704  36.452  13.881  1.00  0.00     0.165 C 
BRANCH  50  51
ATOM     51  O   UNL     1      26.646  35.776  14.699  1.00  0.00    -0.388 OA
ATOM     52  H   UNL     1      26.441  36.354  15.451  1.00  0.00     0.211 HD
ENDBRANCH  50  51
BRANCH  50  53
ATOM     53  C   UNL     1      27.007  37.409  13.047  1.00  0.00     0.154 C 
BRANCH  53  54
ATOM     54  N   UNL     1      26.279  37.178  11.887  1.00  0.00    -0.319 N 
ATOM     55  C   UNL     1      25.484  36.117  11.408  1.00  0.00     0.407 C 
ATOM     56  H   UNL     1      26.336  38.030  11.164  1.00  0.00     0.167 HD
ATOM     57  O   UNL     1      25.321  35.081  12.078  1.00  0.00    -0.225 OA
BRANCH  55  58
ATOM     58  O   UNL     1      24.856  36.185  10.190  1.00  0.00    -0.443 OA
BRANCH  58  59
ATOM     59  C   UNL     1      25.281  35.792   8.965  1.00  0.00     0.294 C 
BRANCH  59  60
ATOM     60  C   UNL     1      26.201  36.744   8.302  1.00  0.00     0.120 A 
ATOM     61  C   UNL     1      26.914  36.523   7.116  1.00  0.00     0.138 A 
ATOM     62  N   UNL     1      26.615  37.981   8.694  1.00  0.00    -0.132 NA
ATOM     63  N   UNL     1      27.697  37.571   6.841  1.00  0.00    -0.243 N 
ATOM     64  N   UNL     1      27.486  38.433   7.820  1.00  0.00    -0.067 NA
BRANCH  63  65
ATOM     65  C   UNL     1      28.603  37.784   5.729  1.00  0.00     0.246 C 
BRANCH  65  66
ATOM     66  C   UNL     1      29.555  38.893   6.122  1.00  0.00     0.248 C 
ATOM     67  O   UNL     1      29.543  40.009   5.549  1.00  0.00    -0.272 OA
ATOM     68  N   UNL     1      30.492  38.685   7.164  1.00  0.00    -0.293 N 
ATOM     69  H   UNL     1      30.457  37.733   7.608  1.00  0.00     0.173 HD
BRANCH  68  70
ATOM     70  C   UNL     1      31.428  39.625   7.646  1.00  0.00     0.229 A 
ATOM     71  N   UNL     1      31.116  40.691   8.403  1.00  0.00    -0.221 NA
ATOM     72  N   UNL     1      32.724  39.449   7.321  1.00  0.00    -0.221 NA
ATOM     73  C   UNL     1      32.051  41.585   8.841  1.00  0.00     0.117 A 
ATOM     74  C   UNL     1      33.679  40.288   7.723  1.00  0.00     0.117 A 
ATOM     75  C   UNL     1      33.368  41.377   8.491  1.00  0.00     0.040 A 
ENDBRANCH  68  70
ENDBRANCH  65  66
ENDBRANCH  63  65
ENDBRANCH  59  60
ENDBRANCH  58  59
ENDBRANCH  55  58
ENDBRANCH  53  54
ENDBRANCH  50  53
ENDBRANCH  47  50
ENDBRANCH   5  47
BRANCH   4  76
ATOM     76  N   UNL     1      31.444  36.852  12.971  1.00  0.00    -0.348 N 
ATOM     77  C   UNL     1      31.130  38.040  12.210  1.00  0.00     0.217 C 
ATOM     78  H   UNL     1      32.251  36.269  12.623  1.00  0.00     0.163 HD
ATOM     79  C   UNL     1      31.950  38.353  11.021  1.00  0.00     0.114 C 
ATOM     80  O   UNL     1      30.183  38.774  12.559  1.00  0.00    -0.275 OA
ENDBRANCH   4  76
TORSDOF 32
BEGIN_RES LYS A 131
REMARK  4 active torsions:
REMARK  status: ('A' for Active; 'I' for Inactive)
REMARK    1  A    between atoms: CA   and  CB  
REMARK    2  A    between atoms: CB   and  CG  
REMARK    3  A    between atoms: CG   and  CD  
REMARK    4  A    between atoms: CD   and  CE  
ROOT
ATOM      1  CA  LYS A 131      29.867  25.555  16.977  1.00 20.52     0.186 C 
ENDROOT
BRANCH   1   2
ATOM      2  CB  LYS A 131      28.345  25.722  17.026  1.00 20.94     0.034 C 
BRANCH   2   3
ATOM      3  CG  LYS A 131      27.602  24.398  16.936  1.00 22.96     0.005 C 
BRANCH   3   4
ATOM      4  CD  LYS A 131      26.640  24.210  18.076  1.00 24.33     0.041 C 
BRANCH   4   5
ATOM      5  CE  LYS A 131      26.376  25.555  18.746  1.00 26.91     0.338 C 
ATOM      6  NZ  LYS A 131      25.550  25.374  19.964  1.00 27.40     0.618 N 
ENDBRANCH   4   5
ENDBRANCH   3   4
ENDBRANCH   2   3
ENDBRANCH   1   2
END_RES LYS A 131
BEGIN_RES LYS A 135
REMARK  4 active torsions:
REMARK  status: ('A' for Active; 'I' for Inactive)
REMARK    5  A    between atoms: CA   and  CB  
REMARK    6  A    between atoms: CB   and  CG  
REMARK    7  A    between atoms: CG   and  CD  
REMARK    8  A    between atoms: CD   and  CE  
ROOT
ATOM      7  CA  LYS A 135      33.193  34.663   9.290  1.00 25.02     0.186 C 
ENDROOT
BRANCH   7   8
ATOM      8  CB  LYS A 135      32.060  35.360  10.034  1.00 26.63     0.034 C 
BRANCH   8   9
ATOM      9  CG  LYS A 135      30.808  35.522   9.211  1.00 29.45     0.005 C 
BRANCH   9  10
ATOM     10  CD  LYS A 135      29.603  34.962   9.951  1.00 32.00     0.041 C 
BRANCH  10  11
ATOM     11  CE  LYS A 135      28.807  34.037   9.050  1.00 34.25     0.338 C 
ATOM     12  NZ  LYS A 135      27.624  33.481   9.764  1.00 35.99     0.618 N 
ENDBRANCH  10  11
ENDBRANCH   9  10
ENDBRANCH   8   9
ENDBRANCH   7   8
END_RES LYS A 135
