REMARK VINA RESULT:    -3.567      3.070      9.008
REMARK INTER + INTRA:         -21.452
REMARK INTER:                  -9.344
REMARK INTRA:                 -12.107
REMARK UNBOUND:               -12.359
REMARK SMILES CC(=O)N[C@@H]1[C@@H](O)C[C@](OC[C@H]2O[C@@H](O[C@H]3[C@H](O)[C@@H](O)[C@H](OCCN=[N+]=[N-])O[C@@H]3CO)[C@H](O)[C@@H](O)[C@H]2O)(C(=O)O)O[C@H]1C(O)[C@H](O)CNC(=O)OCc1cn(CC(=O)O)nn1
REMARK SMILES IDX 9 1 8 2 6 3 5 4 42 5 41 6 10 7 11 8 12 9 14 10 13 11 32 12
REMARK SMILES IDX 34 13 36 14 15 15 16 16 29 17 28 18 21 19 17 20 19 21 30 22
REMARK SMILES IDX 31 23 22 25 23 26 24 27 25 28 26 29 27 30 18 31 20 33 33 35
REMARK SMILES IDX 35 37 37 39 38 41 39 42 40 43 7 45 43 47 44 48 45 50 46 51
REMARK SMILES IDX 47 53 48 54 49 55 50 57 51 58 52 59 53 60 54 61 61 62 55 63
REMARK SMILES IDX 60 64 56 65 57 66 58 67 59 68 4 70 2 71 1 73 3 74
REMARK H PARENT 31 24 18 32 20 34 33 36 35 38 37 40 40 44 7 46 44 49 46 52
REMARK H PARENT 48 56 59 69 4 72
REMARK Flexibility Score: inf
ROOT
ATOM      1  C   UNL     1      28.335  39.315   6.016  1.00  0.00     0.272 C 
ATOM      2  C   UNL     1      28.161  39.965   4.674  1.00  0.00     0.113 C 
ATOM      3  C   UNL     1      27.213  41.088   4.600  1.00  0.00     0.145 C 
ATOM      4  C   UNL     1      26.231  41.215   5.759  1.00  0.00     0.142 C 
ATOM      5  C   UNL     1      26.124  39.852   6.370  1.00  0.00     0.178 C 
ATOM      6  O   UNL     1      27.409  39.669   6.947  1.00  0.00    -0.332 OA
ENDROOT
BRANCH   1   7
ATOM      7  O   UNL     1      29.620  39.559   6.550  1.00  0.00    -0.338 OA
BRANCH   7   8
ATOM      8  C   UNL     1      30.143  40.778   6.245  1.00  0.00     0.199 C 
BRANCH   8   9
ATOM      9  C   UNL     1      30.735  41.412   7.514  1.00  0.00     0.179 C 
ATOM     10  C   UNL     1      31.075  40.554   9.628  1.00  0.00     0.282 C 
ATOM     11  O   UNL     1      30.114  40.982   8.658  1.00  0.00    -0.341 OA
ATOM     12  C   UNL     1      31.705  39.352   9.025  1.00  0.00     0.202 C 
ATOM     13  C   UNL     1      32.684  39.878   7.962  1.00  0.00     0.179 C 
ATOM     14  C   UNL     1      32.241  41.246   7.519  1.00  0.00     0.177 C 
BRANCH  10  15
ATOM     15  O   UNL     1      30.422  40.398  10.814  1.00  0.00    -0.341 OA
BRANCH  15  16
ATOM     16  C   UNL     1      29.286  41.198  10.944  1.00  0.00     0.184 C 
ATOM     17  C   UNL     1      29.423  42.011  12.198  1.00  0.00     0.178 C 
ATOM     18  O   UNL     1      28.200  42.294  12.743  1.00  0.00    -0.341 OA
ATOM     19  C   UNL     1      27.171  42.545  11.871  1.00  0.00     0.281 C 
ATOM     20  C   UNL     1      28.032  40.358  11.055  1.00  0.00     0.180 C 
ATOM     21  C   UNL     1      26.851  41.330  11.016  1.00  0.00     0.202 C 
BRANCH  17  22
ATOM     22  C   UNL     1      30.148  43.305  11.879  1.00  0.00     0.191 C 
BRANCH  22  23
ATOM     23  O   UNL     1      30.128  43.426  10.487  1.00  0.00    -0.394 OA
ATOM     24  H   UNL     1      29.232  43.236  10.131  1.00  0.00     0.210 HD
ENDBRANCH  22  23
ENDBRANCH  17  22
BRANCH  19  25
ATOM     25  O   UNL     1      27.420  43.664  11.125  1.00  0.00    -0.350 OA
BRANCH  25  26
ATOM     26  C   UNL     1      26.305  44.394  10.802  1.00  0.00     0.169 C 
BRANCH  26  27
ATOM     27  C   UNL     1      26.071  44.566   9.324  1.00  0.00     0.119 C 
BRANCH  27  28
ATOM     28  N   UNL     1      24.911  43.790   8.880  1.00  0.00    -0.092 NA
ATOM     29  N   UNL     1      24.177  43.353   9.789  1.00  0.00     0.001 N 
ATOM     30  N   UNL     1      23.487  42.505  10.386  1.00  0.00    -0.003 NA
ENDBRANCH  27  28
ENDBRANCH  26  27
ENDBRANCH  25  26
ENDBRANCH  19  25
BRANCH  20  31
ATOM     31  O   UNL     1      27.866  39.477  10.015  1.00  0.00    -0.387 OA
ATOM     32  H   UNL     1      26.950  39.325   9.734  1.00  0.00     0.211 HD
ENDBRANCH  20  31
BRANCH  21  33
ATOM     33  O   UNL     1      25.694  40.732  11.477  1.00  0.00    -0.385 OA
ATOM     34  H   UNL     1      24.980  41.397  11.652  1.00  0.00     0.211 HD
ENDBRANCH  21  33
ENDBRANCH  15  16
ENDBRANCH  10  15
BRANCH  12  35
ATOM     35  O   UNL     1      32.284  38.455   9.874  1.00  0.00    -0.385 OA
ATOM     36  H   UNL     1      33.027  38.004   9.441  1.00  0.00     0.211 HD
ENDBRANCH  12  35
BRANCH  13  37
ATOM     37  O   UNL     1      32.651  38.980   6.905  1.00  0.00    -0.387 OA
ATOM     38  H   UNL     1      31.799  38.461   6.866  1.00  0.00     0.211 HD
ENDBRANCH  13  37
BRANCH  14  39
ATOM     39  O   UNL     1      32.693  41.401   6.209  1.00  0.00    -0.387 OA
ATOM     40  H   UNL     1      32.085  41.953   5.663  1.00  0.00     0.211 HD
ENDBRANCH  14  39
ENDBRANCH   8   9
ENDBRANCH   7   8
ENDBRANCH   1   7
BRANCH   1  41
ATOM     41  C   UNL     1      28.276  37.847   5.826  1.00  0.00     0.364 C 
ATOM     42  O   UNL     1      29.114  37.086   6.345  1.00  0.00    -0.246 OA
BRANCH  41  43
ATOM     43  O   UNL     1      27.285  37.252   5.064  1.00  0.00    -0.477 OA
ATOM     44  H   UNL     1      26.397  36.923   5.463  1.00  0.00     0.296 HD
ENDBRANCH  41  43
ENDBRANCH   1  41
BRANCH   3  45
ATOM     45  O   UNL     1      27.800  42.318   4.285  1.00  0.00    -0.391 OA
ATOM     46  H   UNL     1      28.761  42.274   4.149  1.00  0.00     0.211 HD
ENDBRANCH   3  45
BRANCH   5  47
ATOM     47  C   UNL     1      25.092  39.651   7.427  1.00  0.00     0.176 C 
BRANCH  47  48
ATOM     48  O   UNL     1      25.370  40.675   8.392  1.00  0.00    -0.388 OA
ATOM     49  H   UNL     1      24.516  40.943   8.839  1.00  0.00     0.211 HD
ENDBRANCH  47  48
BRANCH  47  50
ATOM     50  C   UNL     1      25.176  38.316   8.134  1.00  0.00     0.165 C 
BRANCH  50  51
ATOM     51  O   UNL     1      24.822  37.292   7.217  1.00  0.00    -0.388 OA
ATOM     52  H   UNL     1      24.057  37.623   6.698  1.00  0.00     0.211 HD
ENDBRANCH  50  51
BRANCH  50  53
ATOM     53  C   UNL     1      24.309  38.224   9.328  1.00  0.00     0.154 C 
BRANCH  53  54
ATOM     54  N   UNL     1      25.054  38.151  10.551  1.00  0.00    -0.319 N 
ATOM     55  C   UNL     1      25.659  37.007  11.117  1.00  0.00     0.407 C 
ATOM     56  H   UNL     1      25.205  39.041  11.150  1.00  0.00     0.167 HD
ATOM     57  O   UNL     1      25.582  35.900  10.578  1.00  0.00    -0.225 OA
BRANCH  55  58
ATOM     58  O   UNL     1      26.374  37.062  12.319  1.00  0.00    -0.443 OA
BRANCH  58  59
ATOM     59  C   UNL     1      27.216  35.993  12.716  1.00  0.00     0.294 C 
BRANCH  59  60
ATOM     60  C   UNL     1      28.647  36.430  12.734  1.00  0.00     0.120 A 
ATOM     61  C   UNL     1      29.608  36.079  13.671  1.00  0.00     0.139 A 
ATOM     62  N   UNL     1      29.273  37.233  11.860  1.00  0.00    -0.132 NA
ATOM     63  N   UNL     1      30.763  36.679  13.330  1.00  0.00    -0.241 N 
ATOM     64  N   UNL     1      30.534  37.375  12.227  1.00  0.00    -0.066 NA
BRANCH  63  65
ATOM     65  C   UNL     1      32.053  36.599  14.023  1.00  0.00     0.268 C 
BRANCH  65  66
ATOM     66  C   UNL     1      32.741  35.378  13.565  1.00  0.00     0.325 C 
ATOM     67  O   UNL     1      33.344  34.659  14.375  1.00  0.00    -0.250 OA
BRANCH  66  68
ATOM     68  O   UNL     1      32.713  35.038  12.228  1.00  0.00    -0.480 OA
ATOM     69  H   UNL     1      32.262  35.594  11.532  1.00  0.00     0.296 HD
ENDBRANCH  66  68
ENDBRANCH  65  66
ENDBRANCH  63  65
ENDBRANCH  59  60
ENDBRANCH  58  59
ENDBRANCH  55  58
ENDBRANCH  53  54
ENDBRANCH  50  53
ENDBRANCH  47  50
ENDBRANCH   5  47
BRANCH   4  70
ATOM     70  N   UNL     1      25.029  41.855   5.351  1.00  0.00    -0.348 N 
ATOM     71  C   UNL     1      24.888  43.286   5.323  1.00  0.00     0.217 C 
ATOM     72  H   UNL     1      24.206  41.303   5.038  1.00  0.00     0.163 HD
ATOM     73  C   UNL     1      23.599  43.867   4.882  1.00  0.00     0.114 C 
ATOM     74  O   UNL     1      25.834  44.034   5.665  1.00  0.00    -0.275 OA
ENDBRANCH   4  70
TORSDOF 32
BEGIN_RES LYS A 131
REMARK  4 active torsions:
REMARK  status: ('A' for Active; 'I' for Inactive)
REMARK    1  A    between atoms: CA   and  CB  
REMARK    2  A    between atoms: CB   and  CG  
REMARK    3  A    between atoms: CG   and  CD  
REMARK    4  A    between atoms: CD   and  CE  
ROOT
ATOM      1  CA  LYS A 131      29.867  25.555  16.977  1.00 20.52     0.186 C 
ENDROOT
BRANCH   1   2
ATOM      2  CB  LYS A 131      28.345  25.722  17.026  1.00 20.94     0.034 C 
BRANCH   2   3
ATOM      3  CG  LYS A 131      27.600  24.408  16.849  1.00 22.96     0.005 C 
BRANCH   3   4
ATOM      4  CD  LYS A 131      26.238  24.439  17.484  1.00 24.33     0.041 C 
BRANCH   4   5
ATOM      5  CE  LYS A 131      25.956  25.840  18.017  1.00 26.91     0.338 C 
ATOM      6  NZ  LYS A 131      24.595  26.279  17.627  1.00 27.40     0.618 N 
ENDBRANCH   4   5
ENDBRANCH   3   4
ENDBRANCH   2   3
ENDBRANCH   1   2
END_RES LYS A 131
BEGIN_RES LYS A 135
REMARK  4 active torsions:
REMARK  status: ('A' for Active; 'I' for Inactive)
REMARK    5  A    between atoms: CA   and  CB  
REMARK    6  A    between atoms: CB   and  CG  
REMARK    7  A    between atoms: CG   and  CD  
REMARK    8  A    between atoms: CD   and  CE  
ROOT
ATOM      7  CA  LYS A 135      33.193  34.663   9.290  1.00 25.02     0.186 C 
ENDROOT
BRANCH   7   8
ATOM      8  CB  LYS A 135      32.060  35.360  10.034  1.00 26.63     0.034 C 
BRANCH   8   9
ATOM      9  CG  LYS A 135      30.777  35.434   9.246  1.00 29.45     0.005 C 
BRANCH   9  10
ATOM     10  CD  LYS A 135      30.149  34.055   9.114  1.00 32.00     0.041 C 
BRANCH  10  11
ATOM     11  CE  LYS A 135      28.675  34.105   9.470  1.00 34.25     0.338 C 
ATOM     12  NZ  LYS A 135      27.865  34.619   8.331  1.00 35.99     0.618 N 
ENDBRANCH  10  11
ENDBRANCH   9  10
ENDBRANCH   8   9
ENDBRANCH   7   8
END_RES LYS A 135
