REMARK VINA RESULT:    -3.947      5.026     11.159
REMARK INTER + INTRA:         -22.727
REMARK INTER:                 -10.955
REMARK INTRA:                 -11.772
REMARK UNBOUND:               -11.857
REMARK SMILES CC[N+](C)(CC)CCCn1cc(COC(=O)NC[C@@H](O)C(O)[C@@H]2O[C@@](OC[C@H]3O[C@@H](O[C@H]4[C@H](O)[C@@H](O)[C@H](OCCN=[N+]=[N-])O[C@@H]4CO)[C@H](O)[C@@H](O)[C@H]3O)(C(=O)O)C[C@H](O)[C@H]2NC(C)=O)nn1
REMARK SMILES IDX 21 1 23 2 25 3 57 4 24 5 58 6 60 7 26 8 27 9 28 10 30 11
REMARK SMILES IDX 29 12 48 13 50 14 52 15 31 16 32 17 45 18 44 19 37 20 33 21
REMARK SMILES IDX 35 22 46 23 47 24 38 26 39 27 40 28 41 29 42 30 43 31 34 32
REMARK SMILES IDX 36 34 49 36 51 38 53 40 54 42 55 43 56 44 59 46 61 48 62 49
REMARK SMILES IDX 63 51 64 52 22 53 19 55 20 56 18 58 17 59 15 60 16 62 14 63
REMARK SMILES IDX 13 64 12 65 11 66 65 67 10 68 66 69 9 70 8 71 7 72 3 73 4 74
REMARK SMILES IDX 2 75 1 76 5 77 6 78
REMARK H PARENT 47 25 34 33 36 35 49 37 51 39 53 41 56 45 59 47 61 50 22 54
REMARK H PARENT 20 57 17 61
REMARK Flexibility Score: inf
ROOT
ATOM      1  C   UNL     1      24.085  37.141   7.682  1.00  0.00     0.176 C 
ENDROOT
BRANCH   1   2
ATOM      2  C   UNL     1      24.953  38.394   7.759  1.00  0.00     0.178 C 
ATOM      3  C   UNL     1      27.181  39.010   8.229  1.00  0.00     0.272 C 
ATOM      4  C   UNL     1      26.551  40.255   8.759  1.00  0.00     0.113 C 
ATOM      5  O   UNL     1      26.167  38.014   8.288  1.00  0.00    -0.332 OA
ATOM      6  C   UNL     1      25.298  39.980   9.548  1.00  0.00     0.145 C 
ATOM      7  C   UNL     1      24.252  39.424   8.585  1.00  0.00     0.142 C 
BRANCH   3   8
ATOM      8  O   UNL     1      28.169  38.490   9.038  1.00  0.00    -0.338 OA
BRANCH   8   9
ATOM      9  C   UNL     1      29.198  39.256   9.434  1.00  0.00     0.199 C 
BRANCH   9  10
ATOM     10  C   UNL     1      28.901  39.925  10.802  1.00  0.00     0.179 C 
ATOM     11  C   UNL     1      29.423  38.192  12.314  1.00  0.00     0.282 C 
ATOM     12  O   UNL     1      28.500  39.058  11.741  1.00  0.00    -0.341 OA
ATOM     13  C   UNL     1      30.791  38.750  12.418  1.00  0.00     0.202 C 
ATOM     14  C   UNL     1      30.589  40.273  12.581  1.00  0.00     0.179 C 
ATOM     15  C   UNL     1      30.129  40.736  11.217  1.00  0.00     0.177 C 
BRANCH  11  16
ATOM     16  O   UNL     1      29.316  36.917  11.742  1.00  0.00    -0.341 OA
BRANCH  16  17
ATOM     17  C   UNL     1      28.471  36.097  12.432  1.00  0.00     0.184 C 
ATOM     18  C   UNL     1      28.971  34.854  13.027  1.00  0.00     0.178 C 
ATOM     19  O   UNL     1      28.024  34.346  13.899  1.00  0.00    -0.341 OA
ATOM     20  C   UNL     1      26.738  34.732  13.783  1.00  0.00     0.281 C 
ATOM     21  C   UNL     1      27.284  35.675  11.536  1.00  0.00     0.180 C 
ATOM     22  C   UNL     1      26.225  35.042  12.399  1.00  0.00     0.202 C 
BRANCH  18  23
ATOM     23  C   UNL     1      30.282  34.946  13.782  1.00  0.00     0.191 C 
BRANCH  23  24
ATOM     24  O   UNL     1      31.287  34.154  13.241  1.00  0.00    -0.394 OA
ATOM     25  H   UNL     1      30.865  33.660  12.466  1.00  0.00     0.210 HD
ENDBRANCH  23  24
ENDBRANCH  18  23
BRANCH  20  26
ATOM     26  O   UNL     1      26.425  35.722  14.698  1.00  0.00    -0.350 OA
BRANCH  26  27
ATOM     27  C   UNL     1      25.314  36.452  14.430  1.00  0.00     0.169 C 
BRANCH  27  28
ATOM     28  C   UNL     1      25.529  37.949  14.519  1.00  0.00     0.119 C 
BRANCH  28  29
ATOM     29  N   UNL     1      24.718  38.613  13.512  1.00  0.00    -0.092 NA
ATOM     30  N   UNL     1      24.288  39.756  13.646  1.00  0.00     0.001 N 
ATOM     31  N   UNL     1      23.867  40.910  13.749  1.00  0.00    -0.003 NA
ENDBRANCH  28  29
ENDBRANCH  27  28
ENDBRANCH  26  27
ENDBRANCH  20  26
BRANCH  21  32
ATOM     32  O   UNL     1      26.889  36.797  10.846  1.00  0.00    -0.387 OA
ATOM     33  H   UNL     1      25.992  37.114  11.032  1.00  0.00     0.211 HD
ENDBRANCH  21  32
BRANCH  22  34
ATOM     34  O   UNL     1      25.722  33.928  11.745  1.00  0.00    -0.385 OA
ATOM     35  H   UNL     1      25.916  33.070  12.206  1.00  0.00     0.211 HD
ENDBRANCH  22  34
ENDBRANCH  16  17
ENDBRANCH  11  16
BRANCH  13  36
ATOM     36  O   UNL     1      31.486  38.336  13.565  1.00  0.00    -0.385 OA
ATOM     37  H   UNL     1      32.424  38.213  13.304  1.00  0.00     0.211 HD
ENDBRANCH  13  36
BRANCH  14  38
ATOM     38  O   UNL     1      31.805  40.868  12.916  1.00  0.00    -0.387 OA
ATOM     39  H   UNL     1      31.838  41.728  12.449  1.00  0.00     0.211 HD
ENDBRANCH  14  38
BRANCH  15  40
ATOM     40  O   UNL     1      31.152  40.400  10.333  1.00  0.00    -0.387 OA
ATOM     41  H   UNL     1      32.052  40.558  10.657  1.00  0.00     0.211 HD
ENDBRANCH  15  40
ENDBRANCH   9  10
ENDBRANCH   8   9
ENDBRANCH   3   8
BRANCH   3  42
ATOM     42  C   UNL     1      27.676  39.111   6.846  1.00  0.00     0.364 C 
ATOM     43  O   UNL     1      28.095  38.113   6.219  1.00  0.00    -0.246 OA
BRANCH  42  44
ATOM     44  O   UNL     1      27.697  40.318   6.189  1.00  0.00    -0.477 OA
ATOM     45  H   UNL     1      27.590  41.215   6.661  1.00  0.00     0.296 HD
ENDBRANCH  42  44
ENDBRANCH   3  42
BRANCH   6  46
ATOM     46  O   UNL     1      25.483  39.094  10.583  1.00  0.00    -0.391 OA
ATOM     47  H   UNL     1      24.736  38.424  10.642  1.00  0.00     0.211 HD
ENDBRANCH   6  46
BRANCH   7  48
ATOM     48  N   UNL     1      23.903  40.564   7.721  1.00  0.00    -0.348 N 
ATOM     49  C   UNL     1      22.547  40.922   7.478  1.00  0.00     0.217 C 
ATOM     50  H   UNL     1      24.611  41.157   7.243  1.00  0.00     0.163 HD
ATOM     51  C   UNL     1      22.149  42.064   6.617  1.00  0.00     0.114 C 
ATOM     52  O   UNL     1      21.654  40.246   8.018  1.00  0.00    -0.275 OA
ENDBRANCH   7  48
ENDBRANCH   1   2
BRANCH   1  53
ATOM     53  O   UNL     1      22.801  37.517   7.158  1.00  0.00    -0.388 OA
ATOM     54  H   UNL     1      22.444  38.208   7.776  1.00  0.00     0.211 HD
ENDBRANCH   1  53
BRANCH   1  55
ATOM     55  C   UNL     1      23.833  36.578   9.042  1.00  0.00     0.165 C 
BRANCH  55  56
ATOM     56  O   UNL     1      24.858  35.549   9.160  1.00  0.00    -0.388 OA
ATOM     57  H   UNL     1      24.375  34.667   9.205  1.00  0.00     0.211 HD
ENDBRANCH  55  56
BRANCH  55  58
ATOM     58  C   UNL     1      22.524  35.925   9.290  1.00  0.00     0.154 C 
BRANCH  58  59
ATOM     59  N   UNL     1      22.357  34.891  10.208  1.00  0.00    -0.319 N 
ATOM     60  C   UNL     1      22.388  34.954  11.621  1.00  0.00     0.407 C 
ATOM     61  H   UNL     1      22.177  33.885   9.798  1.00  0.00     0.167 HD
ATOM     62  O   UNL     1      22.579  35.999  12.261  1.00  0.00    -0.225 OA
BRANCH  60  63
ATOM     63  O   UNL     1      22.206  33.773  12.381  1.00  0.00    -0.443 OA
BRANCH  63  64
ATOM     64  C   UNL     1      22.549  33.844  13.779  1.00  0.00     0.294 C 
BRANCH  64  65
ATOM     65  C   UNL     1      23.458  32.652  13.963  1.00  0.00     0.120 A 
ATOM     66  C   UNL     1      23.828  32.075  15.154  1.00  0.00     0.138 A 
ATOM     67  N   UNL     1      24.038  31.896  13.024  1.00  0.00    -0.132 NA
ATOM     68  N   UNL     1      24.619  30.985  14.891  1.00  0.00    -0.252 N 
ATOM     69  N   UNL     1      24.722  30.915  13.577  1.00  0.00    -0.067 NA
BRANCH  68  70
ATOM     70  C   UNL     1      25.173  30.082  15.884  1.00  0.00     0.152 C 
BRANCH  70  71
ATOM     71  C   UNL     1      26.168  30.726  16.750  1.00  0.00     0.085 C 
BRANCH  71  72
ATOM     72  C   UNL     1      27.211  31.593  16.178  1.00  0.00     0.265 C 
BRANCH  72  73
ATOM     73  N   UNL     1      28.480  31.666  16.824  1.00  0.00    -0.326 N 
ATOM     74  C   UNL     1      28.515  30.779  17.954  1.00  0.00     0.334 C 
BRANCH  73  75
ATOM     75  C   UNL     1      28.919  32.984  17.186  1.00  0.00     0.260 C 
ATOM     76  C   UNL     1      27.778  33.947  17.412  1.00  0.00     0.071 C 
ENDBRANCH  73  75
BRANCH  73  77
ATOM     77  C   UNL     1      29.452  31.112  15.867  1.00  0.00     0.260 C 
ATOM     78  C   UNL     1      30.749  31.840  15.832  1.00  0.00     0.071 C 
ENDBRANCH  73  77
ENDBRANCH  72  73
ENDBRANCH  71  72
ENDBRANCH  70  71
ENDBRANCH  68  70
ENDBRANCH  64  65
ENDBRANCH  63  64
ENDBRANCH  60  63
ENDBRANCH  58  59
ENDBRANCH  55  58
ENDBRANCH   1  55
TORSDOF 35
BEGIN_RES LYS A 131
REMARK  4 active torsions:
REMARK  status: ('A' for Active; 'I' for Inactive)
REMARK    1  A    between atoms: CA   and  CB  
REMARK    2  A    between atoms: CB   and  CG  
REMARK    3  A    between atoms: CG   and  CD  
REMARK    4  A    between atoms: CD   and  CE  
ROOT
ATOM      1  CA  LYS A 131      29.867  25.555  16.977  1.00 20.52     0.186 C 
ENDROOT
BRANCH   1   2
ATOM      2  CB  LYS A 131      28.345  25.722  17.026  1.00 20.94     0.034 C 
BRANCH   2   3
ATOM      3  CG  LYS A 131      27.603  24.396  16.963  1.00 22.96     0.005 C 
BRANCH   3   4
ATOM      4  CD  LYS A 131      26.113  24.576  17.049  1.00 24.33     0.041 C 
BRANCH   4   5
ATOM      5  CE  LYS A 131      25.699  24.708  18.511  1.00 26.91     0.338 C 
ATOM      6  NZ  LYS A 131      25.817  23.403  19.203  1.00 27.40     0.618 N 
ENDBRANCH   4   5
ENDBRANCH   3   4
ENDBRANCH   2   3
ENDBRANCH   1   2
END_RES LYS A 131
BEGIN_RES LYS A 135
REMARK  4 active torsions:
REMARK  status: ('A' for Active; 'I' for Inactive)
REMARK    5  A    between atoms: CA   and  CB  
REMARK    6  A    between atoms: CB   and  CG  
REMARK    7  A    between atoms: CG   and  CD  
REMARK    8  A    between atoms: CD   and  CE  
ROOT
ATOM      7  CA  LYS A 135      33.193  34.663   9.290  1.00 25.02     0.186 C 
ENDROOT
BRANCH   7   8
ATOM      8  CB  LYS A 135      32.060  35.360  10.034  1.00 26.63     0.034 C 
BRANCH   8   9
ATOM      9  CG  LYS A 135      30.705  34.756   9.770  1.00 29.45     0.005 C 
BRANCH   9  10
ATOM     10  CD  LYS A 135      30.520  34.480   8.286  1.00 32.00     0.041 C 
BRANCH  10  11
ATOM     11  CE  LYS A 135      29.401  35.332   7.720  1.00 34.25     0.338 C 
ATOM     12  NZ  LYS A 135      28.068  34.792   8.105  1.00 35.99     0.618 N 
ENDBRANCH  10  11
ENDBRANCH   9  10
ENDBRANCH   8   9
ENDBRANCH   7   8
END_RES LYS A 135
