REMARK VINA RESULT:    -4.806      5.839     10.696
REMARK INTER + INTRA:         -23.582
REMARK INTER:                 -12.697
REMARK INTRA:                 -10.885
REMARK UNBOUND:               -10.207
REMARK SMILES CC(=O)N[C@@H]1[C@@H](O)C[C@](OC[C@H]2O[C@@H](O[C@H]3[C@H](O)[C@@H](O)[C@H](OCCN=[N+]=[N-])O[C@@H]3CO)[C@H](O)[C@@H](O)[C@H]2O)(C(=O)O)O[C@H]1C(O)[C@H](O)CNC(=O)OCc1cn(C[C@H](CC(=O)O)CC(C)C)nn1
REMARK SMILES IDX 43 1 42 2 9 3 8 4 41 5 6 6 5 7 10 8 11 9 12 10 14 11 13 12
REMARK SMILES IDX 32 13 34 14 36 15 15 16 16 17 29 18 28 19 21 20 17 21 19 22
REMARK SMILES IDX 30 23 31 24 22 26 23 27 24 28 25 29 26 30 27 31 18 32 20 34
REMARK SMILES IDX 33 36 35 38 37 40 38 42 39 43 40 44 7 46 4 48 2 49 1 51 3 52
REMARK SMILES IDX 44 53 45 55 46 56 47 58 48 59 49 60 50 62 51 63 52 64 53 65
REMARK SMILES IDX 54 66 67 67 55 68 66 69 56 70 57 71 58 72 59 73 60 74 61 75
REMARK SMILES IDX 62 77 63 78 64 79 65 80
REMARK H PARENT 31 25 18 33 20 35 33 37 35 39 37 41 40 45 7 47 4 50 44 54
REMARK H PARENT 46 57 48 61 61 76
REMARK Flexibility Score: inf
ROOT
ATOM      1  C   UNL     1      22.594  36.478  10.980  1.00  0.00     0.176 C 
ENDROOT
BRANCH   1   2
ATOM      2  C   UNL     1      21.716  35.347  10.521  1.00  0.00     0.178 C 
ATOM      3  C   UNL     1      19.689  35.838   9.313  1.00  0.00     0.272 C 
ATOM      4  C   UNL     1      18.884  35.678  10.553  1.00  0.00     0.113 C 
ATOM      5  O   UNL     1      20.995  35.837   9.479  1.00  0.00    -0.332 OA
ATOM      6  C   UNL     1      19.610  35.588  11.834  1.00  0.00     0.145 C 
ATOM      7  C   UNL     1      20.949  34.859  11.701  1.00  0.00     0.142 C 
BRANCH   3   8
ATOM      8  O   UNL     1      19.315  37.048   8.665  1.00  0.00    -0.338 OA
BRANCH   8   9
ATOM      9  C   UNL     1      18.448  37.826   9.367  1.00  0.00     0.199 C 
BRANCH   9  10
ATOM     10  C   UNL     1      18.914  39.298   9.341  1.00  0.00     0.179 C 
ATOM     11  C   UNL     1      20.825  40.607   9.486  1.00  0.00     0.282 C 
ATOM     12  O   UNL     1      20.279  39.377   9.152  1.00  0.00    -0.341 OA
ATOM     13  C   UNL     1      19.776  41.667   9.118  1.00  0.00     0.202 C 
ATOM     14  C   UNL     1      19.023  41.245   7.873  1.00  0.00     0.179 C 
ATOM     15  C   UNL     1      18.256  39.994   8.141  1.00  0.00     0.177 C 
BRANCH  11  16
ATOM     16  O   UNL     1      21.890  40.857   8.657  1.00  0.00    -0.341 OA
BRANCH  16  17
ATOM     17  C   UNL     1      23.070  40.236   8.971  1.00  0.00     0.184 C 
ATOM     18  C   UNL     1      24.212  41.166   9.255  1.00  0.00     0.178 C 
ATOM     19  O   UNL     1      25.253  41.102   8.376  1.00  0.00    -0.341 OA
ATOM     20  C   UNL     1      25.814  39.851   8.208  1.00  0.00     0.281 C 
ATOM     21  C   UNL     1      23.460  39.383   7.781  1.00  0.00     0.180 C 
ATOM     22  C   UNL     1      24.822  38.746   8.092  1.00  0.00     0.202 C 
BRANCH  18  23
ATOM     23  C   UNL     1      24.634  40.953  10.698  1.00  0.00     0.191 C 
BRANCH  23  24
ATOM     24  O   UNL     1      23.896  39.936  11.297  1.00  0.00    -0.394 OA
ATOM     25  H   UNL     1      23.031  40.265  11.665  1.00  0.00     0.210 HD
ENDBRANCH  23  24
ENDBRANCH  18  23
BRANCH  20  26
ATOM     26  O   UNL     1      26.757  39.674   9.209  1.00  0.00    -0.350 OA
BRANCH  26  27
ATOM     27  C   UNL     1      27.136  38.352   9.376  1.00  0.00     0.169 C 
BRANCH  27  28
ATOM     28  C   UNL     1      27.820  38.256  10.733  1.00  0.00     0.119 C 
BRANCH  28  29
ATOM     29  N   UNL     1      29.103  37.615  10.486  1.00  0.00    -0.092 NA
ATOM     30  N   UNL     1      29.939  38.216   9.852  1.00  0.00     0.001 N 
ATOM     31  N   UNL     1      30.892  38.525   9.124  1.00  0.00    -0.003 NA
ENDBRANCH  28  29
ENDBRANCH  27  28
ENDBRANCH  26  27
ENDBRANCH  20  26
BRANCH  21  32
ATOM     32  O   UNL     1      22.492  38.426   7.539  1.00  0.00    -0.387 OA
ATOM     33  H   UNL     1      21.600  38.871   7.691  1.00  0.00     0.211 HD
ENDBRANCH  21  32
BRANCH  22  34
ATOM     34  O   UNL     1      25.078  37.896   6.995  1.00  0.00    -0.385 OA
ATOM     35  H   UNL     1      24.378  37.209   6.993  1.00  0.00     0.211 HD
ENDBRANCH  22  34
ENDBRANCH  16  17
ENDBRANCH  11  16
BRANCH  13  36
ATOM     36  O   UNL     1      18.966  42.007  10.173  1.00  0.00    -0.385 OA
ATOM     37  H   UNL     1      19.277  41.701  11.042  1.00  0.00     0.211 HD
ENDBRANCH  13  36
BRANCH  14  38
ATOM     38  O   UNL     1      20.015  40.974   6.908  1.00  0.00    -0.387 OA
ATOM     39  H   UNL     1      19.769  41.293   6.026  1.00  0.00     0.211 HD
ENDBRANCH  14  38
BRANCH  15  40
ATOM     40  O   UNL     1      18.375  39.174   6.999  1.00  0.00    -0.387 OA
ATOM     41  H   UNL     1      19.052  38.492   7.129  1.00  0.00     0.211 HD
ENDBRANCH  15  40
ENDBRANCH   9  10
ENDBRANCH   8   9
ENDBRANCH   3   8
BRANCH   3  42
ATOM     42  C   UNL     1      19.269  34.790   8.300  1.00  0.00     0.364 C 
ATOM     43  O   UNL     1      18.222  34.149   8.460  1.00  0.00    -0.246 OA
BRANCH  42  44
ATOM     44  O   UNL     1      20.040  34.540   7.202  1.00  0.00    -0.477 OA
ATOM     45  H   UNL     1      20.308  35.261   6.533  1.00  0.00     0.296 HD
ENDBRANCH  42  44
ENDBRANCH   3  42
BRANCH   6  46
ATOM     46  O   UNL     1      19.796  36.762  12.531  1.00  0.00    -0.391 OA
ATOM     47  H   UNL     1      19.082  37.383  12.240  1.00  0.00     0.211 HD
ENDBRANCH   6  46
BRANCH   7  48
ATOM     48  N   UNL     1      20.624  33.458  11.711  1.00  0.00    -0.348 N 
ATOM     49  C   UNL     1      21.477  32.567  12.464  1.00  0.00     0.217 C 
ATOM     50  H   UNL     1      19.822  33.010  11.216  1.00  0.00     0.163 HD
ATOM     51  C   UNL     1      21.131  31.103  12.477  1.00  0.00     0.114 C 
ATOM     52  O   UNL     1      22.482  32.974  13.096  1.00  0.00    -0.275 OA
ENDBRANCH   7  48
ENDBRANCH   1   2
BRANCH   1  53
ATOM     53  O   UNL     1      21.995  37.705  10.565  1.00  0.00    -0.388 OA
ATOM     54  H   UNL     1      21.533  38.118  11.340  1.00  0.00     0.211 HD
ENDBRANCH   1  53
BRANCH   1  55
ATOM     55  C   UNL     1      23.986  36.550  10.394  1.00  0.00     0.165 C 
BRANCH  55  56
ATOM     56  O   UNL     1      23.771  35.896   9.104  1.00  0.00    -0.388 OA
ATOM     57  H   UNL     1      23.251  35.076   9.385  1.00  0.00     0.211 HD
ENDBRANCH  55  56
BRANCH  55  58
ATOM     58  C   UNL     1      24.946  35.628  11.064  1.00  0.00     0.154 C 
BRANCH  58  59
ATOM     59  N   UNL     1      25.696  34.855  10.141  1.00  0.00    -0.319 N 
ATOM     60  C   UNL     1      27.010  34.439  10.574  1.00  0.00     0.407 C 
ATOM     61  H   UNL     1      25.429  34.550   9.187  1.00  0.00     0.167 HD
ATOM     62  O   UNL     1      27.421  34.767  11.723  1.00  0.00    -0.225 OA
BRANCH  60  63
ATOM     63  O   UNL     1      27.867  33.695   9.794  1.00  0.00    -0.443 OA
BRANCH  63  64
ATOM     64  C   UNL     1      28.920  34.209   9.005  1.00  0.00     0.294 C 
BRANCH  64  65
ATOM     65  C   UNL     1      28.445  35.087   7.898  1.00  0.00     0.120 A 
ATOM     66  C   UNL     1      29.179  35.918   7.084  1.00  0.00     0.138 A 
ATOM     67  N   UNL     1      27.170  35.199   7.514  1.00  0.00    -0.132 NA
ATOM     68  N   UNL     1      28.320  36.526   6.210  1.00  0.00    -0.252 N 
ATOM     69  N   UNL     1      27.132  36.059   6.512  1.00  0.00    -0.067 NA
BRANCH  68  70
ATOM     70  C   UNL     1      28.643  37.478   5.212  1.00  0.00     0.150 C 
BRANCH  70  71
ATOM     71  C   UNL     1      28.296  38.873   5.519  1.00  0.00     0.022 C 
BRANCH  71  72
ATOM     72  C   UNL     1      27.706  39.683   4.426  1.00  0.00     0.128 C 
BRANCH  72  73
ATOM     73  C   UNL     1      26.680  40.665   4.800  1.00  0.00     0.303 C 
ATOM     74  O   UNL     1      27.012  41.867   4.973  1.00  0.00    -0.252 OA
BRANCH  73  75
ATOM     75  O   UNL     1      25.340  40.348   4.978  1.00  0.00    -0.481 OA
ATOM     76  H   UNL     1      24.955  39.511   4.563  1.00  0.00     0.296 HD
ENDBRANCH  73  75
ENDBRANCH  72  73
ENDBRANCH  71  72
BRANCH  71  77
ATOM     77  C   UNL     1      29.331  39.620   6.310  1.00  0.00     0.009 C 
BRANCH  77  78
ATOM     78  C   UNL     1      30.263  40.511   5.622  1.00  0.00    -0.017 C 
ATOM     79  C   UNL     1      30.359  41.930   6.054  1.00  0.00     0.007 C 
ATOM     80  C   UNL     1      31.673  39.965   5.489  1.00  0.00     0.007 C 
ENDBRANCH  77  78
ENDBRANCH  71  77
ENDBRANCH  70  71
ENDBRANCH  68  70
ENDBRANCH  64  65
ENDBRANCH  63  64
ENDBRANCH  60  63
ENDBRANCH  58  59
ENDBRANCH  55  58
ENDBRANCH   1  55
TORSDOF 36
BEGIN_RES LYS A 131
REMARK  4 active torsions:
REMARK  status: ('A' for Active; 'I' for Inactive)
REMARK    1  A    between atoms: CA   and  CB  
REMARK    2  A    between atoms: CB   and  CG  
REMARK    3  A    between atoms: CG   and  CD  
REMARK    4  A    between atoms: CD   and  CE  
ROOT
ATOM      1  CA  LYS A 131      29.867  25.555  16.977  1.00 20.52     0.186 C 
ENDROOT
BRANCH   1   2
ATOM      2  CB  LYS A 131      28.345  25.722  17.026  1.00 20.94     0.034 C 
BRANCH   2   3
ATOM      3  CG  LYS A 131      27.601  24.403  16.888  1.00 22.96     0.005 C 
BRANCH   3   4
ATOM      4  CD  LYS A 131      26.524  24.248  17.926  1.00 24.33     0.041 C 
BRANCH   4   5
ATOM      5  CE  LYS A 131      25.214  23.864  17.247  1.00 26.91     0.338 C 
ATOM      6  NZ  LYS A 131      24.859  22.460  17.560  1.00 27.40     0.618 N 
ENDBRANCH   4   5
ENDBRANCH   3   4
ENDBRANCH   2   3
ENDBRANCH   1   2
END_RES LYS A 131
BEGIN_RES LYS A 135
REMARK  4 active torsions:
REMARK  status: ('A' for Active; 'I' for Inactive)
REMARK    5  A    between atoms: CA   and  CB  
REMARK    6  A    between atoms: CB   and  CG  
REMARK    7  A    between atoms: CG   and  CD  
REMARK    8  A    between atoms: CD   and  CE  
ROOT
ATOM      7  CA  LYS A 135      33.193  34.663   9.290  1.00 25.02     0.186 C 
ENDROOT
BRANCH   7   8
ATOM      8  CB  LYS A 135      32.060  35.360  10.034  1.00 26.63     0.034 C 
BRANCH   8   9
ATOM      9  CG  LYS A 135      32.532  36.236  11.166  1.00 29.45     0.005 C 
BRANCH   9  10
ATOM     10  CD  LYS A 135      31.927  35.780  12.485  1.00 32.00     0.041 C 
BRANCH  10  11
ATOM     11  CE  LYS A 135      30.757  34.846  12.240  1.00 34.25     0.338 C 
ATOM     12  NZ  LYS A 135      30.371  34.131  13.488  1.00 35.99     0.618 N 
ENDBRANCH  10  11
ENDBRANCH   9  10
ENDBRANCH   8   9
ENDBRANCH   7   8
END_RES LYS A 135
