REMARK VINA RESULT:    -3.858      2.246      6.785
REMARK INTER + INTRA:         -22.040
REMARK INTER:                  -9.822
REMARK INTRA:                 -12.218
REMARK UNBOUND:               -12.543
REMARK SMILES CC(=O)N[C@@H]1[C@@H](O)C[C@](OC[C@H]2O[C@@H](O[C@H]3[C@H](O)[C@@H](O)[C@H](OCCN=[N+]=[N-])O[C@@H]3CO)[C@H](O)[C@@H](O)[C@H]2O)(C(=O)O)O[C@H]1C(O)[C@H](O)CNC(=O)OCc1cn(-c2ccncc2)nn1
REMARK SMILES IDX 9 1 8 2 6 3 5 4 42 5 41 6 10 7 11 8 12 9 14 10 13 11 32 12
REMARK SMILES IDX 34 13 36 14 15 15 16 16 29 17 28 18 21 19 17 20 19 21 30 22
REMARK SMILES IDX 31 23 22 25 23 26 24 27 25 28 26 29 27 30 18 31 20 33 33 35
REMARK SMILES IDX 35 37 37 39 38 41 39 42 40 43 7 45 43 47 44 48 45 50 46 51
REMARK SMILES IDX 47 53 48 54 49 55 50 57 51 58 52 59 53 60 54 61 63 62 55 63
REMARK SMILES IDX 62 64 56 65 57 66 61 67 58 68 60 69 59 70 4 71 2 72 1 74
REMARK SMILES IDX 3 75
REMARK H PARENT 31 24 18 32 20 34 33 36 35 38 37 40 40 44 7 46 44 49 46 52
REMARK H PARENT 48 56 4 73
REMARK Flexibility Score: inf
ROOT
ATOM      1  C   UNL     1      30.257  33.795  16.331  1.00  0.00     0.272 C 
ATOM      2  C   UNL     1      31.161  32.551  16.448  1.00  0.00     0.113 C 
ATOM      3  C   UNL     1      30.351  31.281  16.166  1.00  0.00     0.145 C 
ATOM      4  C   UNL     1      29.363  31.132  17.372  1.00  0.00     0.142 C 
ATOM      5  C   UNL     1      28.659  32.452  17.484  1.00  0.00     0.178 C 
ATOM      6  O   UNL     1      28.971  33.222  16.371  1.00  0.00    -0.332 OA
ENDROOT
BRANCH   1   7
ATOM      7  O   UNL     1      30.359  34.334  15.133  1.00  0.00    -0.338 OA
BRANCH   7   8
ATOM      8  C   UNL     1      31.179  34.669  14.238  1.00  0.00     0.199 C 
BRANCH   8   9
ATOM      9  C   UNL     1      30.883  35.781  13.277  1.00  0.00     0.179 C 
ATOM     10  C   UNL     1      28.953  36.767  12.369  1.00  0.00     0.282 C 
ATOM     11  O   UNL     1      29.454  35.805  13.214  1.00  0.00    -0.341 OA
ATOM     12  C   UNL     1      29.306  38.140  12.849  1.00  0.00     0.202 C 
ATOM     13  C   UNL     1      30.820  38.241  13.043  1.00  0.00     0.179 C 
ATOM     14  C   UNL     1      31.249  37.115  13.936  1.00  0.00     0.177 C 
BRANCH  10  15
ATOM     15  O   UNL     1      27.549  36.580  12.446  1.00  0.00    -0.341 OA
BRANCH  15  16
ATOM     16  C   UNL     1      27.192  35.369  12.935  1.00  0.00     0.184 C 
ATOM     17  C   UNL     1      26.217  34.636  12.105  1.00  0.00     0.178 C 
ATOM     18  O   UNL     1      25.997  33.346  12.632  1.00  0.00    -0.341 OA
ATOM     19  C   UNL     1      25.094  33.625  13.727  1.00  0.00     0.281 C 
ATOM     20  C   UNL     1      26.555  35.597  14.340  1.00  0.00     0.180 C 
ATOM     21  C   UNL     1      25.902  34.297  14.774  1.00  0.00     0.202 C 
BRANCH  17  22
ATOM     22  C   UNL     1      26.607  34.526  10.680  1.00  0.00     0.191 C 
BRANCH  22  23
ATOM     23  O   UNL     1      26.282  35.676   9.943  1.00  0.00    -0.394 OA
ATOM     24  H   UNL     1      25.297  35.626   9.764  1.00  0.00     0.210 HD
ENDBRANCH  22  23
ENDBRANCH  17  22
BRANCH  19  25
ATOM     25  O   UNL     1      24.655  32.396  14.134  1.00  0.00    -0.350 OA
BRANCH  25  26
ATOM     26  C   UNL     1      24.191  31.627  13.110  1.00  0.00     0.169 C 
BRANCH  26  27
ATOM     27  C   UNL     1      24.219  30.148  13.319  1.00  0.00     0.119 C 
BRANCH  27  28
ATOM     28  N   UNL     1      23.227  29.447  12.528  1.00  0.00    -0.092 NA
ATOM     29  N   UNL     1      22.103  29.870  12.302  1.00  0.00     0.001 N 
ATOM     30  N   UNL     1      20.928  30.248  12.354  1.00  0.00    -0.003 NA
ENDBRANCH  27  28
ENDBRANCH  26  27
ENDBRANCH  25  26
ENDBRANCH  19  25
BRANCH  20  31
ATOM     31  O   UNL     1      27.596  35.869  15.195  1.00  0.00    -0.387 OA
ATOM     32  H   UNL     1      28.445  35.411  14.898  1.00  0.00     0.211 HD
ENDBRANCH  20  31
BRANCH  21  33
ATOM     33  O   UNL     1      25.136  34.503  15.911  1.00  0.00    -0.385 OA
ATOM     34  H   UNL     1      24.614  35.340  15.799  1.00  0.00     0.211 HD
ENDBRANCH  21  33
ENDBRANCH  15  16
ENDBRANCH  10  15
BRANCH  12  35
ATOM     35  O   UNL     1      28.960  39.117  11.884  1.00  0.00    -0.385 OA
ATOM     36  H   UNL     1      29.320  38.780  11.030  1.00  0.00     0.211 HD
ENDBRANCH  12  35
BRANCH  13  37
ATOM     37  O   UNL     1      31.210  39.444  13.583  1.00  0.00    -0.387 OA
ATOM     38  H   UNL     1      32.191  39.607  13.418  1.00  0.00     0.211 HD
ENDBRANCH  13  37
BRANCH  14  39
ATOM     39  O   UNL     1      30.548  37.140  15.152  1.00  0.00    -0.387 OA
ATOM     40  H   UNL     1      29.581  37.348  14.972  1.00  0.00     0.211 HD
ENDBRANCH  14  39
ENDBRANCH   8   9
ENDBRANCH   7   8
ENDBRANCH   1   7
BRANCH   1  41
ATOM     41  C   UNL     1      30.487  34.716  17.448  1.00  0.00     0.364 C 
ATOM     42  O   UNL     1      29.818  35.792  17.583  1.00  0.00    -0.246 OA
BRANCH  41  43
ATOM     43  O   UNL     1      31.430  34.497  18.424  1.00  0.00    -0.477 OA
ATOM     44  H   UNL     1      31.660  35.106  19.179  1.00  0.00     0.296 HD
ENDBRANCH  41  43
ENDBRANCH   1  41
BRANCH   3  45
ATOM     45  O   UNL     1      29.592  31.458  15.041  1.00  0.00    -0.391 OA
ATOM     46  H   UNL     1      29.197  32.350  14.994  1.00  0.00     0.211 HD
ENDBRANCH   3  45
BRANCH   5  47
ATOM     47  C   UNL     1      27.132  32.340  17.379  1.00  0.00     0.176 C 
BRANCH  47  48
ATOM     48  O   UNL     1      26.783  32.175  18.791  1.00  0.00    -0.388 OA
ATOM     49  H   UNL     1      27.611  31.837  19.246  1.00  0.00     0.211 HD
ENDBRANCH  47  48
BRANCH  47  50
ATOM     50  C   UNL     1      26.590  31.178  16.669  1.00  0.00     0.165 C 
BRANCH  50  51
ATOM     51  O   UNL     1      26.956  30.984  15.358  1.00  0.00    -0.388 OA
ATOM     52  H   UNL     1      26.828  31.809  14.819  1.00  0.00     0.211 HD
ENDBRANCH  50  51
BRANCH  50  53
ATOM     53  C   UNL     1      25.227  30.752  17.056  1.00  0.00     0.154 C 
BRANCH  53  54
ATOM     54  N   UNL     1      24.255  31.804  17.203  1.00  0.00    -0.319 N 
ATOM     55  C   UNL     1      22.900  31.599  16.850  1.00  0.00     0.407 C 
ATOM     56  H   UNL     1      24.589  32.716  17.561  1.00  0.00     0.167 HD
ATOM     57  O   UNL     1      22.588  30.470  16.411  1.00  0.00    -0.225 OA
BRANCH  55  58
ATOM     58  O   UNL     1      21.924  32.550  16.959  1.00  0.00    -0.443 OA
BRANCH  58  59
ATOM     59  C   UNL     1      21.061  32.981  15.929  1.00  0.00     0.294 C 
BRANCH  59  60
ATOM     60  C   UNL     1      21.657  34.108  15.139  1.00  0.00     0.121 A 
ATOM     61  C   UNL     1      21.794  34.248  13.775  1.00  0.00     0.144 A 
ATOM     62  N   UNL     1      22.192  35.235  15.667  1.00  0.00    -0.131 NA
ATOM     63  N   UNL     1      22.391  35.424  13.517  1.00  0.00    -0.220 N 
ATOM     64  N   UNL     1      22.625  36.012  14.691  1.00  0.00    -0.062 NA
BRANCH  63  65
ATOM     65  C   UNL     1      22.704  35.921  12.222  1.00  0.00     0.069 A 
ATOM     66  C   UNL     1      23.253  37.162  11.981  1.00  0.00     0.048 A 
ATOM     67  C   UNL     1      22.447  35.110  11.140  1.00  0.00     0.048 A 
ATOM     68  C   UNL     1      23.547  37.604  10.701  1.00  0.00     0.113 A 
ATOM     69  C   UNL     1      22.744  35.560   9.864  1.00  0.00     0.113 A 
ATOM     70  N   UNL     1      23.278  36.772   9.668  1.00  0.00    -0.265 NA
ENDBRANCH  63  65
ENDBRANCH  59  60
ENDBRANCH  58  59
ENDBRANCH  55  58
ENDBRANCH  53  54
ENDBRANCH  50  53
ENDBRANCH  47  50
ENDBRANCH   5  47
BRANCH   4  71
ATOM     71  N   UNL     1      30.251  30.846  18.473  1.00  0.00    -0.348 N 
ATOM     72  C   UNL     1      29.846  30.318  19.718  1.00  0.00     0.217 C 
ATOM     73  H   UNL     1      31.263  31.037  18.359  1.00  0.00     0.163 HD
ATOM     74  C   UNL     1      30.844  30.067  20.769  1.00  0.00     0.114 C 
ATOM     75  O   UNL     1      28.645  30.062  19.930  1.00  0.00    -0.275 OA
ENDBRANCH   4  71
TORSDOF 30
BEGIN_RES LYS A 131
REMARK  4 active torsions:
REMARK  status: ('A' for Active; 'I' for Inactive)
REMARK    1  A    between atoms: CA   and  CB  
REMARK    2  A    between atoms: CB   and  CG  
REMARK    3  A    between atoms: CG   and  CD  
REMARK    4  A    between atoms: CD   and  CE  
ROOT
ATOM      1  CA  LYS A 131      29.867  25.555  16.977  1.00 20.52     0.186 C 
ENDROOT
BRANCH   1   2
ATOM      2  CB  LYS A 131      28.345  25.722  17.026  1.00 20.94     0.034 C 
BRANCH   2   3
ATOM      3  CG  LYS A 131      27.601  24.402  16.893  1.00 22.96     0.005 C 
BRANCH   3   4
ATOM      4  CD  LYS A 131      26.505  24.264  17.913  1.00 24.33     0.041 C 
BRANCH   4   5
ATOM      5  CE  LYS A 131      25.157  24.528  17.251  1.00 26.91     0.338 C 
ATOM      6  NZ  LYS A 131      24.649  25.869  17.624  1.00 27.40     0.618 N 
ENDBRANCH   4   5
ENDBRANCH   3   4
ENDBRANCH   2   3
ENDBRANCH   1   2
END_RES LYS A 131
BEGIN_RES LYS A 135
REMARK  4 active torsions:
REMARK  status: ('A' for Active; 'I' for Inactive)
REMARK    5  A    between atoms: CA   and  CB  
REMARK    6  A    between atoms: CB   and  CG  
REMARK    7  A    between atoms: CG   and  CD  
REMARK    8  A    between atoms: CD   and  CE  
ROOT
ATOM      7  CA  LYS A 135      33.193  34.663   9.290  1.00 25.02     0.186 C 
ENDROOT
BRANCH   7   8
ATOM      8  CB  LYS A 135      32.060  35.360  10.034  1.00 26.63     0.034 C 
BRANCH   8   9
ATOM      9  CG  LYS A 135      30.709  34.735   9.796  1.00 29.45     0.005 C 
BRANCH   9  10
ATOM     10  CD  LYS A 135      30.398  34.680   8.309  1.00 32.00     0.041 C 
BRANCH  10  11
ATOM     11  CE  LYS A 135      29.305  35.671   7.956  1.00 34.25     0.338 C 
ATOM     12  NZ  LYS A 135      28.876  35.514   6.539  1.00 35.99     0.618 N 
ENDBRANCH  10  11
ENDBRANCH   9  10
ENDBRANCH   8   9
ENDBRANCH   7   8
END_RES LYS A 135
