REMARK VINA RESULT:    -4.026      7.687     14.767
REMARK INTER + INTRA:         -22.532
REMARK INTER:                 -11.810
REMARK INTRA:                 -10.722
REMARK UNBOUND:               -12.270
REMARK SMILES CC(=O)N[C@@H]1[C@@H](O)C[C@](OC[C@H]2O[C@@H](O[C@H]3[C@H](O)[C@@H](O)[C@H](OCCN=[N+]=[N-])O[C@@H]3CO)[C@H](O)[C@@H](O)[C@H]2O)(C(=O)O)O[C@H]1C(O)[C@H](O)CNC(=O)OCc1cn(-c2ccc(S(N)(=O)=O)cc2)nn1
REMARK SMILES IDX 9 1 8 2 6 3 5 4 42 5 41 6 10 7 11 8 12 9 14 10 13 11 32 12
REMARK SMILES IDX 34 13 36 14 15 15 16 16 29 17 28 18 21 19 17 20 19 21 30 22
REMARK SMILES IDX 31 23 22 25 23 26 24 27 25 28 26 29 27 30 18 31 20 33 33 35
REMARK SMILES IDX 35 37 37 39 38 41 39 42 40 43 7 45 43 47 44 48 45 50 46 51
REMARK SMILES IDX 47 53 48 54 49 55 50 57 51 58 52 59 53 60 54 61 67 62 55 63
REMARK SMILES IDX 66 64 56 65 57 66 65 67 58 68 64 69 59 70 60 71 62 72 63 73
REMARK SMILES IDX 61 74 4 77 2 78 1 80 3 81
REMARK H PARENT 31 24 18 32 20 34 33 36 35 38 37 40 40 44 7 46 44 49 46 52
REMARK H PARENT 48 56 61 75 61 76 4 79
REMARK Flexibility Score: inf
ROOT
ATOM      1  C   UNL     1      29.777  31.795  22.625  1.00  0.00     0.272 C 
ATOM      2  C   UNL     1      29.188  31.757  24.045  1.00  0.00     0.113 C 
ATOM      3  C   UNL     1      28.946  30.367  24.515  1.00  0.00     0.145 C 
ATOM      4  C   UNL     1      28.411  29.544  23.371  1.00  0.00     0.142 C 
ATOM      5  C   UNL     1      27.829  30.561  22.382  1.00  0.00     0.178 C 
ATOM      6  O   UNL     1      28.930  31.145  21.759  1.00  0.00    -0.332 OA
ENDROOT
BRANCH   1   7
ATOM      7  O   UNL     1      31.039  31.225  22.733  1.00  0.00    -0.338 OA
BRANCH   7   8
ATOM      8  C   UNL     1      31.676  31.025  21.541  1.00  0.00     0.199 C 
BRANCH   8   9
ATOM      9  C   UNL     1      32.265  29.603  21.566  1.00  0.00     0.179 C 
ATOM     10  C   UNL     1      32.057  27.708  22.921  1.00  0.00     0.282 C 
ATOM     11  O   UNL     1      32.098  29.134  22.830  1.00  0.00    -0.341 OA
ATOM     12  C   UNL     1      30.787  27.350  22.205  1.00  0.00     0.202 C 
ATOM     13  C   UNL     1      30.949  27.609  20.712  1.00  0.00     0.179 C 
ATOM     14  C   UNL     1      31.828  28.772  20.429  1.00  0.00     0.177 C 
BRANCH  10  15
ATOM     15  O   UNL     1      31.999  27.396  24.235  1.00  0.00    -0.341 OA
BRANCH  15  16
ATOM     16  C   UNL     1      32.874  26.355  24.644  1.00  0.00     0.184 C 
ATOM     17  C   UNL     1      32.477  25.927  25.982  1.00  0.00     0.178 C 
ATOM     18  O   UNL     1      33.488  25.646  26.878  1.00  0.00    -0.341 OA
ATOM     19  C   UNL     1      34.696  25.286  26.351  1.00  0.00     0.281 C 
ATOM     20  C   UNL     1      34.303  26.821  24.495  1.00  0.00     0.180 C 
ATOM     21  C   UNL     1      35.231  26.470  25.591  1.00  0.00     0.202 C 
BRANCH  17  22
ATOM     22  C   UNL     1      31.548  24.730  26.003  1.00  0.00     0.191 C 
BRANCH  22  23
ATOM     23  O   UNL     1      30.224  25.141  26.071  1.00  0.00    -0.394 OA
ATOM     24  H   UNL     1      29.624  24.548  25.554  1.00  0.00     0.210 HD
ENDBRANCH  22  23
ENDBRANCH  17  22
BRANCH  19  25
ATOM     25  O   UNL     1      34.714  24.127  25.613  1.00  0.00    -0.350 OA
BRANCH  25  26
ATOM     26  C   UNL     1      36.014  23.650  25.499  1.00  0.00     0.169 C 
BRANCH  26  27
ATOM     27  C   UNL     1      35.938  22.182  25.088  1.00  0.00     0.119 C 
BRANCH  27  28
ATOM     28  N   UNL     1      36.224  22.094  23.683  1.00  0.00    -0.092 NA
ATOM     29  N   UNL     1      36.441  23.109  22.985  1.00  0.00     0.001 N 
ATOM     30  N   UNL     1      36.094  23.990  22.179  1.00  0.00    -0.003 NA
ENDBRANCH  27  28
ENDBRANCH  26  27
ENDBRANCH  25  26
ENDBRANCH  19  25
BRANCH  20  31
ATOM     31  O   UNL     1      34.860  26.360  23.299  1.00  0.00    -0.387 OA
ATOM     32  H   UNL     1      35.477  27.042  22.946  1.00  0.00     0.211 HD
ENDBRANCH  20  31
BRANCH  21  33
ATOM     33  O   UNL     1      35.497  27.512  26.472  1.00  0.00    -0.385 OA
ATOM     34  H   UNL     1      36.506  27.566  26.502  1.00  0.00     0.211 HD
ENDBRANCH  21  33
ENDBRANCH  15  16
ENDBRANCH  10  15
BRANCH  12  35
ATOM     35  O   UNL     1      30.281  26.115  22.483  1.00  0.00    -0.385 OA
ATOM     36  H   UNL     1      30.445  25.785  23.388  1.00  0.00     0.211 HD
ENDBRANCH  12  35
BRANCH  13  37
ATOM     37  O   UNL     1      29.725  27.623  20.064  1.00  0.00    -0.387 OA
ATOM     38  H   UNL     1      29.056  28.231  20.442  1.00  0.00     0.211 HD
ENDBRANCH  13  37
BRANCH  14  39
ATOM     39  O   UNL     1      31.126  29.616  19.534  1.00  0.00    -0.387 OA
ATOM     40  H   UNL     1      30.574  30.210  20.121  1.00  0.00     0.211 HD
ENDBRANCH  14  39
ENDBRANCH   8   9
ENDBRANCH   7   8
ENDBRANCH   1   7
BRANCH   1  41
ATOM     41  C   UNL     1      29.887  33.270  22.320  1.00  0.00     0.364 C 
ATOM     42  O   UNL     1      30.419  34.061  23.136  1.00  0.00    -0.246 OA
BRANCH  41  43
ATOM     43  O   UNL     1      29.410  33.795  21.135  1.00  0.00    -0.477 OA
ATOM     44  H   UNL     1      29.646  34.749  20.908  1.00  0.00     0.296 HD
ENDBRANCH  41  43
ENDBRANCH   1  41
BRANCH   3  45
ATOM     45  O   UNL     1      30.129  29.864  25.051  1.00  0.00    -0.391 OA
ATOM     46  H   UNL     1      30.040  28.891  25.176  1.00  0.00     0.211 HD
ENDBRANCH   3  45
BRANCH   5  47
ATOM     47  C   UNL     1      26.982  29.876  21.343  1.00  0.00     0.176 C 
BRANCH  47  48
ATOM     48  O   UNL     1      27.366  28.580  21.065  1.00  0.00    -0.388 OA
ATOM     49  H   UNL     1      28.343  28.441  21.142  1.00  0.00     0.211 HD
ENDBRANCH  47  48
BRANCH  47  50
ATOM     50  C   UNL     1      25.527  29.902  21.751  1.00  0.00     0.165 C 
BRANCH  50  51
ATOM     51  O   UNL     1      25.106  28.612  22.137  1.00  0.00    -0.388 OA
ATOM     52  H   UNL     1      24.187  28.432  21.786  1.00  0.00     0.211 HD
ENDBRANCH  50  51
BRANCH  50  53
ATOM     53  C   UNL     1      24.641  30.419  20.647  1.00  0.00     0.154 C 
BRANCH  53  54
ATOM     54  N   UNL     1      25.245  30.250  19.346  1.00  0.00    -0.319 N 
ATOM     55  C   UNL     1      25.001  29.065  18.605  1.00  0.00     0.407 C 
ATOM     56  H   UNL     1      25.861  30.970  18.920  1.00  0.00     0.167 HD
ATOM     57  O   UNL     1      24.254  28.176  19.111  1.00  0.00    -0.225 OA
BRANCH  55  58
ATOM     58  O   UNL     1      25.528  28.809  17.351  1.00  0.00    -0.443 OA
BRANCH  58  59
ATOM     59  C   UNL     1      26.841  28.340  17.162  1.00  0.00     0.294 C 
BRANCH  59  60
ATOM     60  C   UNL     1      27.786  29.481  17.290  1.00  0.00     0.121 A 
ATOM     61  C   UNL     1      28.253  30.282  16.241  1.00  0.00     0.144 A 
ATOM     62  N   UNL     1      28.387  29.984  18.382  1.00  0.00    -0.131 NA
ATOM     63  N   UNL     1      29.100  31.217  16.740  1.00  0.00    -0.220 N 
ATOM     64  N   UNL     1      29.162  31.018  18.022  1.00  0.00    -0.062 NA
BRANCH  63  65
ATOM     65  C   UNL     1      29.793  32.226  15.996  1.00  0.00     0.066 A 
ATOM     66  C   UNL     1      29.125  33.054  15.124  1.00  0.00     0.030 A 
ATOM     67  C   UNL     1      31.152  32.400  16.134  1.00  0.00     0.030 A 
ATOM     68  C   UNL     1      29.803  34.036  14.404  1.00  0.00     0.024 A 
ATOM     69  C   UNL     1      31.839  33.379  15.419  1.00  0.00     0.024 A 
ATOM     70  C   UNL     1      31.165  34.208  14.544  1.00  0.00     0.082 A 
BRANCH  70  71
ATOM     71  S   UNL     1      31.993  35.460  13.620  1.00  0.00     0.238 S 
ATOM     72  O   UNL     1      31.070  36.075  12.596  1.00  0.00    -0.207 OA
ATOM     73  O   UNL     1      32.447  36.564  14.525  1.00  0.00    -0.207 OA
BRANCH  71  74
ATOM     74  N   UNL     1      33.384  34.813  12.807  1.00  0.00    -0.225 NA
ATOM     75  H   UNL     1      33.802  34.073  13.441  1.00  0.00     0.137 HD
ATOM     76  H   UNL     1      34.094  35.551  12.589  1.00  0.00     0.137 HD
ENDBRANCH  71  74
ENDBRANCH  70  71
ENDBRANCH  63  65
ENDBRANCH  59  60
ENDBRANCH  58  59
ENDBRANCH  55  58
ENDBRANCH  53  54
ENDBRANCH  50  53
ENDBRANCH  47  50
ENDBRANCH   5  47
BRANCH   4  77
ATOM     77  N   UNL     1      27.420  28.572  23.750  1.00  0.00    -0.348 N 
ATOM     78  C   UNL     1      27.780  27.458  24.536  1.00  0.00     0.217 C 
ATOM     79  H   UNL     1      26.431  28.676  23.455  1.00  0.00     0.163 HD
ATOM     80  C   UNL     1      26.729  26.477  24.905  1.00  0.00     0.114 C 
ATOM     81  O   UNL     1      28.950  27.258  24.937  1.00  0.00    -0.275 OA
ENDBRANCH   4  77
TORSDOF 32
BEGIN_RES LYS A 131
REMARK  4 active torsions:
REMARK  status: ('A' for Active; 'I' for Inactive)
REMARK    1  A    between atoms: CA   and  CB  
REMARK    2  A    between atoms: CB   and  CG  
REMARK    3  A    between atoms: CG   and  CD  
REMARK    4  A    between atoms: CD   and  CE  
ROOT
ATOM      1  CA  LYS A 131      29.867  25.555  16.977  1.00 20.52     0.186 C 
ENDROOT
BRANCH   1   2
ATOM      2  CB  LYS A 131      28.345  25.722  17.026  1.00 20.94     0.034 C 
BRANCH   2   3
ATOM      3  CG  LYS A 131      27.602  24.398  16.932  1.00 22.96     0.005 C 
BRANCH   3   4
ATOM      4  CD  LYS A 131      26.154  24.533  17.314  1.00 24.33     0.041 C 
BRANCH   4   5
ATOM      5  CE  LYS A 131      25.649  23.205  17.870  1.00 26.91     0.338 C 
ATOM      6  NZ  LYS A 131      25.521  23.276  19.345  1.00 27.40     0.618 N 
ENDBRANCH   4   5
ENDBRANCH   3   4
ENDBRANCH   2   3
ENDBRANCH   1   2
END_RES LYS A 131
BEGIN_RES LYS A 135
REMARK  4 active torsions:
REMARK  status: ('A' for Active; 'I' for Inactive)
REMARK    5  A    between atoms: CA   and  CB  
REMARK    6  A    between atoms: CB   and  CG  
REMARK    7  A    between atoms: CG   and  CD  
REMARK    8  A    between atoms: CD   and  CE  
ROOT
ATOM      7  CA  LYS A 135      33.193  34.663   9.290  1.00 25.02     0.186 C 
ENDROOT
BRANCH   7   8
ATOM      8  CB  LYS A 135      32.060  35.360  10.034  1.00 26.63     0.034 C 
BRANCH   8   9
ATOM      9  CG  LYS A 135      30.844  35.612   9.180  1.00 29.45     0.005 C 
BRANCH   9  10
ATOM     10  CD  LYS A 135      30.200  34.299   8.763  1.00 32.00     0.041 C 
BRANCH  10  11
ATOM     11  CE  LYS A 135      28.722  34.496   8.485  1.00 34.25     0.338 C 
ATOM     12  NZ  LYS A 135      27.887  33.752   9.468  1.00 35.99     0.618 N 
ENDBRANCH  10  11
ENDBRANCH   9  10
ENDBRANCH   8   9
ENDBRANCH   7   8
END_RES LYS A 135
