REMARK VINA RESULT:    -4.658      4.362      8.742
REMARK INTER + INTRA:         -23.093
REMARK INTER:                 -15.508
REMARK INTRA:                  -7.584
REMARK UNBOUND:               -10.809
REMARK SMILES COc1ccc(Cn2cc(COC(=O)NC[C@@H](O)C(O)[C@@H]3O[C@@](OC[C@H]4O[C@@H](O[C@H]5[C@H](O)[C@@H](O)[C@H](OCCN=[N+]=[N-])O[C@@H]5CO)[C@H](O)[C@@H](O)[C@H]4O)(C(=O)O)C[C@H](O)[C@H]3NC(C)=O)nn2)cc1OC
REMARK SMILES IDX 23 1 55 2 56 3 58 4 21 5 22 6 24 7 25 8 26 9 28 10 27 11
REMARK SMILES IDX 46 12 48 13 50 14 29 15 30 16 43 17 42 18 35 19 31 20 33 21
REMARK SMILES IDX 44 22 45 23 36 25 37 26 38 27 39 28 40 29 41 30 32 31 34 33
REMARK SMILES IDX 47 35 49 37 51 39 52 41 53 42 54 43 57 45 19 47 20 48 17 50
REMARK SMILES IDX 18 51 16 53 15 54 13 55 14 57 12 58 11 59 10 60 9 61 63 62
REMARK SMILES IDX 8 63 64 64 7 65 6 66 65 67 5 68 66 69 4 70 3 71 67 72 68 73
REMARK SMILES IDX 2 74 1 75 59 76 60 77 61 79 62 80
REMARK H PARENT 45 24 32 32 34 34 47 36 49 38 51 40 54 44 57 46 20 49 18 52
REMARK H PARENT 15 56 59 78
REMARK Flexibility Score: inf
ROOT
ATOM      1  C   UNL     1      29.094  35.812   8.228  1.00  0.00     0.272 C 
ATOM      2  C   UNL     1      29.054  35.722   6.713  1.00  0.00     0.113 C 
ATOM      3  C   UNL     1      28.540  36.884   5.945  1.00  0.00     0.145 C 
ATOM      4  C   UNL     1      27.662  37.748   6.847  1.00  0.00     0.142 C 
ATOM      5  C   UNL     1      27.042  36.809   7.803  1.00  0.00     0.178 C 
ATOM      6  O   UNL     1      27.967  36.461   8.770  1.00  0.00    -0.332 OA
ENDROOT
BRANCH   1   7
ATOM      7  O   UNL     1      30.208  36.596   8.497  1.00  0.00    -0.338 OA
BRANCH   7   8
ATOM      8  C   UNL     1      30.030  37.695   9.280  1.00  0.00     0.199 C 
BRANCH   8   9
ATOM      9  C   UNL     1      30.940  38.815   8.858  1.00  0.00     0.179 C 
ATOM     10  C   UNL     1      32.029  39.825   7.137  1.00  0.00     0.282 C 
ATOM     11  O   UNL     1      30.859  39.039   7.471  1.00  0.00    -0.341 OA
ATOM     12  C   UNL     1      31.858  41.188   7.626  1.00  0.00     0.202 C 
ATOM     13  C   UNL     1      31.327  41.238   9.049  1.00  0.00     0.179 C 
ATOM     14  C   UNL     1      30.422  40.138   9.442  1.00  0.00     0.177 C 
BRANCH  10  15
ATOM     15  O   UNL     1      32.193  39.700   5.773  1.00  0.00    -0.341 OA
BRANCH  15  16
ATOM     16  C   UNL     1      33.461  40.145   5.395  1.00  0.00     0.184 C 
ATOM     17  C   UNL     1      33.579  40.438   3.953  1.00  0.00     0.178 C 
ATOM     18  O   UNL     1      34.772  41.127   3.750  1.00  0.00    -0.341 OA
ATOM     19  C   UNL     1      35.786  40.687   4.524  1.00  0.00     0.281 C 
ATOM     20  C   UNL     1      34.452  39.041   5.783  1.00  0.00     0.180 C 
ATOM     21  C   UNL     1      35.719  39.234   4.938  1.00  0.00     0.202 C 
BRANCH  17  22
ATOM     22  C   UNL     1      32.398  41.202   3.401  1.00  0.00     0.191 C 
BRANCH  22  23
ATOM     23  O   UNL     1      32.159  42.252   4.287  1.00  0.00    -0.394 OA
ATOM     24  H   UNL     1      32.307  43.121   3.807  1.00  0.00     0.210 HD
ENDBRANCH  22  23
ENDBRANCH  17  22
BRANCH  19  25
ATOM     25  O   UNL     1      35.764  41.436   5.755  1.00  0.00    -0.350 OA
BRANCH  25  26
ATOM     26  C   UNL     1      37.069  41.931   5.948  1.00  0.00     0.169 C 
BRANCH  26  27
ATOM     27  C   UNL     1      37.686  41.469   7.256  1.00  0.00     0.119 C 
BRANCH  27  28
ATOM     28  N   UNL     1      36.633  41.170   8.186  1.00  0.00    -0.092 NA
ATOM     29  N   UNL     1      36.292  41.960   9.071  1.00  0.00     0.001 N 
ATOM     30  N   UNL     1      36.301  42.857   9.937  1.00  0.00    -0.003 NA
ENDBRANCH  27  28
ENDBRANCH  26  27
ENDBRANCH  25  26
ENDBRANCH  19  25
BRANCH  20  31
ATOM     31  O   UNL     1      34.808  39.253   7.105  1.00  0.00    -0.387 OA
ATOM     32  H   UNL     1      34.145  38.770   7.685  1.00  0.00     0.211 HD
ENDBRANCH  20  31
BRANCH  21  33
ATOM     33  O   UNL     1      35.616  38.437   3.823  1.00  0.00    -0.385 OA
ATOM     34  H   UNL     1      36.503  38.112   3.506  1.00  0.00     0.211 HD
ENDBRANCH  21  33
ENDBRANCH  15  16
ENDBRANCH  10  15
BRANCH  12  35
ATOM     35  O   UNL     1      33.057  41.883   7.642  1.00  0.00    -0.385 OA
ATOM     36  H   UNL     1      33.099  42.575   6.921  1.00  0.00     0.211 HD
ENDBRANCH  12  35
BRANCH  13  37
ATOM     37  O   UNL     1      30.701  42.501   9.221  1.00  0.00    -0.387 OA
ATOM     38  H   UNL     1      30.882  42.779  10.156  1.00  0.00     0.211 HD
ENDBRANCH  13  37
BRANCH  14  39
ATOM     39  O   UNL     1      29.132  40.305   8.891  1.00  0.00    -0.387 OA
ATOM     40  H   UNL     1      28.417  40.029   9.561  1.00  0.00     0.211 HD
ENDBRANCH  14  39
ENDBRANCH   8   9
ENDBRANCH   7   8
ENDBRANCH   1   7
BRANCH   1  41
ATOM     41  C   UNL     1      29.141  34.430   8.772  1.00  0.00     0.364 C 
ATOM     42  O   UNL     1      30.181  33.766   8.763  1.00  0.00    -0.246 OA
BRANCH  41  43
ATOM     43  O   UNL     1      28.015  33.771   9.332  1.00  0.00    -0.477 OA
ATOM     44  H   UNL     1      28.238  32.951   9.942  1.00  0.00     0.296 HD
ENDBRANCH  41  43
ENDBRANCH   1  41
BRANCH   3  45
ATOM     45  O   UNL     1      29.560  37.666   5.457  1.00  0.00    -0.391 OA
ATOM     46  H   UNL     1      29.591  37.611   4.458  1.00  0.00     0.211 HD
ENDBRANCH   3  45
BRANCH   5  47
ATOM     47  C   UNL     1      25.711  37.195   8.258  1.00  0.00     0.176 C 
BRANCH  47  48
ATOM     48  O   UNL     1      24.706  37.202   7.300  1.00  0.00    -0.388 OA
ATOM     49  H   UNL     1      23.804  37.180   7.639  1.00  0.00     0.211 HD
ENDBRANCH  47  48
BRANCH  47  50
ATOM     50  C   UNL     1      25.135  35.972   9.158  1.00  0.00     0.165 C 
BRANCH  50  51
ATOM     51  O   UNL     1      25.641  34.838   8.652  1.00  0.00    -0.388 OA
ATOM     52  H   UNL     1      26.538  34.960   8.223  1.00  0.00     0.211 HD
ENDBRANCH  50  51
BRANCH  50  53
ATOM     53  C   UNL     1      23.730  36.170   9.426  1.00  0.00     0.154 C 
BRANCH  53  54
ATOM     54  N   UNL     1      22.687  35.303   8.991  1.00  0.00    -0.319 N 
ATOM     55  C   UNL     1      21.722  35.867   8.122  1.00  0.00     0.407 C 
ATOM     56  H   UNL     1      22.556  34.328   9.252  1.00  0.00     0.167 HD
ATOM     57  O   UNL     1      21.800  37.091   7.773  1.00  0.00    -0.225 OA
BRANCH  55  58
ATOM     58  O   UNL     1      20.635  35.191   7.578  1.00  0.00    -0.443 OA
BRANCH  58  59
ATOM     59  C   UNL     1      19.307  35.663   7.992  1.00  0.00     0.294 C 
BRANCH  59  60
ATOM     60  C   UNL     1      18.886  34.622   8.973  1.00  0.00     0.120 A 
ATOM     61  C   UNL     1      19.331  34.551  10.315  1.00  0.00     0.138 A 
ATOM     62  N   UNL     1      17.994  33.655   8.803  1.00  0.00    -0.132 NA
ATOM     63  N   UNL     1      18.649  33.519  10.866  1.00  0.00    -0.248 N 
ATOM     64  N   UNL     1      17.873  33.002   9.979  1.00  0.00    -0.067 NA
BRANCH  63  65
ATOM     65  C   UNL     1      18.755  33.122  12.296  1.00  0.00     0.181 C 
BRANCH  65  66
ATOM     66  C   UNL     1      20.090  32.376  12.339  1.00  0.00    -0.023 A 
ATOM     67  C   UNL     1      21.281  33.018  12.598  1.00  0.00     0.056 A 
ATOM     68  C   UNL     1      20.047  31.023  12.235  1.00  0.00     0.010 A 
ATOM     69  C   UNL     1      22.412  32.166  12.747  1.00  0.00     0.161 A 
ATOM     70  C   UNL     1      21.195  30.186  12.387  1.00  0.00     0.051 A 
ATOM     71  C   UNL     1      22.372  30.834  12.651  1.00  0.00     0.160 A 
BRANCH  69  72
ATOM     72  O   UNL     1      23.652  32.754  13.004  1.00  0.00    -0.493 OA
ATOM     73  C   UNL     1      23.937  34.108  12.632  1.00  0.00     0.278 C 
ENDBRANCH  69  72
BRANCH  71  74
ATOM     74  O   UNL     1      23.566  30.085  12.848  1.00  0.00    -0.493 OA
ATOM     75  C   UNL     1      23.521  28.662  12.607  1.00  0.00     0.278 C 
ENDBRANCH  71  74
ENDBRANCH  65  66
ENDBRANCH  63  65
ENDBRANCH  59  60
ENDBRANCH  58  59
ENDBRANCH  55  58
ENDBRANCH  53  54
ENDBRANCH  50  53
ENDBRANCH  47  50
ENDBRANCH   5  47
BRANCH   4  76
ATOM     76  N   UNL     1      26.739  38.478   6.020  1.00  0.00    -0.348 N 
ATOM     77  C   UNL     1      27.009  39.812   5.699  1.00  0.00     0.217 C 
ATOM     78  H   UNL     1      25.859  38.055   5.613  1.00  0.00     0.163 HD
ATOM     79  C   UNL     1      26.144  40.713   4.877  1.00  0.00     0.114 C 
ATOM     80  O   UNL     1      28.080  40.422   6.104  1.00  0.00    -0.275 OA
ENDBRANCH   4  76
TORSDOF 33
BEGIN_RES LYS A 131
REMARK  4 active torsions:
REMARK  status: ('A' for Active; 'I' for Inactive)
REMARK    1  A    between atoms: CA   and  CB  
REMARK    2  A    between atoms: CB   and  CG  
REMARK    3  A    between atoms: CG   and  CD  
REMARK    4  A    between atoms: CD   and  CE  
ROOT
ATOM      1  CA  LYS A 131      29.867  25.555  16.977  1.00 20.52     0.186 C 
ENDROOT
BRANCH   1   2
ATOM      2  CB  LYS A 131      28.345  25.722  17.026  1.00 20.94     0.034 C 
BRANCH   2   3
ATOM      3  CG  LYS A 131      27.599  24.477  16.570  1.00 22.96     0.005 C 
BRANCH   3   4
ATOM      4  CD  LYS A 131      26.706  23.926  17.646  1.00 24.33     0.041 C 
BRANCH   4   5
ATOM      5  CE  LYS A 131      26.177  25.070  18.505  1.00 26.91     0.338 C 
ATOM      6  NZ  LYS A 131      25.530  24.544  19.730  1.00 27.40     0.618 N 
ENDBRANCH   4   5
ENDBRANCH   3   4
ENDBRANCH   2   3
ENDBRANCH   1   2
END_RES LYS A 131
BEGIN_RES LYS A 135
REMARK  4 active torsions:
REMARK  status: ('A' for Active; 'I' for Inactive)
REMARK    5  A    between atoms: CA   and  CB  
REMARK    6  A    between atoms: CB   and  CG  
REMARK    7  A    between atoms: CG   and  CD  
REMARK    8  A    between atoms: CD   and  CE  
ROOT
ATOM      7  CA  LYS A 135      33.193  34.663   9.290  1.00 25.02     0.186 C 
ENDROOT
BRANCH   7   8
ATOM      8  CB  LYS A 135      32.060  35.360  10.034  1.00 26.63     0.034 C 
BRANCH   8   9
ATOM      9  CG  LYS A 135      32.496  36.012  11.321  1.00 29.45     0.005 C 
BRANCH   9  10
ATOM     10  CD  LYS A 135      31.734  35.431  12.502  1.00 32.00     0.041 C 
BRANCH  10  11
ATOM     11  CE  LYS A 135      30.306  35.107  12.107  1.00 34.25     0.338 C 
ATOM     12  NZ  LYS A 135      29.614  34.339  13.179  1.00 35.99     0.618 N 
ENDBRANCH  10  11
ENDBRANCH   9  10
ENDBRANCH   8   9
ENDBRANCH   7   8
END_RES LYS A 135
