REMARK VINA RESULT:    -2.859      2.267      5.934
REMARK INTER + INTRA:         -20.778
REMARK INTER:                  -9.601
REMARK INTRA:                 -11.177
REMARK UNBOUND:               -13.239
REMARK SMILES CCOC(=O)Cn1cc(COC(=O)NC[C@@H](O)C(O)[C@@H]2O[C@@](OC[C@H]3O[C@@H](O[C@H]4[C@H](O)[C@@H](O)[C@H](OCCN=[N+]=[N-])O[C@@H]4CO)[C@H](O)[C@@H](O)[C@H]3O)(C(=O)O)C[C@H](O)[C@H]2NC(C)=O)nn1
REMARK SMILES IDX 18 1 20 2 22 3 54 4 21 5 55 6 57 7 23 8 24 9 25 10 27 11
REMARK SMILES IDX 26 12 45 13 47 14 49 15 28 16 29 17 42 18 41 19 34 20 30 21
REMARK SMILES IDX 32 22 43 23 44 24 35 26 36 27 37 28 38 29 39 30 40 31 31 32
REMARK SMILES IDX 33 34 46 36 48 38 50 40 51 42 52 43 53 44 56 46 58 48 59 49
REMARK SMILES IDX 60 51 61 52 19 53 16 55 17 56 15 58 14 59 12 60 13 62 11 63
REMARK SMILES IDX 10 64 9 65 8 66 62 67 7 68 63 69 6 70 4 71 5 72 3 73 2 74
REMARK SMILES IDX 1 75
REMARK H PARENT 44 25 31 33 33 35 46 37 48 39 50 41 53 45 56 47 58 50 19 54
REMARK H PARENT 17 57 14 61
REMARK Flexibility Score: inf
ROOT
ATOM      1  C   UNL     1      31.844  34.627  14.485  1.00  0.00     0.176 C 
ENDROOT
BRANCH   1   2
ATOM      2  C   UNL     1      31.952  35.501  15.703  1.00  0.00     0.178 C 
ATOM      3  C   UNL     1      30.846  35.980  17.708  1.00  0.00     0.272 C 
ATOM      4  C   UNL     1      31.773  37.146  17.707  1.00  0.00     0.113 C 
ATOM      5  O   UNL     1      31.214  35.011  16.749  1.00  0.00    -0.332 OA
ATOM      6  C   UNL     1      31.889  37.835  16.386  1.00  0.00     0.145 C 
ATOM      7  C   UNL     1      31.428  36.869  15.306  1.00  0.00     0.142 C 
BRANCH   3   8
ATOM      8  O   UNL     1      29.512  36.280  17.541  1.00  0.00    -0.338 OA
BRANCH   8   9
ATOM      9  C   UNL     1      28.650  35.967  18.535  1.00  0.00     0.199 C 
BRANCH   9  10
ATOM     10  C   UNL     1      27.321  35.519  17.897  1.00  0.00     0.179 C 
ATOM     11  C   UNL     1      26.433  34.305  16.132  1.00  0.00     0.282 C 
ATOM     12  O   UNL     1      27.514  34.963  16.673  1.00  0.00    -0.341 OA
ATOM     13  C   UNL     1      25.810  33.301  17.053  1.00  0.00     0.202 C 
ATOM     14  C   UNL     1      25.321  34.058  18.262  1.00  0.00     0.179 C 
ATOM     15  C   UNL     1      26.508  34.723  18.874  1.00  0.00     0.177 C 
BRANCH  11  16
ATOM     16  O   UNL     1      26.725  33.673  14.935  1.00  0.00    -0.341 OA
BRANCH  16  17
ATOM     17  C   UNL     1      26.152  34.229  13.820  1.00  0.00     0.184 C 
ATOM     18  C   UNL     1      26.027  35.736  13.897  1.00  0.00     0.178 C 
ATOM     19  O   UNL     1      24.703  36.133  14.023  1.00  0.00    -0.341 OA
ATOM     20  C   UNL     1      23.945  35.823  12.870  1.00  0.00     0.281 C 
ATOM     21  C   UNL     1      24.757  33.640  13.619  1.00  0.00     0.180 C 
ATOM     22  C   UNL     1      24.138  34.399  12.455  1.00  0.00     0.202 C 
BRANCH  18  23
ATOM     23  C   UNL     1      26.744  36.375  12.736  1.00  0.00     0.191 C 
BRANCH  23  24
ATOM     24  O   UNL     1      27.815  35.570  12.305  1.00  0.00    -0.394 OA
ATOM     25  H   UNL     1      27.630  35.170  11.432  1.00  0.00     0.210 HD
ENDBRANCH  23  24
ENDBRANCH  18  23
BRANCH  20  26
ATOM     26  O   UNL     1      24.215  36.709  11.860  1.00  0.00    -0.350 OA
BRANCH  26  27
ATOM     27  C   UNL     1      23.222  37.464  11.334  1.00  0.00     0.169 C 
BRANCH  27  28
ATOM     28  C   UNL     1      22.050  36.803  10.712  1.00  0.00     0.119 C 
BRANCH  28  29
ATOM     29  N   UNL     1      22.299  35.852   9.683  1.00  0.00    -0.092 NA
ATOM     30  N   UNL     1      21.786  35.973   8.551  1.00  0.00     0.001 N 
ATOM     31  N   UNL     1      21.348  36.385   7.462  1.00  0.00    -0.003 NA
ENDBRANCH  28  29
ENDBRANCH  27  28
ENDBRANCH  26  27
ENDBRANCH  20  26
BRANCH  21  32
ATOM     32  O   UNL     1      24.872  32.286  13.294  1.00  0.00    -0.387 OA
ATOM     33  H   UNL     1      25.528  32.230  12.533  1.00  0.00     0.211 HD
ENDBRANCH  21  32
BRANCH  22  34
ATOM     34  O   UNL     1      22.947  33.772  12.078  1.00  0.00    -0.385 OA
ATOM     35  H   UNL     1      22.801  33.760  11.100  1.00  0.00     0.211 HD
ENDBRANCH  22  34
ENDBRANCH  16  17
ENDBRANCH  11  16
BRANCH  13  36
ATOM     36  O   UNL     1      24.743  32.697  16.399  1.00  0.00    -0.385 OA
ATOM     37  H   UNL     1      24.574  31.773  16.638  1.00  0.00     0.211 HD
ENDBRANCH  13  36
BRANCH  14  38
ATOM     38  O   UNL     1      24.797  33.115  19.175  1.00  0.00    -0.387 OA
ATOM     39  H   UNL     1      23.845  32.937  18.974  1.00  0.00     0.211 HD
ENDBRANCH  14  38
BRANCH  15  40
ATOM     40  O   UNL     1      27.286  33.714  19.488  1.00  0.00    -0.387 OA
ATOM     41  H   UNL     1      26.660  33.278  20.129  1.00  0.00     0.211 HD
ENDBRANCH  15  40
ENDBRANCH   9  10
ENDBRANCH   8   9
ENDBRANCH   3   8
BRANCH   3  42
ATOM     42  C   UNL     1      31.023  35.270  18.998  1.00  0.00     0.364 C 
ATOM     43  O   UNL     1      31.308  35.923  20.027  1.00  0.00    -0.246 OA
BRANCH  42  44
ATOM     44  O   UNL     1      30.881  33.914  19.077  1.00  0.00    -0.477 OA
ATOM     45  H   UNL     1      31.545  33.324  19.573  1.00  0.00     0.296 HD
ENDBRANCH  42  44
ENDBRANCH   3  42
BRANCH   6  46
ATOM     46  O   UNL     1      31.250  39.049  16.304  1.00  0.00    -0.391 OA
ATOM     47  H   UNL     1      30.650  39.040  15.506  1.00  0.00     0.211 HD
ENDBRANCH   6  46
BRANCH   7  48
ATOM     48  N   UNL     1      31.938  37.273  14.003  1.00  0.00    -0.348 N 
ATOM     49  C   UNL     1      31.083  37.697  12.958  1.00  0.00     0.217 C 
ATOM     50  H   UNL     1      32.959  37.252  13.840  1.00  0.00     0.163 HD
ATOM     51  C   UNL     1      31.593  38.113  11.617  1.00  0.00     0.114 C 
ATOM     52  O   UNL     1      29.842  37.721  13.180  1.00  0.00    -0.275 OA
ENDBRANCH   7  48
ENDBRANCH   1   2
BRANCH   1  53
ATOM     53  O   UNL     1      32.578  33.468  14.648  1.00  0.00    -0.388 OA
ATOM     54  H   UNL     1      33.353  33.398  14.021  1.00  0.00     0.211 HD
ENDBRANCH   1  53
BRANCH   1  55
ATOM     55  C   UNL     1      30.412  34.253  14.145  1.00  0.00     0.165 C 
BRANCH  55  56
ATOM     56  O   UNL     1      29.488  35.107  14.700  1.00  0.00    -0.388 OA
ATOM     57  H   UNL     1      29.248  35.870  14.124  1.00  0.00     0.211 HD
ENDBRANCH  55  56
BRANCH  55  58
ATOM     58  C   UNL     1      30.179  32.841  14.567  1.00  0.00     0.154 C 
BRANCH  58  59
ATOM     59  N   UNL     1      29.593  32.690  15.852  1.00  0.00    -0.319 N 
ATOM     60  C   UNL     1      29.110  31.472  16.400  1.00  0.00     0.407 C 
ATOM     61  H   UNL     1      29.487  33.548  16.499  1.00  0.00     0.167 HD
ATOM     62  O   UNL     1      29.169  30.400  15.776  1.00  0.00    -0.225 OA
BRANCH  60  63
ATOM     63  O   UNL     1      28.550  31.477  17.690  1.00  0.00    -0.443 OA
BRANCH  63  64
ATOM     64  C   UNL     1      28.075  30.305  18.265  1.00  0.00     0.294 C 
BRANCH  64  65
ATOM     65  C   UNL     1      26.636  30.066  18.047  1.00  0.00     0.120 A 
ATOM     66  C   UNL     1      26.068  29.387  16.986  1.00  0.00     0.139 A 
ATOM     67  N   UNL     1      25.607  30.458  18.810  1.00  0.00    -0.132 NA
ATOM     68  N   UNL     1      24.721  29.384  17.126  1.00  0.00    -0.241 N 
ATOM     69  N   UNL     1      24.479  30.039  18.241  1.00  0.00    -0.066 NA
BRANCH  68  70
ATOM     70  C   UNL     1      23.792  28.764  16.189  1.00  0.00     0.268 C 
BRANCH  70  71
ATOM     71  C   UNL     1      23.546  29.758  15.083  1.00  0.00     0.327 C 
ATOM     72  O   UNL     1      22.926  30.822  15.274  1.00  0.00    -0.250 OA
BRANCH  71  73
ATOM     73  O   UNL     1      24.004  29.524  13.798  1.00  0.00    -0.465 OA
BRANCH  73  74
ATOM     74  C   UNL     1      23.315  28.791  12.827  1.00  0.00     0.229 C 
ATOM     75  C   UNL     1      22.036  29.458  12.384  1.00  0.00     0.049 C 
ENDBRANCH  73  74
ENDBRANCH  71  73
ENDBRANCH  70  71
ENDBRANCH  68  70
ENDBRANCH  64  65
ENDBRANCH  63  64
ENDBRANCH  60  63
ENDBRANCH  58  59
ENDBRANCH  55  58
ENDBRANCH   1  55
TORSDOF 33
BEGIN_RES LYS A 131
REMARK  4 active torsions:
REMARK  status: ('A' for Active; 'I' for Inactive)
REMARK    1  A    between atoms: CA   and  CB  
REMARK    2  A    between atoms: CB   and  CG  
REMARK    3  A    between atoms: CG   and  CD  
REMARK    4  A    between atoms: CD   and  CE  
ROOT
ATOM      1  CA  LYS A 131      29.867  25.555  16.977  1.00 20.52     0.186 C 
ENDROOT
BRANCH   1   2
ATOM      2  CB  LYS A 131      28.345  25.722  17.026  1.00 20.94     0.034 C 
BRANCH   2   3
ATOM      3  CG  LYS A 131      27.602  24.398  16.939  1.00 22.96     0.005 C 
BRANCH   3   4
ATOM      4  CD  LYS A 131      26.477  24.313  17.933  1.00 24.33     0.041 C 
BRANCH   4   5
ATOM      5  CE  LYS A 131      26.398  25.614  18.724  1.00 26.91     0.338 C 
ATOM      6  NZ  LYS A 131      25.041  26.203  18.619  1.00 27.40     0.618 N 
ENDBRANCH   4   5
ENDBRANCH   3   4
ENDBRANCH   2   3
ENDBRANCH   1   2
END_RES LYS A 131
BEGIN_RES LYS A 135
REMARK  4 active torsions:
REMARK  status: ('A' for Active; 'I' for Inactive)
REMARK    5  A    between atoms: CA   and  CB  
REMARK    6  A    between atoms: CB   and  CG  
REMARK    7  A    between atoms: CG   and  CD  
REMARK    8  A    between atoms: CD   and  CE  
ROOT
ATOM      7  CA  LYS A 135      33.193  34.663   9.290  1.00 25.02     0.186 C 
ENDROOT
BRANCH   7   8
ATOM      8  CB  LYS A 135      32.060  35.360  10.034  1.00 26.63     0.034 C 
BRANCH   8   9
ATOM      9  CG  LYS A 135      30.736  34.649   9.919  1.00 29.45     0.005 C 
BRANCH   9  10
ATOM     10  CD  LYS A 135      30.345  34.477   8.459  1.00 32.00     0.041 C 
BRANCH  10  11
ATOM     11  CE  LYS A 135      29.466  35.627   8.005  1.00 34.25     0.338 C 
ATOM     12  NZ  LYS A 135      28.169  35.131   7.468  1.00 35.99     0.618 N 
ENDBRANCH  10  11
ENDBRANCH   9  10
ENDBRANCH   8   9
ENDBRANCH   7   8
END_RES LYS A 135
