REMARK VINA RESULT:    -4.463      5.582     11.107
REMARK INTER + INTRA:         -21.650
REMARK INTER:                 -12.399
REMARK INTRA:                  -9.251
REMARK UNBOUND:               -10.664
REMARK SMILES CC(=O)N[C@@H]1[C@@H](O)C[C@](OC[C@H]2O[C@@H](O[C@H]3[C@H](O)[C@@H](O)[C@H](OCCN=[N+]=[N-])O[C@@H]3CO)[C@H](O)[C@@H](O)[C@H]2O)(C(=O)O)O[C@H]1C(O)[C@H](O)CNC(=O)OCc1cn(-c2ccc(Br)cc2)nn1
REMARK SMILES IDX 9 1 8 2 6 3 5 4 42 5 41 6 10 7 11 8 12 9 14 10 13 11 32 12
REMARK SMILES IDX 34 13 36 14 15 15 16 16 29 17 28 18 21 19 17 20 19 21 30 22
REMARK SMILES IDX 31 23 22 25 23 26 24 27 25 28 26 29 27 30 18 31 20 33 33 35
REMARK SMILES IDX 35 37 37 39 38 41 39 42 40 43 7 45 43 47 44 48 45 50 46 51
REMARK SMILES IDX 47 53 48 54 49 55 50 57 51 58 52 59 53 60 54 61 64 62 55 63
REMARK SMILES IDX 63 64 56 65 57 66 62 67 58 68 61 69 59 70 60 71 4 72 2 73
REMARK SMILES IDX 1 75 3 76
REMARK H PARENT 31 24 18 32 20 34 33 36 35 38 37 40 40 44 7 46 44 49 46 52
REMARK H PARENT 48 56 4 74
REMARK Flexibility Score: inf
ROOT
ATOM      1  C   UNL     1      25.591  38.195   8.333  1.00  0.00     0.272 C 
ATOM      2  C   UNL     1      24.849  39.559   8.361  1.00  0.00     0.113 C 
ATOM      3  C   UNL     1      25.780  40.596   7.853  1.00  0.00     0.145 C 
ATOM      4  C   UNL     1      26.202  40.161   6.435  1.00  0.00     0.142 C 
ATOM      5  C   UNL     1      27.039  38.922   6.650  1.00  0.00     0.178 C 
ATOM      6  O   UNL     1      26.172  37.961   7.120  1.00  0.00    -0.332 OA
ENDROOT
BRANCH   1   7
ATOM      7  O   UNL     1      24.544  37.284   8.507  1.00  0.00    -0.338 OA
BRANCH   7   8
ATOM      8  C   UNL     1      23.471  37.448   7.686  1.00  0.00     0.199 C 
BRANCH   8   9
ATOM      9  C   UNL     1      22.316  36.633   8.302  1.00  0.00     0.179 C 
ATOM     10  C   UNL     1      21.965  35.338  10.201  1.00  0.00     0.282 C 
ATOM     11  O   UNL     1      22.784  35.672   9.151  1.00  0.00    -0.341 OA
ATOM     12  C   UNL     1      20.535  35.624   9.980  1.00  0.00     0.202 C 
ATOM     13  C   UNL     1      20.206  36.991   9.472  1.00  0.00     0.179 C 
ATOM     14  C   UNL     1      21.456  37.668   9.011  1.00  0.00     0.177 C 
BRANCH  10  15
ATOM     15  O   UNL     1      22.543  35.889  11.344  1.00  0.00    -0.341 OA
BRANCH  15  16
ATOM     16  C   UNL     1      23.259  34.952  12.068  1.00  0.00     0.184 C 
ATOM     17  C   UNL     1      22.922  34.991  13.524  1.00  0.00     0.178 C 
ATOM     18  O   UNL     1      23.528  33.953  14.172  1.00  0.00    -0.341 OA
ATOM     19  C   UNL     1      24.572  33.322  13.568  1.00  0.00     0.281 C 
ATOM     20  C   UNL     1      24.764  35.263  12.004  1.00  0.00     0.180 C 
ATOM     21  C   UNL     1      25.516  34.211  12.790  1.00  0.00     0.202 C 
BRANCH  17  22
ATOM     22  C   UNL     1      21.422  34.842  13.698  1.00  0.00     0.191 C 
BRANCH  22  23
ATOM     23  O   UNL     1      21.130  33.798  14.543  1.00  0.00    -0.394 OA
ATOM     24  H   UNL     1      20.670  34.107  15.343  1.00  0.00     0.210 HD
ENDBRANCH  22  23
ENDBRANCH  17  22
BRANCH  19  25
ATOM     25  O   UNL     1      24.189  32.204  12.836  1.00  0.00    -0.350 OA
BRANCH  25  26
ATOM     26  C   UNL     1      23.442  31.287  13.549  1.00  0.00     0.169 C 
BRANCH  26  27
ATOM     27  C   UNL     1      24.087  29.950  13.707  1.00  0.00     0.119 C 
BRANCH  27  28
ATOM     28  N   UNL     1      24.565  29.792  15.070  1.00  0.00    -0.092 NA
ATOM     29  N   UNL     1      25.634  30.336  15.358  1.00  0.00     0.001 N 
ATOM     30  N   UNL     1      26.640  30.951  15.771  1.00  0.00    -0.003 NA
ENDBRANCH  27  28
ENDBRANCH  26  27
ENDBRANCH  25  26
ENDBRANCH  19  25
BRANCH  20  31
ATOM     31  O   UNL     1      25.176  35.376  10.688  1.00  0.00    -0.387 OA
ATOM     32  H   UNL     1      24.407  35.336  10.059  1.00  0.00     0.211 HD
ENDBRANCH  20  31
BRANCH  21  33
ATOM     33  O   UNL     1      26.488  34.724  13.619  1.00  0.00    -0.385 OA
ATOM     34  H   UNL     1      26.761  35.606  13.271  1.00  0.00     0.211 HD
ENDBRANCH  21  33
ENDBRANCH  15  16
ENDBRANCH  10  15
BRANCH  12  35
ATOM     35  O   UNL     1      20.053  34.626   9.089  1.00  0.00    -0.385 OA
ATOM     36  H   UNL     1      19.063  34.727   8.987  1.00  0.00     0.211 HD
ENDBRANCH  12  35
BRANCH  13  37
ATOM     37  O   UNL     1      19.621  37.774  10.495  1.00  0.00    -0.387 OA
ATOM     38  H   UNL     1      18.644  37.718  10.339  1.00  0.00     0.211 HD
ENDBRANCH  13  37
BRANCH  14  39
ATOM     39  O   UNL     1      22.144  38.284  10.053  1.00  0.00    -0.387 OA
ATOM     40  H   UNL     1      21.546  38.887  10.562  1.00  0.00     0.211 HD
ENDBRANCH  14  39
ENDBRANCH   8   9
ENDBRANCH   7   8
ENDBRANCH   1   7
BRANCH   1  41
ATOM     41  C   UNL     1      26.451  38.167   9.514  1.00  0.00     0.364 C 
ATOM     42  O   UNL     1      26.044  38.406  10.676  1.00  0.00    -0.246 OA
BRANCH  41  43
ATOM     43  O   UNL     1      27.793  37.862   9.394  1.00  0.00    -0.477 OA
ATOM     44  H   UNL     1      28.345  38.043   8.557  1.00  0.00     0.296 HD
ENDBRANCH  41  43
ENDBRANCH   1  41
BRANCH   3  45
ATOM     45  O   UNL     1      25.155  41.823   7.685  1.00  0.00    -0.391 OA
ATOM     46  H   UNL     1      24.361  41.710   7.121  1.00  0.00     0.211 HD
ENDBRANCH   3  45
BRANCH   5  47
ATOM     47  C   UNL     1      27.689  38.377   5.424  1.00  0.00     0.176 C 
BRANCH  47  48
ATOM     48  O   UNL     1      27.102  37.094   5.231  1.00  0.00    -0.388 OA
ATOM     49  H   UNL     1      26.882  36.719   6.121  1.00  0.00     0.211 HD
ENDBRANCH  47  48
BRANCH  47  50
ATOM     50  C   UNL     1      29.171  38.067   5.577  1.00  0.00     0.165 C 
BRANCH  50  51
ATOM     51  O   UNL     1      29.227  37.352   6.806  1.00  0.00    -0.388 OA
ATOM     52  H   UNL     1      29.940  37.763   7.389  1.00  0.00     0.211 HD
ENDBRANCH  50  51
BRANCH  50  53
ATOM     53  C   UNL     1      29.981  39.301   5.770  1.00  0.00     0.154 C 
BRANCH  53  54
ATOM     54  N   UNL     1      30.138  39.629   7.150  1.00  0.00    -0.319 N 
ATOM     55  C   UNL     1      31.022  40.632   7.661  1.00  0.00     0.407 C 
ATOM     56  H   UNL     1      29.572  39.111   7.896  1.00  0.00     0.167 HD
ATOM     57  O   UNL     1      31.726  41.280   6.852  1.00  0.00    -0.225 OA
BRANCH  55  58
ATOM     58  O   UNL     1      31.117  40.905   9.005  1.00  0.00    -0.443 OA
BRANCH  58  59
ATOM     59  C   UNL     1      31.951  40.129   9.827  1.00  0.00     0.294 C 
BRANCH  59  60
ATOM     60  C   UNL     1      31.106  39.282  10.699  1.00  0.00     0.121 A 
ATOM     61  C   UNL     1      31.556  38.128  11.352  1.00  0.00     0.144 A 
ATOM     62  N   UNL     1      29.815  39.393  11.044  1.00  0.00    -0.131 NA
ATOM     63  N   UNL     1      30.534  37.604  12.050  1.00  0.00    -0.220 N 
ATOM     64  N   UNL     1      29.496  38.391  11.843  1.00  0.00    -0.062 NA
BRANCH  63  65
ATOM     65  C   UNL     1      30.640  36.421  12.830  1.00  0.00     0.066 A 
ATOM     66  C   UNL     1      29.822  35.342  12.727  1.00  0.00     0.029 A 
ATOM     67  C   UNL     1      31.677  36.390  13.757  1.00  0.00     0.029 A 
ATOM     68  C   UNL     1      30.040  34.249  13.539  1.00  0.00     0.018 A 
ATOM     69  C   UNL     1      31.883  35.292  14.561  1.00  0.00     0.018 A 
ATOM     70  C   UNL     1      31.056  34.192  14.461  1.00  0.00     0.018 A 
ATOM     71  Br  UNL     1      31.326  32.659  15.563  1.00  0.00    -0.051 Br
ENDBRANCH  63  65
ENDBRANCH  59  60
ENDBRANCH  58  59
ENDBRANCH  55  58
ENDBRANCH  53  54
ENDBRANCH  50  53
ENDBRANCH  47  50
ENDBRANCH   5  47
BRANCH   4  72
ATOM     72  N   UNL     1      26.895  41.273   5.861  1.00  0.00    -0.348 N 
ATOM     73  C   UNL     1      26.604  41.760   4.557  1.00  0.00     0.217 C 
ATOM     74  H   UNL     1      27.636  41.747   6.407  1.00  0.00     0.163 HD
ATOM     75  C   UNL     1      27.307  42.907   3.936  1.00  0.00     0.114 C 
ATOM     76  O   UNL     1      25.697  41.194   3.865  1.00  0.00    -0.275 OA
ENDBRANCH   4  72
TORSDOF 30
BEGIN_RES LYS A 131
REMARK  4 active torsions:
REMARK  status: ('A' for Active; 'I' for Inactive)
REMARK    1  A    between atoms: CA   and  CB  
REMARK    2  A    between atoms: CB   and  CG  
REMARK    3  A    between atoms: CG   and  CD  
REMARK    4  A    between atoms: CD   and  CE  
ROOT
ATOM      1  CA  LYS A 131      29.867  25.555  16.977  1.00 20.52     0.186 C 
ENDROOT
BRANCH   1   2
ATOM      2  CB  LYS A 131      28.345  25.722  17.026  1.00 20.94     0.034 C 
BRANCH   2   3
ATOM      3  CG  LYS A 131      27.602  24.398  16.940  1.00 22.96     0.005 C 
BRANCH   3   4
ATOM      4  CD  LYS A 131      26.504  24.296  17.961  1.00 24.33     0.041 C 
BRANCH   4   5
ATOM      5  CE  LYS A 131      25.244  23.745  17.302  1.00 26.91     0.338 C 
ATOM      6  NZ  LYS A 131      25.112  22.293  17.568  1.00 27.40     0.618 N 
ENDBRANCH   4   5
ENDBRANCH   3   4
ENDBRANCH   2   3
ENDBRANCH   1   2
END_RES LYS A 131
BEGIN_RES LYS A 135
REMARK  4 active torsions:
REMARK  status: ('A' for Active; 'I' for Inactive)
REMARK    5  A    between atoms: CA   and  CB  
REMARK    6  A    between atoms: CB   and  CG  
REMARK    7  A    between atoms: CG   and  CD  
REMARK    8  A    between atoms: CD   and  CE  
ROOT
ATOM      7  CA  LYS A 135      33.193  34.663   9.290  1.00 25.02     0.186 C 
ENDROOT
BRANCH   7   8
ATOM      8  CB  LYS A 135      32.060  35.360  10.034  1.00 26.63     0.034 C 
BRANCH   8   9
ATOM      9  CG  LYS A 135      30.797  35.492   9.222  1.00 29.45     0.005 C 
BRANCH   9  10
ATOM     10  CD  LYS A 135      30.165  34.129   8.988  1.00 32.00     0.041 C 
BRANCH  10  11
ATOM     11  CE  LYS A 135      28.692  34.275   8.657  1.00 34.25     0.338 C 
ATOM     12  NZ  LYS A 135      27.842  33.632   9.697  1.00 35.99     0.618 N 
ENDBRANCH  10  11
ENDBRANCH   9  10
ENDBRANCH   8   9
ENDBRANCH   7   8
END_RES LYS A 135
