REMARK VINA RESULT:    -4.712      3.654      6.982
REMARK INTER + INTRA:         -21.309
REMARK INTER:                 -10.483
REMARK INTRA:                 -10.826
REMARK UNBOUND:                -9.712
REMARK SMILES CC(=O)N[C@@H]1[C@@H](O)C[C@](OC[C@H]2O[C@@H](O[C@H]3[C@H](O)[C@@H](O)[C@H](OCCN=[N+]=[N-])O[C@@H]3CO)[C@H](O)[C@@H](O)[C@H]2O)(C(=O)O)O[C@H]1C(O)[C@H](O)CNC(=O)OCc1cn(C2CCCCC2)nn1
REMARK SMILES IDX 9 1 8 2 6 3 5 4 42 5 41 6 10 7 11 8 12 9 14 10 13 11 32 12
REMARK SMILES IDX 34 13 36 14 15 15 16 16 29 17 28 18 21 19 17 20 19 21 30 22
REMARK SMILES IDX 31 23 22 25 23 26 24 27 25 28 26 29 27 30 18 31 20 33 33 35
REMARK SMILES IDX 35 37 37 39 38 41 39 42 40 43 7 45 43 47 44 48 45 50 46 51
REMARK SMILES IDX 47 53 48 54 49 55 50 57 51 58 52 59 53 60 54 61 63 62 55 63
REMARK SMILES IDX 62 64 56 65 57 66 61 67 58 68 60 69 59 70 4 71 2 72 1 74
REMARK SMILES IDX 3 75
REMARK H PARENT 31 24 18 32 20 34 33 36 35 38 37 40 40 44 7 46 44 49 46 52
REMARK H PARENT 48 56 4 73
REMARK Flexibility Score: inf
ROOT
ATOM      1  C   UNL     1      29.109  31.256  21.569  1.00  0.00     0.272 C 
ATOM      2  C   UNL     1      30.564  31.636  21.106  1.00  0.00     0.113 C 
ATOM      3  C   UNL     1      31.230  30.427  20.526  1.00  0.00     0.145 C 
ATOM      4  C   UNL     1      31.226  29.284  21.506  1.00  0.00     0.142 C 
ATOM      5  C   UNL     1      29.974  29.188  22.306  1.00  0.00     0.178 C 
ATOM      6  O   UNL     1      29.130  30.195  22.394  1.00  0.00    -0.332 OA
ENDROOT
BRANCH   1   7
ATOM      7  O   UNL     1      28.479  31.034  20.424  1.00  0.00    -0.338 OA
BRANCH   7   8
ATOM      8  C   UNL     1      27.297  30.639  20.091  1.00  0.00     0.199 C 
BRANCH   8   9
ATOM      9  C   UNL     1      26.623  31.066  18.797  1.00  0.00     0.179 C 
ATOM     10  C   UNL     1      27.541  32.661  17.344  1.00  0.00     0.282 C 
ATOM     11  O   UNL     1      26.829  32.376  18.503  1.00  0.00    -0.341 OA
ATOM     12  C   UNL     1      26.912  31.974  16.191  1.00  0.00     0.202 C 
ATOM     13  C   UNL     1      26.659  30.504  16.419  1.00  0.00     0.179 C 
ATOM     14  C   UNL     1      27.174  30.105  17.749  1.00  0.00     0.177 C 
BRANCH  10  15
ATOM     15  O   UNL     1      28.846  32.461  17.607  1.00  0.00    -0.341 OA
BRANCH  15  16
ATOM     16  C   UNL     1      29.722  33.496  17.568  1.00  0.00     0.184 C 
ATOM     17  C   UNL     1      31.024  32.983  16.988  1.00  0.00     0.178 C 
ATOM     18  O   UNL     1      31.885  34.006  16.639  1.00  0.00    -0.341 OA
ATOM     19  C   UNL     1      31.711  35.165  17.348  1.00  0.00     0.281 C 
ATOM     20  C   UNL     1      30.091  34.042  18.931  1.00  0.00     0.180 C 
ATOM     21  C   UNL     1      31.313  34.913  18.756  1.00  0.00     0.202 C 
BRANCH  17  22
ATOM     22  C   UNL     1      30.838  31.972  15.893  1.00  0.00     0.191 C 
BRANCH  22  23
ATOM     23  O   UNL     1      30.690  30.722  16.496  1.00  0.00    -0.394 OA
ATOM     24  H   UNL     1      31.522  30.193  16.465  1.00  0.00     0.210 HD
ENDBRANCH  22  23
ENDBRANCH  17  22
BRANCH  19  25
ATOM     25  O   UNL     1      30.921  36.025  16.632  1.00  0.00    -0.350 OA
BRANCH  25  26
ATOM     26  C   UNL     1      31.313  36.204  15.315  1.00  0.00     0.169 C 
BRANCH  26  27
ATOM     27  C   UNL     1      30.250  35.853  14.310  1.00  0.00     0.119 C 
BRANCH  27  28
ATOM     28  N   UNL     1      28.986  35.741  15.008  1.00  0.00    -0.092 NA
ATOM     29  N   UNL     1      28.171  34.937  14.536  1.00  0.00     0.001 N 
ATOM     30  N   UNL     1      27.138  34.620  13.919  1.00  0.00    -0.003 NA
ENDBRANCH  27  28
ENDBRANCH  26  27
ENDBRANCH  25  26
ENDBRANCH  19  25
BRANCH  20  31
ATOM     31  O   UNL     1      29.101  34.796  19.512  1.00  0.00    -0.387 OA
ATOM     32  H   UNL     1      29.206  35.767  19.357  1.00  0.00     0.211 HD
ENDBRANCH  20  31
BRANCH  21  33
ATOM     33  O   UNL     1      32.382  34.208  19.362  1.00  0.00    -0.385 OA
ATOM     34  H   UNL     1      33.249  34.513  18.998  1.00  0.00     0.211 HD
ENDBRANCH  21  33
ENDBRANCH  15  16
ENDBRANCH  10  15
BRANCH  12  35
ATOM     35  O   UNL     1      25.632  32.567  16.034  1.00  0.00    -0.385 OA
ATOM     36  H   UNL     1      24.945  31.894  15.835  1.00  0.00     0.211 HD
ENDBRANCH  12  35
BRANCH  13  37
ATOM     37  O   UNL     1      27.267  29.725  15.415  1.00  0.00    -0.387 OA
ATOM     38  H   UNL     1      26.840  29.926  14.567  1.00  0.00     0.211 HD
ENDBRANCH  13  37
BRANCH  14  39
ATOM     39  O   UNL     1      28.520  29.887  17.855  1.00  0.00    -0.387 OA
ATOM     40  H   UNL     1      28.876  29.710  16.952  1.00  0.00     0.211 HD
ENDBRANCH  14  39
ENDBRANCH   8   9
ENDBRANCH   7   8
ENDBRANCH   1   7
BRANCH   1  41
ATOM     41  C   UNL     1      28.707  32.452  22.388  1.00  0.00     0.364 C 
ATOM     42  O   UNL     1      28.161  33.453  21.940  1.00  0.00    -0.246 OA
BRANCH  41  43
ATOM     43  O   UNL     1      28.958  32.458  23.775  1.00  0.00    -0.477 OA
ATOM     44  H   UNL     1      28.244  32.755  24.420  1.00  0.00     0.296 HD
ENDBRANCH  41  43
ENDBRANCH   1  41
BRANCH   3  45
ATOM     45  O   UNL     1      30.674  30.072  19.303  1.00  0.00    -0.391 OA
ATOM     46  H   UNL     1      29.849  30.625  19.177  1.00  0.00     0.211 HD
ENDBRANCH   3  45
BRANCH   5  47
ATOM     47  C   UNL     1      29.150  27.945  21.848  1.00  0.00     0.176 C 
BRANCH  47  48
ATOM     48  O   UNL     1      29.876  27.274  20.845  1.00  0.00    -0.388 OA
ATOM     49  H   UNL     1      30.470  27.882  20.361  1.00  0.00     0.211 HD
ENDBRANCH  47  48
BRANCH  47  50
ATOM     50  C   UNL     1      28.816  27.052  22.993  1.00  0.00     0.165 C 
BRANCH  50  51
ATOM     51  O   UNL     1      29.719  25.965  22.928  1.00  0.00    -0.388 OA
ATOM     52  H   UNL     1      30.597  26.243  22.603  1.00  0.00     0.211 HD
ENDBRANCH  50  51
BRANCH  50  53
ATOM     53  C   UNL     1      27.453  26.469  23.016  1.00  0.00     0.154 C 
BRANCH  53  54
ATOM     54  N   UNL     1      26.728  26.514  21.774  1.00  0.00    -0.319 N 
ATOM     55  C   UNL     1      25.689  27.446  21.511  1.00  0.00     0.407 C 
ATOM     56  H   UNL     1      26.973  25.841  21.026  1.00  0.00     0.167 HD
ATOM     57  O   UNL     1      25.362  28.285  22.387  1.00  0.00    -0.225 OA
BRANCH  55  58
ATOM     58  O   UNL     1      25.016  27.466  20.321  1.00  0.00    -0.443 OA
BRANCH  58  59
ATOM     59  C   UNL     1      24.210  28.508  19.826  1.00  0.00     0.294 C 
BRANCH  59  60
ATOM     60  C   UNL     1      23.905  28.241  18.403  1.00  0.00     0.120 A 
ATOM     61  C   UNL     1      23.388  29.188  17.565  1.00  0.00     0.138 A 
ATOM     62  N   UNL     1      24.048  27.118  17.692  1.00  0.00    -0.132 NA
ATOM     63  N   UNL     1      23.223  28.628  16.344  1.00  0.00    -0.249 N 
ATOM     64  N   UNL     1      23.634  27.366  16.452  1.00  0.00    -0.067 NA
BRANCH  63  65
ATOM     65  C   UNL     1      22.696  29.288  15.166  1.00  0.00     0.109 C 
ATOM     66  C   UNL     1      21.764  28.275  14.507  1.00  0.00     0.027 C 
ATOM     67  C   UNL     1      23.812  29.609  14.197  1.00  0.00     0.027 C 
ATOM     68  C   UNL     1      21.094  28.931  13.300  1.00  0.00     0.002 C 
ATOM     69  C   UNL     1      23.535  29.092  12.800  1.00  0.00     0.002 C 
ATOM     70  C   UNL     1      22.145  29.451  12.373  1.00  0.00     0.000 C 
ENDBRANCH  63  65
ENDBRANCH  59  60
ENDBRANCH  58  59
ENDBRANCH  55  58
ENDBRANCH  53  54
ENDBRANCH  50  53
ENDBRANCH  47  50
ENDBRANCH   5  47
BRANCH   4  71
ATOM     71  N   UNL     1      32.431  29.248  22.293  1.00  0.00    -0.348 N 
ATOM     72  C   UNL     1      33.013  28.079  22.809  1.00  0.00     0.217 C 
ATOM     73  H   UNL     1      32.961  30.147  22.532  1.00  0.00     0.163 HD
ATOM     74  C   UNL     1      34.283  28.113  23.614  1.00  0.00     0.114 C 
ATOM     75  O   UNL     1      32.509  26.971  22.626  1.00  0.00    -0.275 OA
ENDBRANCH   4  71
TORSDOF 30
BEGIN_RES LYS A 131
REMARK  4 active torsions:
REMARK  status: ('A' for Active; 'I' for Inactive)
REMARK    1  A    between atoms: CA   and  CB  
REMARK    2  A    between atoms: CB   and  CG  
REMARK    3  A    between atoms: CG   and  CD  
REMARK    4  A    between atoms: CD   and  CE  
ROOT
ATOM      1  CA  LYS A 131      29.867  25.555  16.977  1.00 20.52     0.186 C 
ENDROOT
BRANCH   1   2
ATOM      2  CB  LYS A 131      28.345  25.722  17.026  1.00 20.94     0.034 C 
BRANCH   2   3
ATOM      3  CG  LYS A 131      27.601  24.401  16.900  1.00 22.96     0.005 C 
BRANCH   3   4
ATOM      4  CD  LYS A 131      26.619  24.195  18.020  1.00 24.33     0.041 C 
BRANCH   4   5
ATOM      5  CE  LYS A 131      25.602  23.133  17.616  1.00 26.91     0.338 C 
ATOM      6  NZ  LYS A 131      24.469  23.752  16.887  1.00 27.40     0.618 N 
ENDBRANCH   4   5
ENDBRANCH   3   4
ENDBRANCH   2   3
ENDBRANCH   1   2
END_RES LYS A 131
BEGIN_RES LYS A 135
REMARK  4 active torsions:
REMARK  status: ('A' for Active; 'I' for Inactive)
REMARK    5  A    between atoms: CA   and  CB  
REMARK    6  A    between atoms: CB   and  CG  
REMARK    7  A    between atoms: CG   and  CD  
REMARK    8  A    between atoms: CD   and  CE  
ROOT
ATOM      7  CA  LYS A 135      33.193  34.663   9.290  1.00 25.02     0.186 C 
ENDROOT
BRANCH   7   8
ATOM      8  CB  LYS A 135      32.060  35.360  10.034  1.00 26.63     0.034 C 
BRANCH   8   9
ATOM      9  CG  LYS A 135      30.704  34.762   9.763  1.00 29.45     0.005 C 
BRANCH   9  10
ATOM     10  CD  LYS A 135      30.531  34.474   8.279  1.00 32.00     0.041 C 
BRANCH  10  11
ATOM     11  CE  LYS A 135      29.265  35.125   7.755  1.00 34.25     0.338 C 
ATOM     12  NZ  LYS A 135      28.297  35.382   8.857  1.00 35.99     0.618 N 
ENDBRANCH  10  11
ENDBRANCH   9  10
ENDBRANCH   8   9
ENDBRANCH   7   8
END_RES LYS A 135
