REMARK VINA RESULT:    -3.525      2.536      7.901
REMARK INTER + INTRA:         -21.220
REMARK INTER:                  -8.677
REMARK INTRA:                 -12.543
REMARK UNBOUND:               -12.543
REMARK SMILES CC(=O)N[C@@H]1[C@@H](O)C[C@](OC[C@H]2O[C@@H](O[C@H]3[C@H](O)[C@@H](O)[C@H](OCCN=[N+]=[N-])O[C@@H]3CO)[C@H](O)[C@@H](O)[C@H]2O)(C(=O)O)O[C@H]1C(O)[C@H](O)CNC(=O)OCc1cn(-c2ccncc2)nn1
REMARK SMILES IDX 9 1 8 2 6 3 5 4 42 5 41 6 10 7 11 8 12 9 14 10 13 11 32 12
REMARK SMILES IDX 34 13 36 14 15 15 16 16 29 17 28 18 21 19 17 20 19 21 30 22
REMARK SMILES IDX 31 23 22 25 23 26 24 27 25 28 26 29 27 30 18 31 20 33 33 35
REMARK SMILES IDX 35 37 37 39 38 41 39 42 40 43 7 45 43 47 44 48 45 50 46 51
REMARK SMILES IDX 47 53 48 54 49 55 50 57 51 58 52 59 53 60 54 61 63 62 55 63
REMARK SMILES IDX 62 64 56 65 57 66 61 67 58 68 60 69 59 70 4 71 2 72 1 74
REMARK SMILES IDX 3 75
REMARK H PARENT 31 24 18 32 20 34 33 36 35 38 37 40 40 44 7 46 44 49 46 52
REMARK H PARENT 48 56 4 73
REMARK Flexibility Score: inf
ROOT
ATOM      1  C   UNL     1      27.115  30.709  17.919  1.00  0.00     0.272 C 
ATOM      2  C   UNL     1      27.016  30.787  19.456  1.00  0.00     0.113 C 
ATOM      3  C   UNL     1      27.919  31.905  19.988  1.00  0.00     0.145 C 
ATOM      4  C   UNL     1      29.387  31.418  19.738  1.00  0.00     0.142 C 
ATOM      5  C   UNL     1      29.448  31.041  18.287  1.00  0.00     0.178 C 
ATOM      6  O   UNL     1      28.279  31.462  17.666  1.00  0.00    -0.332 OA
ENDROOT
BRANCH   1   7
ATOM      7  O   UNL     1      26.135  31.386  17.354  1.00  0.00    -0.338 OA
BRANCH   7   8
ATOM      8  C   UNL     1      25.877  32.373  16.615  1.00  0.00     0.199 C 
BRANCH   8   9
ATOM      9  C   UNL     1      24.639  32.423  15.773  1.00  0.00     0.179 C 
ATOM     10  C   UNL     1      24.113  33.043  13.569  1.00  0.00     0.282 C 
ATOM     11  O   UNL     1      25.105  32.912  14.512  1.00  0.00    -0.341 OA
ATOM     12  C   UNL     1      23.513  31.715  13.230  1.00  0.00     0.202 C 
ATOM     13  C   UNL     1      23.036  31.027  14.511  1.00  0.00     0.179 C 
ATOM     14  C   UNL     1      24.186  30.990  15.473  1.00  0.00     0.177 C 
BRANCH  10  15
ATOM     15  O   UNL     1      24.795  33.562  12.438  1.00  0.00    -0.341 OA
BRANCH  15  16
ATOM     16  C   UNL     1      25.226  34.835  12.606  1.00  0.00     0.184 C 
ATOM     17  C   UNL     1      24.685  35.799  11.628  1.00  0.00     0.178 C 
ATOM     18  O   UNL     1      25.097  37.109  11.952  1.00  0.00    -0.341 OA
ATOM     19  C   UNL     1      26.455  37.122  11.453  1.00  0.00     0.281 C 
ATOM     20  C   UNL     1      26.780  34.829  12.467  1.00  0.00     0.180 C 
ATOM     21  C   UNL     1      27.247  36.270  12.372  1.00  0.00     0.202 C 
BRANCH  17  22
ATOM     22  C   UNL     1      23.209  35.762  11.506  1.00  0.00     0.191 C 
BRANCH  22  23
ATOM     23  O   UNL     1      22.753  34.617  10.835  1.00  0.00    -0.394 OA
ATOM     24  H   UNL     1      21.924  34.891  10.343  1.00  0.00     0.210 HD
ENDBRANCH  22  23
ENDBRANCH  17  22
BRANCH  19  25
ATOM     25  O   UNL     1      26.834  38.435  11.521  1.00  0.00    -0.350 OA
BRANCH  25  26
ATOM     26  C   UNL     1      26.539  39.017  12.716  1.00  0.00     0.169 C 
BRANCH  26  27
ATOM     27  C   UNL     1      27.601  39.876  13.322  1.00  0.00     0.119 C 
BRANCH  27  28
ATOM     28  N   UNL     1      28.915  39.266  13.275  1.00  0.00    -0.092 NA
ATOM     29  N   UNL     1      29.954  39.884  13.089  1.00  0.00     0.001 N 
ATOM     30  N   UNL     1      30.896  40.541  12.636  1.00  0.00    -0.003 NA
ENDBRANCH  27  28
ENDBRANCH  26  27
ENDBRANCH  25  26
ENDBRANCH  19  25
BRANCH  20  31
ATOM     31  O   UNL     1      27.267  34.288  13.632  1.00  0.00    -0.387 OA
ATOM     32  H   UNL     1      27.872  33.501  13.448  1.00  0.00     0.211 HD
ENDBRANCH  20  31
BRANCH  21  33
ATOM     33  O   UNL     1      28.589  36.315  12.029  1.00  0.00    -0.385 OA
ATOM     34  H   UNL     1      29.117  35.861  12.736  1.00  0.00     0.211 HD
ENDBRANCH  21  33
ENDBRANCH  15  16
ENDBRANCH  10  15
BRANCH  12  35
ATOM     35  O   UNL     1      22.371  31.871  12.409  1.00  0.00    -0.385 OA
ATOM     36  H   UNL     1      22.644  32.495  11.696  1.00  0.00     0.211 HD
ENDBRANCH  12  35
BRANCH  13  37
ATOM     37  O   UNL     1      22.567  29.754  14.290  1.00  0.00    -0.387 OA
ATOM     38  H   UNL     1      23.271  29.187  13.842  1.00  0.00     0.211 HD
ENDBRANCH  13  37
BRANCH  14  39
ATOM     39  O   UNL     1      25.300  30.354  14.904  1.00  0.00    -0.387 OA
ATOM     40  H   UNL     1      26.077  30.993  14.896  1.00  0.00     0.211 HD
ENDBRANCH  14  39
ENDBRANCH   8   9
ENDBRANCH   7   8
ENDBRANCH   1   7
BRANCH   1  41
ATOM     41  C   UNL     1      27.248  29.319  17.473  1.00  0.00     0.364 C 
ATOM     42  O   UNL     1      27.444  29.020  16.250  1.00  0.00    -0.246 OA
BRANCH  41  43
ATOM     43  O   UNL     1      27.171  28.243  18.325  1.00  0.00    -0.477 OA
ATOM     44  H   UNL     1      27.169  27.279  18.070  1.00  0.00     0.296 HD
ENDBRANCH  41  43
ENDBRANCH   1  41
BRANCH   3  45
ATOM     45  O   UNL     1      27.738  33.039  19.243  1.00  0.00    -0.391 OA
ATOM     46  H   UNL     1      28.375  33.108  18.506  1.00  0.00     0.211 HD
ENDBRANCH   3  45
BRANCH   5  47
ATOM     47  C   UNL     1      30.522  31.807  17.503  1.00  0.00     0.176 C 
BRANCH  47  48
ATOM     48  O   UNL     1      30.332  33.153  18.045  1.00  0.00    -0.388 OA
ATOM     49  H   UNL     1      30.294  33.770  17.254  1.00  0.00     0.211 HD
ENDBRANCH  47  48
BRANCH  47  50
ATOM     50  C   UNL     1      30.353  31.905  16.050  1.00  0.00     0.165 C 
BRANCH  50  51
ATOM     51  O   UNL     1      29.645  30.919  15.406  1.00  0.00    -0.388 OA
ATOM     52  H   UNL     1      28.955  31.303  14.802  1.00  0.00     0.211 HD
ENDBRANCH  50  51
BRANCH  50  53
ATOM     53  C   UNL     1      31.467  32.531  15.304  1.00  0.00     0.154 C 
BRANCH  53  54
ATOM     54  N   UNL     1      31.499  33.970  15.305  1.00  0.00    -0.319 N 
ATOM     55  C   UNL     1      30.821  34.716  14.311  1.00  0.00     0.407 C 
ATOM     56  H   UNL     1      32.048  34.434  16.049  1.00  0.00     0.167 HD
ATOM     57  O   UNL     1      30.194  34.071  13.441  1.00  0.00    -0.225 OA
BRANCH  55  58
ATOM     58  O   UNL     1      30.810  36.081  14.248  1.00  0.00    -0.443 OA
BRANCH  58  59
ATOM     59  C   UNL     1      30.496  36.963  15.304  1.00  0.00     0.294 C 
BRANCH  59  60
ATOM     60  C   UNL     1      29.337  36.466  16.117  1.00  0.00     0.121 A 
ATOM     61  C   UNL     1      27.986  36.635  15.913  1.00  0.00     0.144 A 
ATOM     62  N   UNL     1      29.437  35.731  17.251  1.00  0.00    -0.131 NA
ATOM     63  N   UNL     1      27.316  36.015  16.901  1.00  0.00    -0.220 N 
ATOM     64  N   UNL     1      28.227  35.469  17.708  1.00  0.00    -0.062 NA
BRANCH  63  65
ATOM     65  C   UNL     1      25.902  35.969  17.034  1.00  0.00     0.069 A 
ATOM     66  C   UNL     1      25.019  36.173  15.995  1.00  0.00     0.048 A 
ATOM     67  C   UNL     1      25.379  35.699  18.279  1.00  0.00     0.048 A 
ATOM     68  C   UNL     1      23.647  36.114  16.170  1.00  0.00     0.113 A 
ATOM     69  C   UNL     1      24.005  35.641  18.444  1.00  0.00     0.113 A 
ATOM     70  N   UNL     1      23.179  35.845  17.411  1.00  0.00    -0.265 NA
ENDBRANCH  63  65
ENDBRANCH  59  60
ENDBRANCH  58  59
ENDBRANCH  55  58
ENDBRANCH  53  54
ENDBRANCH  50  53
ENDBRANCH  47  50
ENDBRANCH   5  47
BRANCH   4  71
ATOM     71  N   UNL     1      29.505  30.298  20.640  1.00  0.00    -0.348 N 
ATOM     72  C   UNL     1      30.726  29.756  21.097  1.00  0.00     0.217 C 
ATOM     73  H   UNL     1      28.640  29.845  20.986  1.00  0.00     0.163 HD
ATOM     74  C   UNL     1      30.722  28.609  22.018  1.00  0.00     0.114 C 
ATOM     75  O   UNL     1      31.809  30.248  20.723  1.00  0.00    -0.275 OA
ENDBRANCH   4  71
TORSDOF 30
BEGIN_RES LYS A 131
REMARK  4 active torsions:
REMARK  status: ('A' for Active; 'I' for Inactive)
REMARK    1  A    between atoms: CA   and  CB  
REMARK    2  A    between atoms: CB   and  CG  
REMARK    3  A    between atoms: CG   and  CD  
REMARK    4  A    between atoms: CD   and  CE  
ROOT
ATOM      1  CA  LYS A 131      29.867  25.555  16.977  1.00 20.52     0.186 C 
ENDROOT
BRANCH   1   2
ATOM      2  CB  LYS A 131      28.345  25.722  17.026  1.00 20.94     0.034 C 
BRANCH   2   3
ATOM      3  CG  LYS A 131      27.601  24.403  16.886  1.00 22.96     0.005 C 
BRANCH   3   4
ATOM      4  CD  LYS A 131      26.515  24.252  17.915  1.00 24.33     0.041 C 
BRANCH   4   5
ATOM      5  CE  LYS A 131      25.404  25.259  17.634  1.00 26.91     0.338 C 
ATOM      6  NZ  LYS A 131      24.320  24.628  16.844  1.00 27.40     0.618 N 
ENDBRANCH   4   5
ENDBRANCH   3   4
ENDBRANCH   2   3
ENDBRANCH   1   2
END_RES LYS A 131
BEGIN_RES LYS A 135
REMARK  4 active torsions:
REMARK  status: ('A' for Active; 'I' for Inactive)
REMARK    5  A    between atoms: CA   and  CB  
REMARK    6  A    between atoms: CB   and  CG  
REMARK    7  A    between atoms: CG   and  CD  
REMARK    8  A    between atoms: CD   and  CE  
ROOT
ATOM      7  CA  LYS A 135      33.193  34.663   9.290  1.00 25.02     0.186 C 
ENDROOT
BRANCH   7   8
ATOM      8  CB  LYS A 135      32.060  35.360  10.034  1.00 26.63     0.034 C 
BRANCH   8   9
ATOM      9  CG  LYS A 135      30.708  34.741   9.790  1.00 29.45     0.005 C 
BRANCH   9  10
ATOM     10  CD  LYS A 135      30.475  34.530   8.302  1.00 32.00     0.041 C 
BRANCH  10  11
ATOM     11  CE  LYS A 135      29.057  34.913   7.925  1.00 34.25     0.338 C 
ATOM     12  NZ  LYS A 135      28.869  36.390   7.975  1.00 35.99     0.618 N 
ENDBRANCH  10  11
ENDBRANCH   9  10
ENDBRANCH   8   9
ENDBRANCH   7   8
END_RES LYS A 135
