REMARK VINA RESULT:    -5.089      7.000     15.666
REMARK INTER + INTRA:         -21.186
REMARK INTER:                 -11.248
REMARK INTRA:                  -9.938
REMARK UNBOUND:                -8.212
REMARK SMILES CC(=O)N[C@@H]1[C@@H](O)C[C@](OC[C@H]2O[C@@H](O[C@H]3[C@H](O)[C@@H](O)[C@H](OCCN=[N+]=[N-])O[C@@H]3CO)[C@H](O)[C@@H](O)[C@H]2O)(C(=O)O)O[C@H]1C(O)[C@H](O)CNC(=O)OCc1cn(-c2ccc(CO)cn2)nn1
REMARK SMILES IDX 9 1 8 2 6 3 5 4 42 5 41 6 10 7 11 8 12 9 14 10 13 11 32 12
REMARK SMILES IDX 34 13 36 14 15 15 16 16 29 17 28 18 21 19 17 20 19 21 30 22
REMARK SMILES IDX 31 23 22 25 23 26 24 27 25 28 26 29 27 30 18 31 20 33 33 35
REMARK SMILES IDX 35 37 37 39 38 41 39 42 40 43 7 45 43 47 44 48 45 50 46 51
REMARK SMILES IDX 47 53 48 54 49 55 50 57 51 58 52 59 53 60 54 61 65 62 55 63
REMARK SMILES IDX 64 64 56 65 57 66 63 67 58 68 62 69 59 70 60 71 61 72 4 74
REMARK SMILES IDX 2 75 1 77 3 78
REMARK H PARENT 31 24 18 32 20 34 33 36 35 38 37 40 40 44 7 46 44 49 46 52
REMARK H PARENT 48 56 61 73 4 76
REMARK Flexibility Score: inf
ROOT
ATOM      1  C   UNL     1      32.934  30.808  22.463  1.00  0.00     0.272 C 
ATOM      2  C   UNL     1      34.161  31.589  22.174  1.00  0.00     0.113 C 
ATOM      3  C   UNL     1      35.305  31.217  23.076  1.00  0.00     0.145 C 
ATOM      4  C   UNL     1      35.452  29.709  23.133  1.00  0.00     0.142 C 
ATOM      5  C   UNL     1      34.159  29.073  23.437  1.00  0.00     0.178 C 
ATOM      6  O   UNL     1      33.149  29.463  22.627  1.00  0.00    -0.332 OA
ENDROOT
BRANCH   1   7
ATOM      7  O   UNL     1      31.945  30.945  21.504  1.00  0.00    -0.338 OA
BRANCH   7   8
ATOM      8  C   UNL     1      31.759  29.807  20.747  1.00  0.00     0.199 C 
BRANCH   8   9
ATOM      9  C   UNL     1      30.316  29.402  20.789  1.00  0.00     0.179 C 
ATOM     10  C   UNL     1      28.302  29.848  19.867  1.00  0.00     0.282 C 
ATOM     11  O   UNL     1      29.671  29.638  19.560  1.00  0.00    -0.341 OA
ATOM     12  C   UNL     1      27.799  28.756  20.717  1.00  0.00     0.202 C 
ATOM     13  C   UNL     1      28.694  27.532  20.822  1.00  0.00     0.179 C 
ATOM     14  C   UNL     1      30.138  27.950  21.088  1.00  0.00     0.177 C 
BRANCH  10  15
ATOM     15  O   UNL     1      27.591  30.051  18.679  1.00  0.00    -0.341 OA
BRANCH  15  16
ATOM     16  C   UNL     1      28.335  30.698  17.717  1.00  0.00     0.184 C 
ATOM     17  C   UNL     1      27.934  32.110  17.424  1.00  0.00     0.178 C 
ATOM     18  O   UNL     1      27.382  32.281  16.157  1.00  0.00    -0.341 OA
ATOM     19  C   UNL     1      26.290  31.484  15.927  1.00  0.00     0.281 C 
ATOM     20  C   UNL     1      28.133  29.900  16.415  1.00  0.00     0.180 C 
ATOM     21  C   UNL     1      26.625  30.000  16.147  1.00  0.00     0.202 C 
BRANCH  17  22
ATOM     22  C   UNL     1      29.227  32.946  17.403  1.00  0.00     0.191 C 
BRANCH  22  23
ATOM     23  O   UNL     1      29.644  33.136  16.076  1.00  0.00    -0.394 OA
ATOM     24  H   UNL     1      28.862  33.377  15.494  1.00  0.00     0.210 HD
ENDBRANCH  22  23
ENDBRANCH  17  22
BRANCH  19  25
ATOM     25  O   UNL     1      25.889  31.660  14.605  1.00  0.00    -0.350 OA
BRANCH  25  26
ATOM     26  C   UNL     1      24.535  31.537  14.426  1.00  0.00     0.169 C 
BRANCH  26  27
ATOM     27  C   UNL     1      24.296  30.477  13.358  1.00  0.00     0.119 C 
BRANCH  27  28
ATOM     28  N   UNL     1      23.339  29.487  13.835  1.00  0.00    -0.092 NA
ATOM     29  N   UNL     1      23.438  28.909  14.904  1.00  0.00     0.001 N 
ATOM     30  N   UNL     1      23.243  28.587  16.076  1.00  0.00    -0.003 NA
ENDBRANCH  27  28
ENDBRANCH  26  27
ENDBRANCH  25  26
ENDBRANCH  19  25
BRANCH  20  31
ATOM     31  O   UNL     1      28.899  30.362  15.381  1.00  0.00    -0.387 OA
ATOM     32  H   UNL     1      29.338  31.185  15.640  1.00  0.00     0.211 HD
ENDBRANCH  20  31
BRANCH  21  33
ATOM     33  O   UNL     1      25.996  29.538  17.300  1.00  0.00    -0.385 OA
ATOM     34  H   UNL     1      26.329  30.081  18.058  1.00  0.00     0.211 HD
ENDBRANCH  21  33
ENDBRANCH  15  16
ENDBRANCH  10  15
BRANCH  12  35
ATOM     35  O   UNL     1      27.595  29.252  22.027  1.00  0.00    -0.385 OA
ATOM     36  H   UNL     1      26.678  29.610  22.140  1.00  0.00     0.211 HD
ENDBRANCH  12  35
BRANCH  13  37
ATOM     37  O   UNL     1      28.569  26.698  19.725  1.00  0.00    -0.387 OA
ATOM     38  H   UNL     1      29.368  26.631  19.181  1.00  0.00     0.211 HD
ENDBRANCH  13  37
BRANCH  14  39
ATOM     39  O   UNL     1      30.947  27.159  20.301  1.00  0.00    -0.387 OA
ATOM     40  H   UNL     1      31.097  26.301  20.744  1.00  0.00     0.211 HD
ENDBRANCH  14  39
ENDBRANCH   8   9
ENDBRANCH   7   8
ENDBRANCH   1   7
BRANCH   1  41
ATOM     41  C   UNL     1      32.285  31.257  23.755  1.00  0.00     0.364 C 
ATOM     42  O   UNL     1      31.450  30.560  24.379  1.00  0.00    -0.246 OA
BRANCH  41  43
ATOM     43  O   UNL     1      32.598  32.485  24.303  1.00  0.00    -0.477 OA
ATOM     44  H   UNL     1      32.349  32.684  25.280  1.00  0.00     0.296 HD
ENDBRANCH  41  43
ENDBRANCH   1  41
BRANCH   3  45
ATOM     45  O   UNL     1      36.473  31.693  22.449  1.00  0.00    -0.391 OA
ATOM     46  H   UNL     1      37.277  31.573  22.986  1.00  0.00     0.211 HD
ENDBRANCH   3  45
BRANCH   5  47
ATOM     47  C   UNL     1      34.228  27.558  23.503  1.00  0.00     0.176 C 
BRANCH  47  48
ATOM     48  O   UNL     1      33.354  27.009  22.566  1.00  0.00    -0.388 OA
ATOM     49  H   UNL     1      33.780  26.258  22.091  1.00  0.00     0.211 HD
ENDBRANCH  47  48
BRANCH  47  50
ATOM     50  C   UNL     1      33.929  26.962  24.826  1.00  0.00     0.165 C 
BRANCH  50  51
ATOM     51  O   UNL     1      33.941  25.560  24.811  1.00  0.00    -0.388 OA
ATOM     52  H   UNL     1      33.261  25.171  24.241  1.00  0.00     0.211 HD
ENDBRANCH  50  51
BRANCH  50  53
ATOM     53  C   UNL     1      32.705  27.479  25.525  1.00  0.00     0.154 C 
BRANCH  53  54
ATOM     54  N   UNL     1      31.535  27.319  24.702  1.00  0.00    -0.319 N 
ATOM     55  C   UNL     1      30.715  26.175  24.848  1.00  0.00     0.407 C 
ATOM     56  H   UNL     1      31.287  28.068  23.976  1.00  0.00     0.167 HD
ATOM     57  O   UNL     1      30.953  25.269  25.677  1.00  0.00    -0.225 OA
BRANCH  55  58
ATOM     58  O   UNL     1      29.575  25.999  24.056  1.00  0.00    -0.443 OA
BRANCH  58  59
ATOM     59  C   UNL     1      28.335  25.811  24.675  1.00  0.00     0.294 C 
BRANCH  59  60
ATOM     60  C   UNL     1      27.174  26.295  23.939  1.00  0.00     0.121 A 
ATOM     61  C   UNL     1      26.593  25.715  22.839  1.00  0.00     0.146 A 
ATOM     62  N   UNL     1      26.456  27.402  24.195  1.00  0.00    -0.131 NA
ATOM     63  N   UNL     1      25.547  26.476  22.457  1.00  0.00    -0.202 N 
ATOM     64  N   UNL     1      25.499  27.487  23.304  1.00  0.00    -0.061 NA
BRANCH  63  65
ATOM     65  C   UNL     1      24.704  26.196  21.350  1.00  0.00     0.155 A 
ATOM     66  C   UNL     1      23.913  25.053  21.304  1.00  0.00     0.049 A 
ATOM     67  N   UNL     1      24.645  27.025  20.295  1.00  0.00    -0.237 NA
ATOM     68  C   UNL     1      23.101  24.791  20.209  1.00  0.00     0.011 A 
ATOM     69  C   UNL     1      23.859  26.790  19.217  1.00  0.00     0.119 A 
ATOM     70  C   UNL     1      23.061  25.660  19.141  1.00  0.00    -0.004 A 
BRANCH  70  71
ATOM     71  C   UNL     1      22.191  25.373  17.970  1.00  0.00     0.193 C 
BRANCH  71  72
ATOM     72  O   UNL     1      22.850  25.666  16.777  1.00  0.00    -0.392 OA
ATOM     73  H   UNL     1      22.346  25.377  15.989  1.00  0.00     0.211 HD
ENDBRANCH  71  72
ENDBRANCH  70  71
ENDBRANCH  63  65
ENDBRANCH  59  60
ENDBRANCH  58  59
ENDBRANCH  55  58
ENDBRANCH  53  54
ENDBRANCH  50  53
ENDBRANCH  47  50
ENDBRANCH   5  47
BRANCH   4  74
ATOM     74  N   UNL     1      36.488  29.362  24.108  1.00  0.00    -0.348 N 
ATOM     75  C   UNL     1      37.817  29.154  23.749  1.00  0.00     0.217 C 
ATOM     76  H   UNL     1      36.205  29.279  25.105  1.00  0.00     0.163 HD
ATOM     77  C   UNL     1      38.782  28.794  24.856  1.00  0.00     0.114 C 
ATOM     78  O   UNL     1      38.248  29.245  22.591  1.00  0.00    -0.275 OA
ENDBRANCH   4  74
TORSDOF 32
BEGIN_RES LYS A 131
REMARK  4 active torsions:
REMARK  status: ('A' for Active; 'I' for Inactive)
REMARK    1  A    between atoms: CA   and  CB  
REMARK    2  A    between atoms: CB   and  CG  
REMARK    3  A    between atoms: CG   and  CD  
REMARK    4  A    between atoms: CD   and  CE  
ROOT
ATOM      1  CA  LYS A 131      29.867  25.555  16.977  1.00 20.52     0.186 C 
ENDROOT
BRANCH   1   2
ATOM      2  CB  LYS A 131      28.345  25.722  17.026  1.00 20.94     0.034 C 
BRANCH   2   3
ATOM      3  CG  LYS A 131      27.602  24.398  16.933  1.00 22.96     0.005 C 
BRANCH   3   4
ATOM      4  CD  LYS A 131      26.189  24.505  17.435  1.00 24.33     0.041 C 
BRANCH   4   5
ATOM      5  CE  LYS A 131      25.850  23.273  18.268  1.00 26.91     0.338 C 
ATOM      6  NZ  LYS A 131      24.701  22.548  17.678  1.00 27.40     0.618 N 
ENDBRANCH   4   5
ENDBRANCH   3   4
ENDBRANCH   2   3
ENDBRANCH   1   2
END_RES LYS A 131
BEGIN_RES LYS A 135
REMARK  4 active torsions:
REMARK  status: ('A' for Active; 'I' for Inactive)
REMARK    5  A    between atoms: CA   and  CB  
REMARK    6  A    between atoms: CB   and  CG  
REMARK    7  A    between atoms: CG   and  CD  
REMARK    8  A    between atoms: CD   and  CE  
ROOT
ATOM      7  CA  LYS A 135      33.193  34.663   9.290  1.00 25.02     0.186 C 
ENDROOT
BRANCH   7   8
ATOM      8  CB  LYS A 135      32.060  35.360  10.034  1.00 26.63     0.034 C 
BRANCH   8   9
ATOM      9  CG  LYS A 135      30.802  35.506   9.217  1.00 29.45     0.005 C 
BRANCH   9  10
ATOM     10  CD  LYS A 135      30.172  34.147   8.956  1.00 32.00     0.041 C 
BRANCH  10  11
ATOM     11  CE  LYS A 135      28.695  34.296   8.645  1.00 34.25     0.338 C 
ATOM     12  NZ  LYS A 135      27.856  33.763   9.754  1.00 35.99     0.618 N 
ENDBRANCH  10  11
ENDBRANCH   9  10
ENDBRANCH   8   9
ENDBRANCH   7   8
END_RES LYS A 135
