REMARK VINA RESULT:    -4.425      2.418      8.811
REMARK INTER + INTRA:         -22.462
REMARK INTER:                 -10.971
REMARK INTRA:                 -11.491
REMARK UNBOUND:               -11.571
REMARK SMILES CC(=O)N[C@@H]1[C@@H](O)C[C@](OC[C@H]2O[C@@H](O[C@H]3[C@H](O)[C@@H](O)[C@H](OCCN=[N+]=[N-])O[C@@H]3CO)[C@H](O)[C@@H](O)[C@H]2O)(C(=O)O)O[C@H]1C(O)[C@H](O)CNC(=O)OCc1cn(-c2ccc3[nH]ncc3c2)nn1
REMARK SMILES IDX 9 1 8 2 6 3 5 4 42 5 41 6 10 7 11 8 12 9 14 10 13 11 32 12
REMARK SMILES IDX 34 13 36 14 15 15 16 16 29 17 28 18 21 19 17 20 19 21 30 22
REMARK SMILES IDX 31 23 22 25 23 26 24 27 25 28 26 29 27 30 18 31 20 33 33 35
REMARK SMILES IDX 35 37 37 39 38 41 39 42 40 43 7 45 43 47 44 48 45 50 46 51
REMARK SMILES IDX 47 53 48 54 49 55 50 57 51 58 52 59 53 60 54 61 66 62 55 63
REMARK SMILES IDX 65 64 56 65 57 66 64 67 58 68 63 69 59 70 62 71 60 72 61 73
REMARK SMILES IDX 4 75 2 76 1 78 3 79
REMARK H PARENT 31 24 18 32 20 34 33 36 35 38 37 40 40 44 7 46 44 49 46 52
REMARK H PARENT 48 56 60 74 4 77
REMARK Flexibility Score: inf
ROOT
ATOM      1  C   UNL     1      31.256  34.560  16.119  1.00  0.00     0.272 C 
ATOM      2  C   UNL     1      31.786  35.930  15.895  1.00  0.00     0.113 C 
ATOM      3  C   UNL     1      31.508  36.518  14.536  1.00  0.00     0.145 C 
ATOM      4  C   UNL     1      29.961  36.510  14.416  1.00  0.00     0.142 C 
ATOM      5  C   UNL     1      29.567  35.101  14.639  1.00  0.00     0.178 C 
ATOM      6  O   UNL     1      29.901  34.506  15.806  1.00  0.00    -0.332 OA
ENDROOT
BRANCH   1   7
ATOM      7  O   UNL     1      31.403  34.250  17.489  1.00  0.00    -0.338 OA
BRANCH   7   8
ATOM      8  C   UNL     1      30.275  33.838  18.117  1.00  0.00     0.199 C 
BRANCH   8   9
ATOM      9  C   UNL     1      30.374  32.364  18.573  1.00  0.00     0.179 C 
ATOM     10  C   UNL     1      29.685  31.499  20.608  1.00  0.00     0.282 C 
ATOM     11  O   UNL     1      30.625  32.276  19.909  1.00  0.00    -0.341 OA
ATOM     12  C   UNL     1      28.371  32.196  20.463  1.00  0.00     0.202 C 
ATOM     13  C   UNL     1      27.937  32.001  19.003  1.00  0.00     0.179 C 
ATOM     14  C   UNL     1      29.118  31.628  18.148  1.00  0.00     0.177 C 
BRANCH  10  15
ATOM     15  O   UNL     1      30.119  31.310  21.908  1.00  0.00    -0.341 OA
BRANCH  15  16
ATOM     16  C   UNL     1      30.613  30.021  22.053  1.00  0.00     0.184 C 
ATOM     17  C   UNL     1      32.002  29.819  21.526  1.00  0.00     0.178 C 
ATOM     18  O   UNL     1      32.447  28.577  21.779  1.00  0.00    -0.341 OA
ATOM     19  C   UNL     1      31.594  27.563  22.079  1.00  0.00     0.281 C 
ATOM     20  C   UNL     1      29.770  29.054  21.198  1.00  0.00     0.180 C 
ATOM     21  C   UNL     1      30.208  27.673  21.545  1.00  0.00     0.202 C 
BRANCH  17  22
ATOM     22  C   UNL     1      33.012  30.829  22.030  1.00  0.00     0.191 C 
BRANCH  22  23
ATOM     23  O   UNL     1      32.862  32.063  21.425  1.00  0.00    -0.394 OA
ATOM     24  H   UNL     1      33.741  32.251  20.975  1.00  0.00     0.210 HD
ENDBRANCH  22  23
ENDBRANCH  17  22
BRANCH  19  25
ATOM     25  O   UNL     1      31.580  27.423  23.445  1.00  0.00    -0.350 OA
BRANCH  25  26
ATOM     26  C   UNL     1      30.476  26.879  24.002  1.00  0.00     0.169 C 
BRANCH  26  27
ATOM     27  C   UNL     1      30.042  27.524  25.279  1.00  0.00     0.119 C 
BRANCH  27  28
ATOM     28  N   UNL     1      28.627  27.646  25.462  1.00  0.00    -0.092 NA
ATOM     29  N   UNL     1      27.863  28.039  24.602  1.00  0.00     0.001 N 
ATOM     30  N   UNL     1      27.138  28.759  23.880  1.00  0.00    -0.003 NA
ENDBRANCH  27  28
ENDBRANCH  26  27
ENDBRANCH  25  26
ENDBRANCH  19  25
BRANCH  20  31
ATOM     31  O   UNL     1      28.428  29.248  21.383  1.00  0.00    -0.387 OA
ATOM     32  H   UNL     1      27.908  28.407  21.468  1.00  0.00     0.211 HD
ENDBRANCH  20  31
BRANCH  21  33
ATOM     33  O   UNL     1      30.039  26.882  20.394  1.00  0.00    -0.385 OA
ATOM     34  H   UNL     1      29.101  26.901  20.074  1.00  0.00     0.211 HD
ENDBRANCH  21  33
ENDBRANCH  15  16
ENDBRANCH  10  15
BRANCH  12  35
ATOM     35  O   UNL     1      27.382  31.803  21.328  1.00  0.00    -0.385 OA
ATOM     36  H   UNL     1      27.553  32.123  22.266  1.00  0.00     0.211 HD
ENDBRANCH  12  35
BRANCH  13  37
ATOM     37  O   UNL     1      27.207  33.074  18.534  1.00  0.00    -0.387 OA
ATOM     38  H   UNL     1      27.494  33.876  19.065  1.00  0.00     0.211 HD
ENDBRANCH  13  37
BRANCH  14  39
ATOM     39  O   UNL     1      28.812  32.062  16.833  1.00  0.00    -0.387 OA
ATOM     40  H   UNL     1      29.602  32.294  16.322  1.00  0.00     0.211 HD
ENDBRANCH  14  39
ENDBRANCH   8   9
ENDBRANCH   7   8
ENDBRANCH   1   7
BRANCH   1  41
ATOM     41  C   UNL     1      31.898  33.507  15.287  1.00  0.00     0.364 C 
ATOM     42  O   UNL     1      32.980  33.826  14.692  1.00  0.00    -0.246 OA
BRANCH  41  43
ATOM     43  O   UNL     1      31.459  32.235  15.082  1.00  0.00    -0.477 OA
ATOM     44  H   UNL     1      30.808  31.754  15.704  1.00  0.00     0.296 HD
ENDBRANCH  41  43
ENDBRANCH   1  41
BRANCH   3  45
ATOM     45  O   UNL     1      31.977  37.818  14.519  1.00  0.00    -0.391 OA
ATOM     46  H   UNL     1      32.908  37.874  14.146  1.00  0.00     0.211 HD
ENDBRANCH   3  45
BRANCH   5  47
ATOM     47  C   UNL     1      28.156  34.844  14.202  1.00  0.00     0.176 C 
BRANCH  47  48
ATOM     48  O   UNL     1      27.909  33.491  14.637  1.00  0.00    -0.388 OA
ATOM     49  H   UNL     1      28.752  33.045  14.855  1.00  0.00     0.211 HD
ENDBRANCH  47  48
BRANCH  47  50
ATOM     50  C   UNL     1      27.096  35.661  14.898  1.00  0.00     0.165 C 
BRANCH  50  51
ATOM     51  O   UNL     1      26.751  34.908  16.055  1.00  0.00    -0.388 OA
ATOM     52  H   UNL     1      26.565  33.976  15.846  1.00  0.00     0.211 HD
ENDBRANCH  50  51
BRANCH  50  53
ATOM     53  C   UNL     1      25.864  35.925  14.118  1.00  0.00     0.154 C 
BRANCH  53  54
ATOM     54  N   UNL     1      24.930  34.866  13.969  1.00  0.00    -0.319 N 
ATOM     55  C   UNL     1      24.843  33.941  12.902  1.00  0.00     0.407 C 
ATOM     56  H   UNL     1      24.195  34.720  14.733  1.00  0.00     0.167 HD
ATOM     57  O   UNL     1      25.635  33.973  11.955  1.00  0.00    -0.225 OA
BRANCH  55  58
ATOM     58  O   UNL     1      23.849  32.966  12.906  1.00  0.00    -0.443 OA
BRANCH  58  59
ATOM     59  C   UNL     1      24.020  31.625  13.251  1.00  0.00     0.294 C 
BRANCH  59  60
ATOM     60  C   UNL     1      24.728  31.396  14.518  1.00  0.00     0.121 A 
ATOM     61  C   UNL     1      24.911  30.184  15.145  1.00  0.00     0.144 A 
ATOM     62  N   UNL     1      25.309  32.338  15.290  1.00  0.00    -0.131 NA
ATOM     63  N   UNL     1      25.593  30.454  16.261  1.00  0.00    -0.220 N 
ATOM     64  N   UNL     1      25.822  31.752  16.329  1.00  0.00    -0.062 NA
BRANCH  63  65
ATOM     65  C   UNL     1      25.999  29.479  17.221  1.00  0.00     0.067 A 
ATOM     66  C   UNL     1      27.084  28.664  16.991  1.00  0.00     0.030 A 
ATOM     67  C   UNL     1      25.303  29.334  18.400  1.00  0.00     0.040 A 
ATOM     68  C   UNL     1      27.471  27.724  17.915  1.00  0.00     0.030 A 
ATOM     69  C   UNL     1      25.709  28.376  19.327  1.00  0.00     0.022 A 
ATOM     70  C   UNL     1      26.798  27.550  19.109  1.00  0.00     0.065 A 
ATOM     71  C   UNL     1      25.187  28.048  20.556  1.00  0.00     0.143 A 
ATOM     72  N   UNL     1      26.924  26.748  20.180  1.00  0.00    -0.278 N 
ATOM     73  N   UNL     1      25.966  27.058  21.023  1.00  0.00    -0.183 NA
ATOM     74  H   UNL     1      27.668  26.017  20.291  1.00  0.00     0.190 HD
ENDBRANCH  63  65
ENDBRANCH  59  60
ENDBRANCH  58  59
ENDBRANCH  55  58
ENDBRANCH  53  54
ENDBRANCH  50  53
ENDBRANCH  47  50
ENDBRANCH   5  47
BRANCH   4  75
ATOM     75  N   UNL     1      29.755  36.850  13.004  1.00  0.00    -0.348 N 
ATOM     76  C   UNL     1      29.006  37.984  12.682  1.00  0.00     0.217 C 
ATOM     77  H   UNL     1      30.145  36.273  12.240  1.00  0.00     0.163 HD
ATOM     78  C   UNL     1      28.745  38.397  11.263  1.00  0.00     0.114 C 
ATOM     79  O   UNL     1      28.527  38.705  13.617  1.00  0.00    -0.275 OA
ENDBRANCH   4  75
TORSDOF 30
BEGIN_RES LYS A 131
REMARK  4 active torsions:
REMARK  status: ('A' for Active; 'I' for Inactive)
REMARK    1  A    between atoms: CA   and  CB  
REMARK    2  A    between atoms: CB   and  CG  
REMARK    3  A    between atoms: CG   and  CD  
REMARK    4  A    between atoms: CD   and  CE  
ROOT
ATOM      1  CA  LYS A 131      29.867  25.555  16.977  1.00 20.52     0.186 C 
ENDROOT
BRANCH   1   2
ATOM      2  CB  LYS A 131      28.345  25.722  17.026  1.00 20.94     0.034 C 
BRANCH   2   3
ATOM      3  CG  LYS A 131      27.599  24.432  16.720  1.00 22.96     0.005 C 
BRANCH   3   4
ATOM      4  CD  LYS A 131      26.713  24.007  17.859  1.00 24.33     0.041 C 
BRANCH   4   5
ATOM      5  CE  LYS A 131      25.258  24.016  17.402  1.00 26.91     0.338 C 
ATOM      6  NZ  LYS A 131      24.477  25.009  18.177  1.00 27.40     0.618 N 
ENDBRANCH   4   5
ENDBRANCH   3   4
ENDBRANCH   2   3
ENDBRANCH   1   2
END_RES LYS A 131
BEGIN_RES LYS A 135
REMARK  4 active torsions:
REMARK  status: ('A' for Active; 'I' for Inactive)
REMARK    5  A    between atoms: CA   and  CB  
REMARK    6  A    between atoms: CB   and  CG  
REMARK    7  A    between atoms: CG   and  CD  
REMARK    8  A    between atoms: CD   and  CE  
ROOT
ATOM      7  CA  LYS A 135      33.193  34.663   9.290  1.00 25.02     0.186 C 
ENDROOT
BRANCH   7   8
ATOM      8  CB  LYS A 135      32.060  35.360  10.034  1.00 26.63     0.034 C 
BRANCH   8   9
ATOM      9  CG  LYS A 135      30.856  35.640   9.172  1.00 29.45     0.005 C 
BRANCH   9  10
ATOM     10  CD  LYS A 135      30.106  34.353   8.863  1.00 32.00     0.041 C 
BRANCH  10  11
ATOM     11  CE  LYS A 135      28.849  34.647   8.068  1.00 34.25     0.338 C 
ATOM     12  NZ  LYS A 135      27.632  34.217   8.812  1.00 35.99     0.618 N 
ENDBRANCH  10  11
ENDBRANCH   9  10
ENDBRANCH   8   9
ENDBRANCH   7   8
END_RES LYS A 135
