REMARK VINA RESULT:    -4.890      4.064     10.793
REMARK INTER + INTRA:         -22.980
REMARK INTER:                 -10.817
REMARK INTRA:                 -12.163
REMARK UNBOUND:               -10.516
REMARK SMILES CC(=O)N[C@@H]1[C@@H](O)C[C@](OC[C@H]2O[C@@H](O[C@H]3[C@H](O)[C@@H](O)[C@H](OCCN=[N+]=[N-])O[C@@H]3CO)[C@H](O)[C@@H](O)[C@H]2O)(C(=O)O)O[C@H]1C(O)[C@H](O)CNC(=O)OCc1cn(C(C)(C)C(=O)O)nn1
REMARK SMILES IDX 9 1 8 2 6 3 5 4 42 5 41 6 10 7 11 8 12 9 14 10 13 11 32 12
REMARK SMILES IDX 34 13 36 14 15 15 16 16 29 17 28 18 21 19 17 20 19 21 30 22
REMARK SMILES IDX 31 23 22 25 23 26 24 27 25 28 26 29 27 30 18 31 20 33 33 35
REMARK SMILES IDX 35 37 37 39 38 41 39 42 40 43 7 45 43 47 44 48 45 50 46 51
REMARK SMILES IDX 47 53 48 54 49 55 50 57 51 58 52 59 53 60 54 61 63 62 55 63
REMARK SMILES IDX 62 64 56 65 57 66 58 67 59 68 60 69 61 70 4 72 2 73 1 75
REMARK SMILES IDX 3 76
REMARK H PARENT 31 24 18 32 20 34 33 36 35 38 37 40 40 44 7 46 44 49 46 52
REMARK H PARENT 48 56 61 71 4 74
REMARK Flexibility Score: inf
ROOT
ATOM      1  C   UNL     1      28.832  31.750  16.566  1.00  0.00     0.272 C 
ATOM      2  C   UNL     1      30.028  31.633  15.714  1.00  0.00     0.113 C 
ATOM      3  C   UNL     1      30.778  32.915  15.489  1.00  0.00     0.145 C 
ATOM      4  C   UNL     1      29.850  34.084  15.627  1.00  0.00     0.142 C 
ATOM      5  C   UNL     1      28.465  33.563  15.200  1.00  0.00     0.178 C 
ATOM      6  O   UNL     1      27.980  32.812  16.247  1.00  0.00    -0.332 OA
ENDROOT
BRANCH   1   7
ATOM      7  O   UNL     1      29.083  31.811  17.902  1.00  0.00    -0.338 OA
BRANCH   7   8
ATOM      8  C   UNL     1      29.938  30.904  18.447  1.00  0.00     0.199 C 
BRANCH   8   9
ATOM      9  C   UNL     1      29.521  30.527  19.851  1.00  0.00     0.179 C 
ATOM     10  C   UNL     1      27.685  29.783  21.036  1.00  0.00     0.282 C 
ATOM     11  O   UNL     1      28.273  29.919  19.726  1.00  0.00    -0.341 OA
ATOM     12  C   UNL     1      28.472  28.741  21.735  1.00  0.00     0.202 C 
ATOM     13  C   UNL     1      29.732  28.358  20.960  1.00  0.00     0.179 C 
ATOM     14  C   UNL     1      30.482  29.595  20.489  1.00  0.00     0.177 C 
BRANCH  10  15
ATOM     15  O   UNL     1      26.371  29.542  20.768  1.00  0.00    -0.341 OA
BRANCH  15  16
ATOM     16  C   UNL     1      26.041  29.501  19.425  1.00  0.00     0.184 C 
ATOM     17  C   UNL     1      24.714  30.159  19.212  1.00  0.00     0.178 C 
ATOM     18  O   UNL     1      24.115  29.732  18.017  1.00  0.00    -0.341 OA
ATOM     19  C   UNL     1      23.627  28.436  18.096  1.00  0.00     0.281 C 
ATOM     20  C   UNL     1      25.912  28.053  18.951  1.00  0.00     0.180 C 
ATOM     21  C   UNL     1      24.473  27.613  19.043  1.00  0.00     0.202 C 
BRANCH  17  22
ATOM     22  C   UNL     1      24.860  31.681  19.041  1.00  0.00     0.191 C 
BRANCH  22  23
ATOM     23  O   UNL     1      26.191  31.940  18.785  1.00  0.00    -0.394 OA
ATOM     24  H   UNL     1      26.247  32.740  18.183  1.00  0.00     0.210 HD
ENDBRANCH  22  23
ENDBRANCH  17  22
BRANCH  19  25
ATOM     25  O   UNL     1      23.674  27.923  16.800  1.00  0.00    -0.350 OA
BRANCH  25  26
ATOM     26  C   UNL     1      23.120  26.678  16.651  1.00  0.00     0.169 C 
BRANCH  26  27
ATOM     27  C   UNL     1      22.362  26.706  15.317  1.00  0.00     0.119 C 
BRANCH  27  28
ATOM     28  N   UNL     1      20.932  26.793  15.505  1.00  0.00    -0.092 NA
ATOM     29  N   UNL     1      20.220  26.983  14.508  1.00  0.00     0.001 N 
ATOM     30  N   UNL     1      19.568  27.407  13.563  1.00  0.00    -0.003 NA
ENDBRANCH  27  28
ENDBRANCH  26  27
ENDBRANCH  25  26
ENDBRANCH  19  25
BRANCH  20  31
ATOM     31  O   UNL     1      26.300  27.969  17.618  1.00  0.00    -0.387 OA
ATOM     32  H   UNL     1      25.799  28.586  17.029  1.00  0.00     0.211 HD
ENDBRANCH  20  31
BRANCH  21  33
ATOM     33  O   UNL     1      24.060  27.757  20.362  1.00  0.00    -0.385 OA
ATOM     34  H   UNL     1      23.846  28.688  20.609  1.00  0.00     0.211 HD
ENDBRANCH  21  33
ENDBRANCH  15  16
ENDBRANCH  10  15
BRANCH  12  35
ATOM     35  O   UNL     1      28.957  29.291  22.943  1.00  0.00    -0.385 OA
ATOM     36  H   UNL     1      28.263  29.519  23.579  1.00  0.00     0.211 HD
ENDBRANCH  12  35
BRANCH  13  37
ATOM     37  O   UNL     1      29.414  27.522  19.906  1.00  0.00    -0.387 OA
ATOM     38  H   UNL     1      29.570  26.575  20.154  1.00  0.00     0.211 HD
ENDBRANCH  13  37
BRANCH  14  39
ATOM     39  O   UNL     1      31.441  29.164  19.587  1.00  0.00    -0.387 OA
ATOM     40  H   UNL     1      32.153  28.691  20.106  1.00  0.00     0.211 HD
ENDBRANCH  14  39
ENDBRANCH   8   9
ENDBRANCH   7   8
ENDBRANCH   1   7
BRANCH   1  41
ATOM     41  C   UNL     1      27.962  30.524  16.263  1.00  0.00     0.364 C 
ATOM     42  O   UNL     1      26.718  30.632  16.210  1.00  0.00    -0.246 OA
BRANCH  41  43
ATOM     43  O   UNL     1      28.529  29.283  16.045  1.00  0.00    -0.477 OA
ATOM     44  H   UNL     1      28.945  28.718  16.768  1.00  0.00     0.296 HD
ENDBRANCH  41  43
ENDBRANCH   1  41
BRANCH   3  45
ATOM     45  O   UNL     1      31.784  33.023  16.425  1.00  0.00    -0.391 OA
ATOM     46  H   UNL     1      32.559  33.548  16.094  1.00  0.00     0.211 HD
ENDBRANCH   3  45
BRANCH   5  47
ATOM     47  C   UNL     1      27.530  34.691  14.870  1.00  0.00     0.176 C 
BRANCH  47  48
ATOM     48  O   UNL     1      27.119  34.580  13.544  1.00  0.00    -0.388 OA
ATOM     49  H   UNL     1      26.294  34.014  13.474  1.00  0.00     0.211 HD
ENDBRANCH  47  48
BRANCH  47  50
ATOM     50  C   UNL     1      26.302  34.615  15.748  1.00  0.00     0.165 C 
BRANCH  50  51
ATOM     51  O   UNL     1      25.492  33.531  15.384  1.00  0.00    -0.388 OA
ATOM     52  H   UNL     1      25.826  32.732  15.848  1.00  0.00     0.211 HD
ENDBRANCH  50  51
BRANCH  50  53
ATOM     53  C   UNL     1      25.468  35.868  15.697  1.00  0.00     0.154 C 
BRANCH  53  54
ATOM     54  N   UNL     1      24.779  35.995  14.436  1.00  0.00    -0.319 N 
ATOM     55  C   UNL     1      23.366  36.036  14.363  1.00  0.00     0.407 C 
ATOM     56  H   UNL     1      25.320  36.059  13.551  1.00  0.00     0.167 HD
ATOM     57  O   UNL     1      22.641  35.966  15.388  1.00  0.00    -0.225 OA
BRANCH  55  58
ATOM     58  O   UNL     1      22.707  36.156  13.131  1.00  0.00    -0.443 OA
BRANCH  58  59
ATOM     59  C   UNL     1      23.193  35.403  12.015  1.00  0.00     0.294 C 
BRANCH  59  60
ATOM     60  C   UNL     1      23.497  34.024  12.397  1.00  0.00     0.120 A 
ATOM     61  C   UNL     1      22.590  33.024  12.632  1.00  0.00     0.139 A 
ATOM     62  N   UNL     1      24.713  33.503  12.585  1.00  0.00    -0.132 NA
ATOM     63  N   UNL     1      23.270  31.908  12.960  1.00  0.00    -0.235 N 
ATOM     64  N   UNL     1      24.562  32.249  12.918  1.00  0.00    -0.066 NA
BRANCH  63  65
ATOM     65  C   UNL     1      22.771  30.590  13.296  1.00  0.00     0.155 C 
ATOM     66  C   UNL     1      23.675  29.531  12.738  1.00  0.00     0.049 C 
ATOM     67  C   UNL     1      21.379  30.375  12.713  1.00  0.00     0.049 C 
BRANCH  65  68
ATOM     68  C   UNL     1      22.659  30.509  14.770  1.00  0.00     0.331 C 
ATOM     69  O   UNL     1      21.589  30.141  15.279  1.00  0.00    -0.250 OA
BRANCH  68  70
ATOM     70  O   UNL     1      23.754  30.847  15.546  1.00  0.00    -0.479 OA
ATOM     71  H   UNL     1      24.265  30.169  16.099  1.00  0.00     0.296 HD
ENDBRANCH  68  70
ENDBRANCH  65  68
ENDBRANCH  63  65
ENDBRANCH  59  60
ENDBRANCH  58  59
ENDBRANCH  55  58
ENDBRANCH  53  54
ENDBRANCH  50  53
ENDBRANCH  47  50
ENDBRANCH   5  47
BRANCH   4  72
ATOM     72  N   UNL     1      30.165  35.157  14.720  1.00  0.00    -0.348 N 
ATOM     73  C   UNL     1      31.186  36.123  14.952  1.00  0.00     0.217 C 
ATOM     74  H   UNL     1      29.619  35.233  13.840  1.00  0.00     0.163 HD
ATOM     75  C   UNL     1      31.448  37.208  13.957  1.00  0.00     0.114 C 
ATOM     76  O   UNL     1      31.869  36.055  16.007  1.00  0.00    -0.275 OA
ENDBRANCH   4  72
TORSDOF 32
BEGIN_RES LYS A 131
REMARK  4 active torsions:
REMARK  status: ('A' for Active; 'I' for Inactive)
REMARK    1  A    between atoms: CA   and  CB  
REMARK    2  A    between atoms: CB   and  CG  
REMARK    3  A    between atoms: CG   and  CD  
REMARK    4  A    between atoms: CD   and  CE  
ROOT
ATOM      1  CA  LYS A 131      29.867  25.555  16.977  1.00 20.52     0.186 C 
ENDROOT
BRANCH   1   2
ATOM      2  CB  LYS A 131      28.345  25.722  17.026  1.00 20.94     0.034 C 
BRANCH   2   3
ATOM      3  CG  LYS A 131      27.602  24.400  16.909  1.00 22.96     0.005 C 
BRANCH   3   4
ATOM      4  CD  LYS A 131      26.167  24.517  17.343  1.00 24.33     0.041 C 
BRANCH   4   5
ATOM      5  CE  LYS A 131      25.918  23.597  18.534  1.00 26.91     0.338 C 
ATOM      6  NZ  LYS A 131      24.694  24.009  19.261  1.00 27.40     0.618 N 
ENDBRANCH   4   5
ENDBRANCH   3   4
ENDBRANCH   2   3
ENDBRANCH   1   2
END_RES LYS A 131
BEGIN_RES LYS A 135
REMARK  4 active torsions:
REMARK  status: ('A' for Active; 'I' for Inactive)
REMARK    5  A    between atoms: CA   and  CB  
REMARK    6  A    between atoms: CB   and  CG  
REMARK    7  A    between atoms: CG   and  CD  
REMARK    8  A    between atoms: CD   and  CE  
ROOT
ATOM      7  CA  LYS A 135      33.193  34.663   9.290  1.00 25.02     0.186 C 
ENDROOT
BRANCH   7   8
ATOM      8  CB  LYS A 135      32.060  35.360  10.034  1.00 26.63     0.034 C 
BRANCH   8   9
ATOM      9  CG  LYS A 135      30.808  35.520   9.211  1.00 29.45     0.005 C 
BRANCH   9  10
ATOM     10  CD  LYS A 135      30.076  34.193   9.084  1.00 32.00     0.041 C 
BRANCH  10  11
ATOM     11  CE  LYS A 135      28.701  34.399   8.478  1.00 34.25     0.338 C 
ATOM     12  NZ  LYS A 135      28.303  35.833   8.526  1.00 35.99     0.618 N 
ENDBRANCH  10  11
ENDBRANCH   9  10
ENDBRANCH   8   9
ENDBRANCH   7   8
END_RES LYS A 135
