REMARK VINA RESULT:    -4.131      2.596      8.051
REMARK INTER + INTRA:         -21.563
REMARK INTER:                  -9.061
REMARK INTRA:                 -12.501
REMARK UNBOUND:               -10.427
REMARK SMILES CCN(CC)CCn1cc(COC(=O)NC[C@@H](O)C(O)[C@@H]2O[C@@](OC[C@H]3O[C@@H](O[C@H]4[C@H](O)[C@@H](O)[C@H](OCCN=[N+]=[N-])O[C@@H]4CO)[C@H](O)[C@@H](O)[C@H]3O)(C(=O)O)C[C@H](O)[C@H]2NC(C)=O)nn1
REMARK SMILES IDX 19 1 21 2 23 3 55 4 22 5 56 6 58 7 24 8 25 9 26 10 28 11
REMARK SMILES IDX 27 12 46 13 48 14 50 15 29 16 30 17 43 18 42 19 35 20 31 21
REMARK SMILES IDX 33 22 44 23 45 24 36 26 37 27 38 28 39 29 40 30 41 31 32 32
REMARK SMILES IDX 34 34 47 36 49 38 51 40 52 42 53 43 54 44 57 46 59 48 60 49
REMARK SMILES IDX 61 51 62 52 20 53 17 55 18 56 16 58 15 59 13 60 14 62 12 63
REMARK SMILES IDX 11 64 10 65 9 66 63 67 8 68 64 69 7 70 6 71 3 72 2 73 1 74
REMARK SMILES IDX 4 75 5 76
REMARK H PARENT 45 25 32 33 34 35 47 37 49 39 51 41 54 45 57 47 59 50 20 54
REMARK H PARENT 18 57 15 61
REMARK Flexibility Score: inf
ROOT
ATOM      1  C   UNL     1      26.559  33.146  19.266  1.00  0.00     0.176 C 
ENDROOT
BRANCH   1   2
ATOM      2  C   UNL     1      27.991  32.784  18.973  1.00  0.00     0.178 C 
ATOM      3  C   UNL     1      29.985  33.595  18.160  1.00  0.00     0.272 C 
ATOM      4  C   UNL     1      30.404  32.215  18.689  1.00  0.00     0.113 C 
ATOM      5  O   UNL     1      28.678  33.873  18.494  1.00  0.00    -0.332 OA
ATOM      6  C   UNL     1      29.538  31.100  18.201  1.00  0.00     0.145 C 
ATOM      7  C   UNL     1      28.139  31.683  17.946  1.00  0.00     0.142 C 
BRANCH   3   8
ATOM      8  O   UNL     1      30.245  33.592  16.810  1.00  0.00    -0.338 OA
BRANCH   8   9
ATOM      9  C   UNL     1      31.563  33.466  16.447  1.00  0.00     0.199 C 
BRANCH   9  10
ATOM     10  C   UNL     1      31.819  34.085  15.061  1.00  0.00     0.179 C 
ATOM     11  C   UNL     1      30.324  34.768  13.378  1.00  0.00     0.282 C 
ATOM     12  O   UNL     1      30.716  33.834  14.325  1.00  0.00    -0.341 OA
ATOM     13  C   UNL     1      31.453  35.575  12.877  1.00  0.00     0.202 C 
ATOM     14  C   UNL     1      32.240  36.267  13.956  1.00  0.00     0.179 C 
ATOM     15  C   UNL     1      32.030  35.553  15.273  1.00  0.00     0.177 C 
BRANCH  11  16
ATOM     16  O   UNL     1      29.253  35.433  13.958  1.00  0.00    -0.341 OA
BRANCH  16  17
ATOM     17  C   UNL     1      28.044  34.883  13.717  1.00  0.00     0.184 C 
ATOM     18  C   UNL     1      27.168  35.743  12.844  1.00  0.00     0.178 C 
ATOM     19  O   UNL     1      25.975  35.012  12.572  1.00  0.00    -0.341 OA
ATOM     20  C   UNL     1      25.143  35.133  13.663  1.00  0.00     0.281 C 
ATOM     21  C   UNL     1      27.244  34.595  14.984  1.00  0.00     0.180 C 
ATOM     22  C   UNL     1      25.858  35.154  14.943  1.00  0.00     0.202 C 
BRANCH  18  23
ATOM     23  C   UNL     1      27.791  36.247  11.594  1.00  0.00     0.191 C 
BRANCH  23  24
ATOM     24  O   UNL     1      28.486  37.411  11.899  1.00  0.00    -0.394 OA
ATOM     25  H   UNL     1      28.349  37.726  12.827  1.00  0.00     0.210 HD
ENDBRANCH  23  24
ENDBRANCH  18  23
BRANCH  20  26
ATOM     26  O   UNL     1      24.076  34.242  13.605  1.00  0.00    -0.350 OA
BRANCH  26  27
ATOM     27  C   UNL     1      23.631  33.797  14.814  1.00  0.00     0.169 C 
BRANCH  27  28
ATOM     28  C   UNL     1      23.457  32.291  14.863  1.00  0.00     0.119 C 
BRANCH  28  29
ATOM     29  N   UNL     1      24.526  31.614  14.155  1.00  0.00    -0.092 NA
ATOM     30  N   UNL     1      24.317  30.753  13.292  1.00  0.00     0.001 N 
ATOM     31  N   UNL     1      24.130  29.631  12.817  1.00  0.00    -0.003 NA
ENDBRANCH  28  29
ENDBRANCH  27  28
ENDBRANCH  26  27
ENDBRANCH  20  26
BRANCH  21  32
ATOM     32  O   UNL     1      27.183  33.225  15.158  1.00  0.00    -0.387 OA
ATOM     33  H   UNL     1      26.932  32.728  14.353  1.00  0.00     0.211 HD
ENDBRANCH  21  32
BRANCH  22  34
ATOM     34  O   UNL     1      25.819  36.464  15.482  1.00  0.00    -0.385 OA
ATOM     35  H   UNL     1      25.956  36.357  16.459  1.00  0.00     0.211 HD
ENDBRANCH  22  34
ENDBRANCH  16  17
ENDBRANCH  11  16
BRANCH  13  36
ATOM     36  O   UNL     1      32.363  34.701  12.213  1.00  0.00    -0.385 OA
ATOM     37  H   UNL     1      31.929  33.865  11.968  1.00  0.00     0.211 HD
ENDBRANCH  13  36
BRANCH  14  38
ATOM     38  O   UNL     1      31.985  37.625  14.059  1.00  0.00    -0.387 OA
ATOM     39  H   UNL     1      32.572  38.082  14.683  1.00  0.00     0.211 HD
ENDBRANCH  14  38
BRANCH  15  40
ATOM     40  O   UNL     1      30.894  36.086  15.869  1.00  0.00    -0.387 OA
ATOM     41  H   UNL     1      31.037  37.053  16.081  1.00  0.00     0.211 HD
ENDBRANCH  15  40
ENDBRANCH   9  10
ENDBRANCH   8   9
ENDBRANCH   3   8
BRANCH   3  42
ATOM     42  C   UNL     1      30.876  34.545  18.871  1.00  0.00     0.364 C 
ATOM     43  O   UNL     1      31.767  34.119  19.682  1.00  0.00    -0.246 OA
BRANCH  42  44
ATOM     44  O   UNL     1      30.828  35.918  18.732  1.00  0.00    -0.477 OA
ATOM     45  H   UNL     1      30.860  36.512  19.554  1.00  0.00     0.296 HD
ENDBRANCH  42  44
ENDBRANCH   3  42
BRANCH   6  46
ATOM     46  O   UNL     1      30.030  30.399  17.128  1.00  0.00    -0.391 OA
ATOM     47  H   UNL     1      29.314  29.785  16.822  1.00  0.00     0.211 HD
ENDBRANCH   6  46
BRANCH   7  48
ATOM     48  N   UNL     1      27.133  30.677  17.997  1.00  0.00    -0.348 N 
ATOM     49  C   UNL     1      26.731  30.052  16.760  1.00  0.00     0.217 C 
ATOM     50  H   UNL     1      26.654  30.339  18.850  1.00  0.00     0.163 HD
ATOM     51  C   UNL     1      25.688  28.997  16.736  1.00  0.00     0.114 C 
ATOM     52  O   UNL     1      27.250  30.380  15.660  1.00  0.00    -0.275 OA
ENDBRANCH   7  48
ENDBRANCH   1   2
BRANCH   1  53
ATOM     53  O   UNL     1      26.022  32.172  20.097  1.00  0.00    -0.388 OA
ATOM     54  H   UNL     1      25.032  32.334  20.199  1.00  0.00     0.211 HD
ENDBRANCH   1  53
BRANCH   1  55
ATOM     55  C   UNL     1      26.585  34.460  20.004  1.00  0.00     0.165 C 
BRANCH  55  56
ATOM     56  O   UNL     1      26.072  34.272  21.292  1.00  0.00    -0.388 OA
ATOM     57  H   UNL     1      26.564  34.868  21.907  1.00  0.00     0.211 HD
ENDBRANCH  55  56
BRANCH  55  58
ATOM     58  C   UNL     1      25.872  35.581  19.343  1.00  0.00     0.154 C 
BRANCH  58  59
ATOM     59  N   UNL     1      26.603  36.208  18.296  1.00  0.00    -0.319 N 
ATOM     60  C   UNL     1      27.647  37.137  18.626  1.00  0.00     0.407 C 
ATOM     61  H   UNL     1      26.403  36.023  17.312  1.00  0.00     0.167 HD
ATOM     62  O   UNL     1      27.915  37.406  19.814  1.00  0.00    -0.225 OA
BRANCH  60  63
ATOM     63  O   UNL     1      28.349  37.731  17.590  1.00  0.00    -0.443 OA
BRANCH  63  64
ATOM     64  C   UNL     1      27.829  38.944  17.022  1.00  0.00     0.294 C 
BRANCH  64  65
ATOM     65  C   UNL     1      28.566  39.202  15.777  1.00  0.00     0.120 A 
ATOM     66  C   UNL     1      28.994  40.472  15.379  1.00  0.00     0.138 A 
ATOM     67  N   UNL     1      28.971  38.378  14.814  1.00  0.00    -0.132 NA
ATOM     68  N   UNL     1      29.636  40.361  14.202  1.00  0.00    -0.251 N 
ATOM     69  N   UNL     1      29.608  39.094  13.884  1.00  0.00    -0.067 NA
BRANCH  68  70
ATOM     70  C   UNL     1      30.244  41.423  13.424  1.00  0.00     0.161 C 
BRANCH  70  71
ATOM     71  C   UNL     1      31.204  40.785  12.444  1.00  0.00     0.108 C 
BRANCH  71  72
ATOM     72  N   UNL     1      30.827  40.970  11.073  1.00  0.00    -0.302 NA
BRANCH  72  73
ATOM     73  C   UNL     1      29.743  41.903  10.927  1.00  0.00     0.081 C 
ATOM     74  C   UNL     1      29.756  42.438   9.499  1.00  0.00     0.021 C 
ENDBRANCH  72  73
BRANCH  72  75
ATOM     75  C   UNL     1      30.619  39.741  10.373  1.00  0.00     0.081 C 
ATOM     76  C   UNL     1      31.666  38.714  10.755  1.00  0.00     0.021 C 
ENDBRANCH  72  75
ENDBRANCH  71  72
ENDBRANCH  70  71
ENDBRANCH  68  70
ENDBRANCH  64  65
ENDBRANCH  63  64
ENDBRANCH  60  63
ENDBRANCH  58  59
ENDBRANCH  55  58
ENDBRANCH   1  55
TORSDOF 34
BEGIN_RES LYS A 131
REMARK  4 active torsions:
REMARK  status: ('A' for Active; 'I' for Inactive)
REMARK    1  A    between atoms: CA   and  CB  
REMARK    2  A    between atoms: CB   and  CG  
REMARK    3  A    between atoms: CG   and  CD  
REMARK    4  A    between atoms: CD   and  CE  
ROOT
ATOM      1  CA  LYS A 131      29.867  25.555  16.977  1.00 20.52     0.186 C 
ENDROOT
BRANCH   1   2
ATOM      2  CB  LYS A 131      28.345  25.722  17.026  1.00 20.94     0.034 C 
BRANCH   2   3
ATOM      3  CG  LYS A 131      27.602  24.400  16.916  1.00 22.96     0.005 C 
BRANCH   3   4
ATOM      4  CD  LYS A 131      26.299  24.418  17.666  1.00 24.33     0.041 C 
BRANCH   4   5
ATOM      5  CE  LYS A 131      26.299  25.577  18.657  1.00 26.91     0.338 C 
ATOM      6  NZ  LYS A 131      25.478  25.244  19.845  1.00 27.40     0.618 N 
ENDBRANCH   4   5
ENDBRANCH   3   4
ENDBRANCH   2   3
ENDBRANCH   1   2
END_RES LYS A 131
BEGIN_RES LYS A 135
REMARK  4 active torsions:
REMARK  status: ('A' for Active; 'I' for Inactive)
REMARK    5  A    between atoms: CA   and  CB  
REMARK    6  A    between atoms: CB   and  CG  
REMARK    7  A    between atoms: CG   and  CD  
REMARK    8  A    between atoms: CD   and  CE  
ROOT
ATOM      7  CA  LYS A 135      33.193  34.663   9.290  1.00 25.02     0.186 C 
ENDROOT
BRANCH   7   8
ATOM      8  CB  LYS A 135      32.060  35.360  10.034  1.00 26.63     0.034 C 
BRANCH   8   9
ATOM      9  CG  LYS A 135      30.815  35.539   9.204  1.00 29.45     0.005 C 
BRANCH   9  10
ATOM     10  CD  LYS A 135      30.034  34.237   9.119  1.00 32.00     0.041 C 
BRANCH  10  11
ATOM     11  CE  LYS A 135      28.724  34.448   8.385  1.00 34.25     0.338 C 
ATOM     12  NZ  LYS A 135      28.540  35.880   8.018  1.00 35.99     0.618 N 
ENDBRANCH  10  11
ENDBRANCH   9  10
ENDBRANCH   8   9
ENDBRANCH   7   8
END_RES LYS A 135
