REMARK VINA RESULT:    -4.660      3.117      8.933
REMARK INTER + INTRA:         -23.097
REMARK INTER:                 -12.125
REMARK INTRA:                 -10.973
REMARK UNBOUND:               -10.809
REMARK SMILES COc1ccc(Cn2cc(COC(=O)NC[C@@H](O)C(O)[C@@H]3O[C@@](OC[C@H]4O[C@@H](O[C@H]5[C@H](O)[C@@H](O)[C@H](OCCN=[N+]=[N-])O[C@@H]5CO)[C@H](O)[C@@H](O)[C@H]4O)(C(=O)O)C[C@H](O)[C@H]3NC(C)=O)nn2)cc1OC
REMARK SMILES IDX 23 1 55 2 56 3 58 4 21 5 22 6 24 7 25 8 26 9 28 10 27 11
REMARK SMILES IDX 46 12 48 13 50 14 29 15 30 16 43 17 42 18 35 19 31 20 33 21
REMARK SMILES IDX 44 22 45 23 36 25 37 26 38 27 39 28 40 29 41 30 32 31 34 33
REMARK SMILES IDX 47 35 49 37 51 39 52 41 53 42 54 43 57 45 19 47 20 48 17 50
REMARK SMILES IDX 18 51 16 53 15 54 13 55 14 57 12 58 11 59 10 60 9 61 63 62
REMARK SMILES IDX 8 63 64 64 7 65 6 66 65 67 5 68 66 69 4 70 3 71 67 72 68 73
REMARK SMILES IDX 2 74 1 75 59 76 60 77 61 79 62 80
REMARK H PARENT 45 24 32 32 34 34 47 36 49 38 51 40 54 44 57 46 20 49 18 52
REMARK H PARENT 15 56 59 78
REMARK Flexibility Score: inf
ROOT
ATOM      1  C   UNL     1      28.423  38.144  12.697  1.00  0.00     0.272 C 
ATOM      2  C   UNL     1      27.027  38.699  12.916  1.00  0.00     0.113 C 
ATOM      3  C   UNL     1      25.873  37.979  12.318  1.00  0.00     0.145 C 
ATOM      4  C   UNL     1      26.356  37.110  11.159  1.00  0.00     0.142 C 
ATOM      5  C   UNL     1      27.511  37.829  10.587  1.00  0.00     0.178 C 
ATOM      6  O   UNL     1      28.616  37.640  11.395  1.00  0.00    -0.332 OA
ENDROOT
BRANCH   1   7
ATOM      7  O   UNL     1      28.513  37.079  13.584  1.00  0.00    -0.338 OA
BRANCH   7   8
ATOM      8  C   UNL     1      29.203  35.978  13.178  1.00  0.00     0.199 C 
BRANCH   8   9
ATOM      9  C   UNL     1      30.562  35.923  13.820  1.00  0.00     0.179 C 
ATOM     10  C   UNL     1      31.806  35.147  15.557  1.00  0.00     0.282 C 
ATOM     11  O   UNL     1      30.645  34.860  14.739  1.00  0.00    -0.341 OA
ATOM     12  C   UNL     1      33.020  34.912  14.783  1.00  0.00     0.202 C 
ATOM     13  C   UNL     1      32.947  35.504  13.385  1.00  0.00     0.179 C 
ATOM     14  C   UNL     1      31.607  35.536  12.763  1.00  0.00     0.177 C 
BRANCH  10  15
ATOM     15  O   UNL     1      31.669  34.378  16.694  1.00  0.00    -0.341 OA
BRANCH  15  16
ATOM     16  C   UNL     1      30.528  33.580  16.604  1.00  0.00     0.184 C 
ATOM     17  C   UNL     1      29.778  33.476  17.872  1.00  0.00     0.178 C 
ATOM     18  O   UNL     1      28.540  32.904  17.594  1.00  0.00    -0.341 OA
ATOM     19  C   UNL     1      28.594  31.933  16.659  1.00  0.00     0.281 C 
ATOM     20  C   UNL     1      30.993  32.188  16.162  1.00  0.00     0.180 C 
ATOM     21  C   UNL     1      29.903  31.184  16.559  1.00  0.00     0.202 C 
BRANCH  17  22
ATOM     22  C   UNL     1      29.629  34.800  18.586  1.00  0.00     0.191 C 
BRANCH  22  23
ATOM     23  O   UNL     1      29.261  35.732  17.616  1.00  0.00    -0.394 OA
ATOM     24  H   UNL     1      29.748  36.591  17.792  1.00  0.00     0.210 HD
ENDBRANCH  22  23
ENDBRANCH  17  22
BRANCH  19  25
ATOM     25  O   UNL     1      28.405  32.547  15.369  1.00  0.00    -0.350 OA
BRANCH  25  26
ATOM     26  C   UNL     1      27.023  32.790  15.237  1.00  0.00     0.169 C 
BRANCH  26  27
ATOM     27  C   UNL     1      26.714  34.210  14.798  1.00  0.00     0.119 C 
BRANCH  27  28
ATOM     28  N   UNL     1      26.946  35.099  15.902  1.00  0.00    -0.092 NA
ATOM     29  N   UNL     1      26.158  36.003  16.196  1.00  0.00     0.001 N 
ATOM     30  N   UNL     1      25.297  36.903  16.130  1.00  0.00    -0.003 NA
ENDBRANCH  27  28
ENDBRANCH  26  27
ENDBRANCH  25  26
ENDBRANCH  19  25
BRANCH  20  31
ATOM     31  O   UNL     1      31.056  32.195  14.778  1.00  0.00    -0.387 OA
ATOM     32  H   UNL     1      30.116  32.222  14.425  1.00  0.00     0.211 HD
ENDBRANCH  20  31
BRANCH  21  33
ATOM     33  O   UNL     1      30.232  30.655  17.784  1.00  0.00    -0.385 OA
ATOM     34  H   UNL     1      31.149  30.913  18.075  1.00  0.00     0.211 HD
ENDBRANCH  21  33
ENDBRANCH  15  16
ENDBRANCH  10  15
BRANCH  12  35
ATOM     35  O   UNL     1      34.130  35.484  15.381  1.00  0.00    -0.385 OA
ATOM     36  H   UNL     1      34.110  36.484  15.332  1.00  0.00     0.211 HD
ENDBRANCH  12  35
BRANCH  13  37
ATOM     37  O   UNL     1      33.869  34.787  12.576  1.00  0.00    -0.387 OA
ATOM     38  H   UNL     1      34.296  35.455  11.978  1.00  0.00     0.211 HD
ENDBRANCH  13  37
BRANCH  14  39
ATOM     39  O   UNL     1      31.215  34.257  12.308  1.00  0.00    -0.387 OA
ATOM     40  H   UNL     1      31.588  34.079  11.378  1.00  0.00     0.211 HD
ENDBRANCH  14  39
ENDBRANCH   8   9
ENDBRANCH   7   8
ENDBRANCH   1   7
BRANCH   1  41
ATOM     41  C   UNL     1      29.397  39.243  12.921  1.00  0.00     0.364 C 
ATOM     42  O   UNL     1      29.671  39.644  14.054  1.00  0.00    -0.246 OA
BRANCH  41  43
ATOM     43  O   UNL     1      30.076  39.912  11.868  1.00  0.00    -0.477 OA
ATOM     44  H   UNL     1      29.522  40.657  11.385  1.00  0.00     0.296 HD
ENDBRANCH  41  43
ENDBRANCH   1  41
BRANCH   3  45
ATOM     45  O   UNL     1      25.245  37.170  13.234  1.00  0.00    -0.391 OA
ATOM     46  H   UNL     1      25.031  36.282  12.822  1.00  0.00     0.211 HD
ENDBRANCH   3  45
BRANCH   5  47
ATOM     47  C   UNL     1      27.693  37.641   9.151  1.00  0.00     0.176 C 
BRANCH  47  48
ATOM     48  O   UNL     1      26.769  38.265   8.322  1.00  0.00    -0.388 OA
ATOM     49  H   UNL     1      27.080  39.057   7.870  1.00  0.00     0.211 HD
ENDBRANCH  47  48
BRANCH  47  50
ATOM     50  C   UNL     1      28.991  38.512   8.711  1.00  0.00     0.165 C 
BRANCH  50  51
ATOM     51  O   UNL     1      28.838  39.738   9.233  1.00  0.00    -0.388 OA
ATOM     52  H   UNL     1      29.576  40.370   8.985  1.00  0.00     0.211 HD
ENDBRANCH  50  51
BRANCH  50  53
ATOM     53  C   UNL     1      29.307  38.269   7.324  1.00  0.00     0.154 C 
BRANCH  53  54
ATOM     54  N   UNL     1      28.898  39.093   6.237  1.00  0.00    -0.319 N 
ATOM     55  C   UNL     1      27.987  38.516   5.318  1.00  0.00     0.407 C 
ATOM     56  H   UNL     1      29.202  40.045   6.044  1.00  0.00     0.167 HD
ATOM     57  O   UNL     1      27.581  37.317   5.475  1.00  0.00    -0.225 OA
BRANCH  55  58
ATOM     58  O   UNL     1      27.458  39.153   4.201  1.00  0.00    -0.443 OA
BRANCH  58  59
ATOM     59  C   UNL     1      27.815  40.569   4.036  1.00  0.00     0.294 C 
BRANCH  59  60
ATOM     60  C   UNL     1      26.883  41.248   4.983  1.00  0.00     0.120 A 
ATOM     61  C   UNL     1      25.471  41.199   4.900  1.00  0.00     0.138 A 
ATOM     62  N   UNL     1      27.190  41.930   6.079  1.00  0.00    -0.132 NA
ATOM     63  N   UNL     1      25.024  41.871   5.987  1.00  0.00    -0.248 N 
ATOM     64  N   UNL     1      26.031  42.295   6.668  1.00  0.00    -0.067 NA
BRANCH  63  65
ATOM     65  C   UNL     1      23.586  42.015   6.341  1.00  0.00     0.181 C 
BRANCH  65  66
ATOM     66  C   UNL     1      23.455  41.133   7.584  1.00  0.00    -0.023 A 
ATOM     67  C   UNL     1      23.462  41.655   8.859  1.00  0.00     0.056 A 
ATOM     68  C   UNL     1      23.203  39.814   7.383  1.00  0.00     0.010 A 
ATOM     69  C   UNL     1      23.186  40.724   9.900  1.00  0.00     0.161 A 
ATOM     70  C   UNL     1      22.930  38.896   8.443  1.00  0.00     0.051 A 
ATOM     71  C   UNL     1      22.933  39.427   9.705  1.00  0.00     0.160 A 
BRANCH  69  72
ATOM     72  O   UNL     1      23.185  41.188  11.217  1.00  0.00    -0.493 OA
ATOM     73  C   UNL     1      24.217  42.047  11.716  1.00  0.00     0.278 C 
ENDBRANCH  69  72
BRANCH  71  74
ATOM     74  O   UNL     1      22.642  38.598  10.825  1.00  0.00    -0.493 OA
ATOM     75  C   UNL     1      21.293  38.108  10.974  1.00  0.00     0.278 C 
ENDBRANCH  71  74
ENDBRANCH  65  66
ENDBRANCH  63  65
ENDBRANCH  59  60
ENDBRANCH  58  59
ENDBRANCH  55  58
ENDBRANCH  53  54
ENDBRANCH  50  53
ENDBRANCH  47  50
ENDBRANCH   5  47
BRANCH   4  76
ATOM     76  N   UNL     1      25.255  36.902  10.257  1.00  0.00    -0.348 N 
ATOM     77  C   UNL     1      24.519  35.715  10.330  1.00  0.00     0.217 C 
ATOM     78  H   UNL     1      24.946  37.614   9.538  1.00  0.00     0.163 HD
ATOM     79  C   UNL     1      23.370  35.335   9.452  1.00  0.00     0.114 C 
ATOM     80  O   UNL     1      24.777  34.789  11.201  1.00  0.00    -0.275 OA
ENDBRANCH   4  76
TORSDOF 33
BEGIN_RES LYS A 131
REMARK  4 active torsions:
REMARK  status: ('A' for Active; 'I' for Inactive)
REMARK    1  A    between atoms: CA   and  CB  
REMARK    2  A    between atoms: CB   and  CG  
REMARK    3  A    between atoms: CG   and  CD  
REMARK    4  A    between atoms: CD   and  CE  
ROOT
ATOM      1  CA  LYS A 131      29.867  25.555  16.977  1.00 20.52     0.186 C 
ENDROOT
BRANCH   1   2
ATOM      2  CB  LYS A 131      28.345  25.722  17.026  1.00 20.94     0.034 C 
BRANCH   2   3
ATOM      3  CG  LYS A 131      27.601  24.407  16.856  1.00 22.96     0.005 C 
BRANCH   3   4
ATOM      4  CD  LYS A 131      26.232  24.446  17.479  1.00 24.33     0.041 C 
BRANCH   4   5
ATOM      5  CE  LYS A 131      26.157  25.602  18.471  1.00 26.91     0.338 C 
ATOM      6  NZ  LYS A 131      25.015  26.489  18.149  1.00 27.40     0.618 N 
ENDBRANCH   4   5
ENDBRANCH   3   4
ENDBRANCH   2   3
ENDBRANCH   1   2
END_RES LYS A 131
BEGIN_RES LYS A 135
REMARK  4 active torsions:
REMARK  status: ('A' for Active; 'I' for Inactive)
REMARK    5  A    between atoms: CA   and  CB  
REMARK    6  A    between atoms: CB   and  CG  
REMARK    7  A    between atoms: CG   and  CD  
REMARK    8  A    between atoms: CD   and  CE  
ROOT
ATOM      7  CA  LYS A 135      33.193  34.663   9.290  1.00 25.02     0.186 C 
ENDROOT
BRANCH   7   8
ATOM      8  CB  LYS A 135      32.060  35.360  10.034  1.00 26.63     0.034 C 
BRANCH   8   9
ATOM      9  CG  LYS A 135      30.810  35.526   9.209  1.00 29.45     0.005 C 
BRANCH   9  10
ATOM     10  CD  LYS A 135      30.163  34.177   8.936  1.00 32.00     0.041 C 
BRANCH  10  11
ATOM     11  CE  LYS A 135      28.715  34.355   8.522  1.00 34.25     0.338 C 
ATOM     12  NZ  LYS A 135      27.790  33.850   9.574  1.00 35.99     0.618 N 
ENDBRANCH  10  11
ENDBRANCH   9  10
ENDBRANCH   8   9
ENDBRANCH   7   8
END_RES LYS A 135
