REMARK VINA RESULT:    -4.934      4.757     11.559
REMARK INTER + INTRA:         -23.287
REMARK INTER:                 -11.409
REMARK INTRA:                 -11.878
REMARK UNBOUND:               -10.853
REMARK SMILES CC(=O)N[C@@H]1[C@@H](O)C[C@](OC[C@H]2O[C@@H](O[C@H]3[C@H](O)[C@@H](O)[C@H](OCCN=[N+]=[N-])O[C@@H]3CO)[C@H](O)[C@@H](O)[C@H]2O)(C(=O)O)O[C@H]1C(O)[C@H](O)CNC(=O)OCc1cn(-c2ncn3c2c(=O)n(C(C)C)c2ccccc23)nn1
REMARK SMILES IDX 9 1 8 2 6 3 5 4 42 5 41 6 10 7 11 8 12 9 14 10 13 11 32 12
REMARK SMILES IDX 34 13 36 14 15 15 16 16 29 17 28 18 21 19 17 20 19 21 30 22
REMARK SMILES IDX 31 23 22 25 23 26 24 27 25 28 26 29 27 30 18 31 20 33 33 35
REMARK SMILES IDX 35 37 37 39 38 41 39 42 40 43 7 45 43 47 44 48 45 50 46 51
REMARK SMILES IDX 47 53 48 54 49 55 50 57 51 58 52 59 53 60 54 61 74 62 55 63
REMARK SMILES IDX 73 64 56 65 57 66 60 67 58 68 59 69 61 70 72 71 63 72 62 73
REMARK SMILES IDX 71 74 67 75 70 76 68 77 69 78 64 79 65 80 66 81 4 82 2 83
REMARK SMILES IDX 1 85 3 86
REMARK H PARENT 31 24 18 32 20 34 33 36 35 38 37 40 40 44 7 46 44 49 46 52
REMARK H PARENT 48 56 4 84
REMARK Flexibility Score: inf
ROOT
ATOM      1  C   UNL     1      30.905  33.692  14.842  1.00  0.00     0.272 C 
ATOM      2  C   UNL     1      32.254  33.999  15.435  1.00  0.00     0.113 C 
ATOM      3  C   UNL     1      32.465  35.436  15.670  1.00  0.00     0.145 C 
ATOM      4  C   UNL     1      31.302  36.150  16.296  1.00  0.00     0.142 C 
ATOM      5  C   UNL     1      29.984  35.540  15.982  1.00  0.00     0.178 C 
ATOM      6  O   UNL     1      29.931  34.232  15.741  1.00  0.00    -0.332 OA
ENDROOT
BRANCH   1   7
ATOM      7  O   UNL     1      30.713  32.349  15.012  1.00  0.00    -0.338 OA
BRANCH   7   8
ATOM      8  C   UNL     1      30.398  31.726  16.112  1.00  0.00     0.199 C 
BRANCH   8   9
ATOM      9  C   UNL     1      29.268  30.773  16.298  1.00  0.00     0.179 C 
ATOM     10  C   UNL     1      27.952  30.027  18.068  1.00  0.00     0.282 C 
ATOM     11  O   UNL     1      28.986  30.848  17.701  1.00  0.00    -0.341 OA
ATOM     12  C   UNL     1      26.637  30.430  17.425  1.00  0.00     0.202 C 
ATOM     13  C   UNL     1      26.794  30.559  15.920  1.00  0.00     0.179 C 
ATOM     14  C   UNL     1      28.026  31.375  15.639  1.00  0.00     0.177 C 
BRANCH  10  15
ATOM     15  O   UNL     1      27.805  30.149  19.445  1.00  0.00    -0.341 OA
BRANCH  15  16
ATOM     16  C   UNL     1      27.873  28.927  20.061  1.00  0.00     0.184 C 
ATOM     17  C   UNL     1      27.498  29.042  21.494  1.00  0.00     0.178 C 
ATOM     18  O   UNL     1      28.535  29.124  22.389  1.00  0.00    -0.341 OA
ATOM     19  C   UNL     1      29.712  29.633  21.906  1.00  0.00     0.281 C 
ATOM     20  C   UNL     1      29.209  28.242  19.862  1.00  0.00     0.180 C 
ATOM     21  C   UNL     1      30.246  28.872  20.718  1.00  0.00     0.202 C 
BRANCH  17  22
ATOM     22  C   UNL     1      26.571  27.914  21.893  1.00  0.00     0.191 C 
BRANCH  22  23
ATOM     23  O   UNL     1      27.388  26.979  22.572  1.00  0.00    -0.394 OA
ATOM     24  H   UNL     1      27.913  27.498  23.224  1.00  0.00     0.210 HD
ENDBRANCH  22  23
ENDBRANCH  17  22
BRANCH  19  25
ATOM     25  O   UNL     1      30.675  29.481  22.919  1.00  0.00    -0.350 OA
BRANCH  25  26
ATOM     26  C   UNL     1      31.259  30.653  23.317  1.00  0.00     0.169 C 
BRANCH  26  27
ATOM     27  C   UNL     1      32.746  30.725  23.174  1.00  0.00     0.119 C 
BRANCH  27  28
ATOM     28  N   UNL     1      32.997  31.305  21.845  1.00  0.00    -0.092 NA
ATOM     29  N   UNL     1      33.431  32.423  21.669  1.00  0.00     0.001 N 
ATOM     30  N   UNL     1      33.593  33.613  21.380  1.00  0.00    -0.003 NA
ENDBRANCH  27  28
ENDBRANCH  26  27
ENDBRANCH  25  26
ENDBRANCH  19  25
BRANCH  20  31
ATOM     31  O   UNL     1      29.049  26.870  20.092  1.00  0.00    -0.387 OA
ATOM     32  H   UNL     1      29.921  26.460  19.817  1.00  0.00     0.211 HD
ENDBRANCH  20  31
BRANCH  21  33
ATOM     33  O   UNL     1      30.961  29.777  19.914  1.00  0.00    -0.385 OA
ATOM     34  H   UNL     1      31.922  29.535  19.856  1.00  0.00     0.211 HD
ENDBRANCH  21  33
ENDBRANCH  15  16
ENDBRANCH  10  15
BRANCH  12  35
ATOM     35  O   UNL     1      25.737  29.388  17.632  1.00  0.00    -0.385 OA
ATOM     36  H   UNL     1      25.777  28.709  16.917  1.00  0.00     0.211 HD
ENDBRANCH  12  35
BRANCH  13  37
ATOM     37  O   UNL     1      25.701  31.325  15.472  1.00  0.00    -0.387 OA
ATOM     38  H   UNL     1      25.574  31.197  14.492  1.00  0.00     0.211 HD
ENDBRANCH  13  37
BRANCH  14  39
ATOM     39  O   UNL     1      27.797  32.640  16.241  1.00  0.00    -0.387 OA
ATOM     40  H   UNL     1      28.629  33.171  16.241  1.00  0.00     0.211 HD
ENDBRANCH  14  39
ENDBRANCH   8   9
ENDBRANCH   7   8
ENDBRANCH   1   7
BRANCH   1  41
ATOM     41  C   UNL     1      30.661  34.284  13.535  1.00  0.00     0.364 C 
ATOM     42  O   UNL     1      31.496  34.907  12.879  1.00  0.00    -0.246 OA
BRANCH  41  43
ATOM     43  O   UNL     1      29.396  34.167  12.928  1.00  0.00    -0.477 OA
ATOM     44  H   UNL     1      28.664  34.822  13.173  1.00  0.00     0.296 HD
ENDBRANCH  41  43
ENDBRANCH   1  41
BRANCH   3  45
ATOM     45  O   UNL     1      33.592  35.548  16.527  1.00  0.00    -0.391 OA
ATOM     46  H   UNL     1      33.737  36.484  16.791  1.00  0.00     0.211 HD
ENDBRANCH   3  45
BRANCH   5  47
ATOM     47  C   UNL     1      28.926  35.895  17.012  1.00  0.00     0.176 C 
BRANCH  47  48
ATOM     48  O   UNL     1      28.778  37.263  17.076  1.00  0.00    -0.388 OA
ATOM     49  H   UNL     1      29.015  37.727  16.234  1.00  0.00     0.211 HD
ENDBRANCH  47  48
BRANCH  47  50
ATOM     50  C   UNL     1      29.162  35.324  18.366  1.00  0.00     0.165 C 
BRANCH  50  51
ATOM     51  O   UNL     1      29.376  33.973  18.432  1.00  0.00    -0.388 OA
ATOM     52  H   UNL     1      30.300  33.697  18.233  1.00  0.00     0.211 HD
ENDBRANCH  50  51
BRANCH  50  53
ATOM     53  C   UNL     1      28.144  35.739  19.384  1.00  0.00     0.154 C 
BRANCH  53  54
ATOM     54  N   UNL     1      26.814  35.843  18.772  1.00  0.00    -0.319 N 
ATOM     55  C   UNL     1      26.000  34.723  18.533  1.00  0.00     0.407 C 
ATOM     56  H   UNL     1      26.440  36.800  18.496  1.00  0.00     0.167 HD
ATOM     57  O   UNL     1      26.388  33.563  18.825  1.00  0.00    -0.225 OA
BRANCH  55  58
ATOM     58  O   UNL     1      24.739  34.934  17.958  1.00  0.00    -0.443 OA
BRANCH  58  59
ATOM     59  C   UNL     1      24.565  35.892  16.952  1.00  0.00     0.294 C 
BRANCH  59  60
ATOM     60  C   UNL     1      25.384  35.587  15.718  1.00  0.00     0.121 A 
ATOM     61  C   UNL     1      25.874  36.505  14.818  1.00  0.00     0.146 A 
ATOM     62  N   UNL     1      25.794  34.389  15.270  1.00  0.00    -0.131 NA
ATOM     63  N   UNL     1      26.570  35.853  13.841  1.00  0.00    -0.200 N 
ATOM     64  N   UNL     1      26.495  34.574  14.155  1.00  0.00    -0.060 NA
BRANCH  63  65
ATOM     65  C   UNL     1      27.228  36.471  12.735  1.00  0.00     0.186 A 
ATOM     66  N   UNL     1      28.502  36.900  12.742  1.00  0.00    -0.216 NA
ATOM     67  C   UNL     1      26.760  36.775  11.482  1.00  0.00     0.158 A 
ATOM     68  C   UNL     1      28.806  37.445  11.547  1.00  0.00     0.207 A 
ATOM     69  N   UNL     1      27.725  37.376  10.740  1.00  0.00    -0.291 N 
ATOM     70  C   UNL     1      25.523  36.559  10.932  1.00  0.00     0.279 A 
ATOM     71  C   UNL     1      27.497  37.769   9.475  1.00  0.00     0.071 A 
ATOM     72  N   UNL     1      25.263  36.944   9.656  1.00  0.00    -0.302 N 
ATOM     73  O   UNL     1      24.601  35.997  11.602  1.00  0.00    -0.267 OA
ATOM     74  C   UNL     1      28.467  38.381   8.728  1.00  0.00     0.029 A 
ATOM     75  C   UNL     1      26.245  37.541   8.946  1.00  0.00     0.068 A 
ATOM     76  C   UNL     1      28.227  38.796   7.409  1.00  0.00     0.002 A 
ATOM     77  C   UNL     1      26.014  37.951   7.647  1.00  0.00     0.028 A 
ATOM     78  C   UNL     1      26.982  38.575   6.869  1.00  0.00     0.002 A 
BRANCH  72  79
ATOM     79  C   UNL     1      23.945  36.706   9.067  1.00  0.00     0.085 C 
ATOM     80  C   UNL     1      23.530  35.272   9.089  1.00  0.00     0.031 C 
ATOM     81  C   UNL     1      22.905  37.667   9.586  1.00  0.00     0.031 C 
ENDBRANCH  72  79
ENDBRANCH  63  65
ENDBRANCH  59  60
ENDBRANCH  58  59
ENDBRANCH  55  58
ENDBRANCH  53  54
ENDBRANCH  50  53
ENDBRANCH  47  50
ENDBRANCH   5  47
BRANCH   4  82
ATOM     82  N   UNL     1      31.375  37.549  15.930  1.00  0.00    -0.348 N 
ATOM     83  C   UNL     1      31.545  38.591  16.870  1.00  0.00     0.217 C 
ATOM     84  H   UNL     1      31.300  37.826  14.922  1.00  0.00     0.163 HD
ATOM     85  C   UNL     1      31.617  40.030  16.479  1.00  0.00     0.114 C 
ATOM     86  O   UNL     1      31.636  38.273  18.092  1.00  0.00    -0.275 OA
ENDBRANCH   4  82
TORSDOF 31
BEGIN_RES LYS A 131
REMARK  4 active torsions:
REMARK  status: ('A' for Active; 'I' for Inactive)
REMARK    1  A    between atoms: CA   and  CB  
REMARK    2  A    between atoms: CB   and  CG  
REMARK    3  A    between atoms: CG   and  CD  
REMARK    4  A    between atoms: CD   and  CE  
ROOT
ATOM      1  CA  LYS A 131      29.867  25.555  16.977  1.00 20.52     0.186 C 
ENDROOT
BRANCH   1   2
ATOM      2  CB  LYS A 131      28.345  25.722  17.026  1.00 20.94     0.034 C 
BRANCH   2   3
ATOM      3  CG  LYS A 131      27.601  24.402  16.891  1.00 22.96     0.005 C 
BRANCH   3   4
ATOM      4  CD  LYS A 131      26.157  24.523  17.291  1.00 24.33     0.041 C 
BRANCH   4   5
ATOM      5  CE  LYS A 131      25.642  23.164  17.756  1.00 26.91     0.338 C 
ATOM      6  NZ  LYS A 131      25.469  23.151  19.228  1.00 27.40     0.618 N 
ENDBRANCH   4   5
ENDBRANCH   3   4
ENDBRANCH   2   3
ENDBRANCH   1   2
END_RES LYS A 131
BEGIN_RES LYS A 135
REMARK  4 active torsions:
REMARK  status: ('A' for Active; 'I' for Inactive)
REMARK    5  A    between atoms: CA   and  CB  
REMARK    6  A    between atoms: CB   and  CG  
REMARK    7  A    between atoms: CG   and  CD  
REMARK    8  A    between atoms: CD   and  CE  
ROOT
ATOM      7  CA  LYS A 135      33.193  34.663   9.290  1.00 25.02     0.186 C 
ENDROOT
BRANCH   7   8
ATOM      8  CB  LYS A 135      32.060  35.360  10.034  1.00 26.63     0.034 C 
BRANCH   8   9
ATOM      9  CG  LYS A 135      30.798  35.493   9.222  1.00 29.45     0.005 C 
BRANCH   9  10
ATOM     10  CD  LYS A 135      30.097  34.149   9.095  1.00 32.00     0.041 C 
BRANCH  10  11
ATOM     11  CE  LYS A 135      28.639  34.341   8.723  1.00 34.25     0.338 C 
ATOM     12  NZ  LYS A 135      27.740  33.765   9.760  1.00 35.99     0.618 N 
ENDBRANCH  10  11
ENDBRANCH   9  10
ENDBRANCH   8   9
ENDBRANCH   7   8
END_RES LYS A 135
