REMARK VINA RESULT:    -4.425      3.157      9.245
REMARK INTER + INTRA:         -22.478
REMARK INTER:                 -10.818
REMARK INTRA:                 -11.660
REMARK UNBOUND:               -10.809
REMARK SMILES COc1ccc(Cn2cc(COC(=O)NC[C@@H](O)C(O)[C@@H]3O[C@@](OC[C@H]4O[C@@H](O[C@H]5[C@H](O)[C@@H](O)[C@H](OCCN=[N+]=[N-])O[C@@H]5CO)[C@H](O)[C@@H](O)[C@H]4O)(C(=O)O)C[C@H](O)[C@H]3NC(C)=O)nn2)cc1OC
REMARK SMILES IDX 23 1 55 2 56 3 58 4 21 5 22 6 24 7 25 8 26 9 28 10 27 11
REMARK SMILES IDX 46 12 48 13 50 14 29 15 30 16 43 17 42 18 35 19 31 20 33 21
REMARK SMILES IDX 44 22 45 23 36 25 37 26 38 27 39 28 40 29 41 30 32 31 34 33
REMARK SMILES IDX 47 35 49 37 51 39 52 41 53 42 54 43 57 45 19 47 20 48 17 50
REMARK SMILES IDX 18 51 16 53 15 54 13 55 14 57 12 58 11 59 10 60 9 61 63 62
REMARK SMILES IDX 8 63 64 64 7 65 6 66 65 67 5 68 66 69 4 70 3 71 67 72 68 73
REMARK SMILES IDX 2 74 1 75 59 76 60 77 61 79 62 80
REMARK H PARENT 45 24 32 32 34 34 47 36 49 38 51 40 54 44 57 46 20 49 18 52
REMARK H PARENT 15 56 59 78
REMARK Flexibility Score: inf
ROOT
ATOM      1  C   UNL     1      24.774  36.788   8.794  1.00  0.00     0.272 C 
ATOM      2  C   UNL     1      24.841  35.272   8.760  1.00  0.00     0.113 C 
ATOM      3  C   UNL     1      26.170  34.617   8.863  1.00  0.00     0.145 C 
ATOM      4  C   UNL     1      27.261  35.603   8.457  1.00  0.00     0.142 C 
ATOM      5  C   UNL     1      26.638  36.482   7.447  1.00  0.00     0.178 C 
ATOM      6  O   UNL     1      25.822  37.401   8.079  1.00  0.00    -0.332 OA
ENDROOT
BRANCH   1   7
ATOM      7  O   UNL     1      24.928  37.110  10.136  1.00  0.00    -0.338 OA
BRANCH   7   8
ATOM      8  C   UNL     1      25.794  38.113  10.447  1.00  0.00     0.199 C 
BRANCH   8   9
ATOM      9  C   UNL     1      26.528  37.819  11.727  1.00  0.00     0.179 C 
ATOM     10  C   UNL     1      27.279  36.218  13.155  1.00  0.00     0.282 C 
ATOM     11  O   UNL     1      26.962  36.481  11.766  1.00  0.00    -0.341 OA
ATOM     12  C   UNL     1      28.517  36.900  13.512  1.00  0.00     0.202 C 
ATOM     13  C   UNL     1      28.562  38.334  13.012  1.00  0.00     0.179 C 
ATOM     14  C   UNL     1      27.849  38.602  11.745  1.00  0.00     0.177 C 
BRANCH  10  15
ATOM     15  O   UNL     1      27.298  34.845  13.286  1.00  0.00    -0.341 OA
BRANCH  15  16
ATOM     16  C   UNL     1      26.137  34.404  13.922  1.00  0.00     0.184 C 
ATOM     17  C   UNL     1      26.387  33.407  14.984  1.00  0.00     0.178 C 
ATOM     18  O   UNL     1      25.214  33.259  15.719  1.00  0.00    -0.341 OA
ATOM     19  C   UNL     1      24.097  33.304  14.965  1.00  0.00     0.281 C 
ATOM     20  C   UNL     1      25.242  33.792  12.838  1.00  0.00     0.180 C 
ATOM     21  C   UNL     1      24.248  32.849  13.531  1.00  0.00     0.202 C 
BRANCH  17  22
ATOM     22  C   UNL     1      27.557  33.765  15.872  1.00  0.00     0.191 C 
BRANCH  22  23
ATOM     23  O   UNL     1      28.705  33.352  15.197  1.00  0.00    -0.394 OA
ATOM     24  H   UNL     1      29.507  33.749  15.651  1.00  0.00     0.210 HD
ENDBRANCH  22  23
ENDBRANCH  17  22
BRANCH  19  25
ATOM     25  O   UNL     1      23.668  34.678  14.887  1.00  0.00    -0.350 OA
BRANCH  25  26
ATOM     26  C   UNL     1      22.426  34.750  15.547  1.00  0.00     0.169 C 
BRANCH  26  27
ATOM     27  C   UNL     1      21.333  35.350  14.682  1.00  0.00     0.119 C 
BRANCH  27  28
ATOM     28  N   UNL     1      21.937  35.972  13.536  1.00  0.00    -0.092 NA
ATOM     29  N   UNL     1      21.685  35.613  12.382  1.00  0.00     0.001 N 
ATOM     30  N   UNL     1      21.378  34.926  11.387  1.00  0.00    -0.003 NA
ENDBRANCH  27  28
ENDBRANCH  26  27
ENDBRANCH  25  26
ENDBRANCH  19  25
BRANCH  20  31
ATOM     31  O   UNL     1      24.504  34.825  12.283  1.00  0.00    -0.387 OA
ATOM     32  H   UNL     1      24.505  35.590  12.933  1.00  0.00     0.211 HD
ENDBRANCH  20  31
BRANCH  21  33
ATOM     33  O   UNL     1      24.769  31.578  13.498  1.00  0.00    -0.385 OA
ATOM     34  H   UNL     1      24.796  31.202  12.576  1.00  0.00     0.211 HD
ENDBRANCH  21  33
ENDBRANCH  15  16
ENDBRANCH  10  15
BRANCH  12  35
ATOM     35  O   UNL     1      28.689  36.970  14.885  1.00  0.00    -0.385 OA
ATOM     36  H   UNL     1      29.197  36.184  15.240  1.00  0.00     0.211 HD
ENDBRANCH  12  35
BRANCH  13  37
ATOM     37  O   UNL     1      29.930  38.705  12.917  1.00  0.00    -0.387 OA
ATOM     38  H   UNL     1      30.120  39.281  13.703  1.00  0.00     0.211 HD
ENDBRANCH  13  37
BRANCH  14  39
ATOM     39  O   UNL     1      28.575  38.127  10.631  1.00  0.00    -0.387 OA
ATOM     40  H   UNL     1      29.576  38.243  10.779  1.00  0.00     0.211 HD
ENDBRANCH  14  39
ENDBRANCH   8   9
ENDBRANCH   7   8
ENDBRANCH   1   7
BRANCH   1  41
ATOM     41  C   UNL     1      23.486  37.207   8.183  1.00  0.00     0.364 C 
ATOM     42  O   UNL     1      22.401  36.871   8.665  1.00  0.00    -0.246 OA
BRANCH  41  43
ATOM     43  O   UNL     1      23.399  38.009   7.014  1.00  0.00    -0.477 OA
ATOM     44  H   UNL     1      24.166  38.712   6.900  1.00  0.00     0.296 HD
ENDBRANCH  41  43
ENDBRANCH   1  41
BRANCH   3  45
ATOM     45  O   UNL     1      26.430  34.186  10.142  1.00  0.00    -0.391 OA
ATOM     46  H   UNL     1      26.168  34.889  10.804  1.00  0.00     0.211 HD
ENDBRANCH   3  45
BRANCH   5  47
ATOM     47  C   UNL     1      27.555  36.987   6.432  1.00  0.00     0.176 C 
BRANCH  47  48
ATOM     48  O   UNL     1      27.132  36.896   5.112  1.00  0.00    -0.388 OA
ATOM     49  H   UNL     1      26.343  37.403   4.890  1.00  0.00     0.211 HD
ENDBRANCH  47  48
BRANCH  47  50
ATOM     50  C   UNL     1      27.551  38.607   6.542  1.00  0.00     0.165 C 
BRANCH  50  51
ATOM     51  O   UNL     1      26.649  39.060   5.661  1.00  0.00    -0.388 OA
ATOM     52  H   UNL     1      26.811  38.740   4.725  1.00  0.00     0.211 HD
ENDBRANCH  50  51
BRANCH  50  53
ATOM     53  C   UNL     1      28.904  39.105   6.627  1.00  0.00     0.154 C 
BRANCH  53  54
ATOM     54  N   UNL     1      29.781  38.901   7.730  1.00  0.00    -0.319 N 
ATOM     55  C   UNL     1      31.134  39.273   7.536  1.00  0.00     0.407 C 
ATOM     56  H   UNL     1      29.540  38.502   8.635  1.00  0.00     0.167 HD
ATOM     57  O   UNL     1      31.520  39.752   6.420  1.00  0.00    -0.225 OA
BRANCH  55  58
ATOM     58  O   UNL     1      32.143  39.165   8.487  1.00  0.00    -0.443 OA
BRANCH  58  59
ATOM     59  C   UNL     1      32.650  40.429   9.036  1.00  0.00     0.294 C 
BRANCH  59  60
ATOM     60  C   UNL     1      31.457  40.974   9.747  1.00  0.00     0.120 A 
ATOM     61  C   UNL     1      30.835  42.209   9.449  1.00  0.00     0.138 A 
ATOM     62  N   UNL     1      30.739  40.391  10.699  1.00  0.00    -0.132 NA
ATOM     63  N   UNL     1      29.756  42.274  10.265  1.00  0.00    -0.248 N 
ATOM     64  N   UNL     1      29.708  41.212  10.990  1.00  0.00    -0.067 NA
BRANCH  63  65
ATOM     65  C   UNL     1      28.766  43.385  10.246  1.00  0.00     0.181 C 
BRANCH  65  66
ATOM     66  C   UNL     1      27.640  42.817   9.381  1.00  0.00    -0.023 A 
ATOM     67  C   UNL     1      27.724  42.768   8.006  1.00  0.00     0.056 A 
ATOM     68  C   UNL     1      26.592  42.242  10.026  1.00  0.00     0.010 A 
ATOM     69  C   UNL     1      26.660  42.082   7.355  1.00  0.00     0.161 A 
ATOM     70  C   UNL     1      25.534  41.559   9.352  1.00  0.00     0.051 A 
ATOM     71  C   UNL     1      25.632  41.510   7.987  1.00  0.00     0.160 A 
BRANCH  69  72
ATOM     72  O   UNL     1      26.682  42.003   5.961  1.00  0.00    -0.493 OA
ATOM     73  C   UNL     1      27.814  42.435   5.198  1.00  0.00     0.278 C 
ENDBRANCH  69  72
BRANCH  71  74
ATOM     74  O   UNL     1      24.640  40.826   7.228  1.00  0.00    -0.493 OA
ATOM     75  C   UNL     1      23.367  41.478   7.034  1.00  0.00     0.278 C 
ENDBRANCH  71  74
ENDBRANCH  65  66
ENDBRANCH  63  65
ENDBRANCH  59  60
ENDBRANCH  58  59
ENDBRANCH  55  58
ENDBRANCH  53  54
ENDBRANCH  50  53
ENDBRANCH  47  50
ENDBRANCH   5  47
BRANCH   4  76
ATOM     76  N   UNL     1      28.402  34.857   7.999  1.00  0.00    -0.348 N 
ATOM     77  C   UNL     1      29.678  35.193   8.467  1.00  0.00     0.217 C 
ATOM     78  H   UNL     1      28.336  34.040   7.332  1.00  0.00     0.163 HD
ATOM     79  C   UNL     1      30.962  34.537   8.072  1.00  0.00     0.114 C 
ATOM     80  O   UNL     1      29.876  36.147   9.323  1.00  0.00    -0.275 OA
ENDBRANCH   4  76
TORSDOF 33
BEGIN_RES LYS A 131
REMARK  4 active torsions:
REMARK  status: ('A' for Active; 'I' for Inactive)
REMARK    1  A    between atoms: CA   and  CB  
REMARK    2  A    between atoms: CB   and  CG  
REMARK    3  A    between atoms: CG   and  CD  
REMARK    4  A    between atoms: CD   and  CE  
ROOT
ATOM      1  CA  LYS A 131      29.867  25.555  16.977  1.00 20.52     0.186 C 
ENDROOT
BRANCH   1   2
ATOM      2  CB  LYS A 131      28.345  25.722  17.026  1.00 20.94     0.034 C 
BRANCH   2   3
ATOM      3  CG  LYS A 131      27.602  24.400  16.916  1.00 22.96     0.005 C 
BRANCH   3   4
ATOM      4  CD  LYS A 131      26.150  24.534  17.282  1.00 24.33     0.041 C 
BRANCH   4   5
ATOM      5  CE  LYS A 131      26.006  24.541  18.800  1.00 26.91     0.338 C 
ATOM      6  NZ  LYS A 131      25.518  23.228  19.282  1.00 27.40     0.618 N 
ENDBRANCH   4   5
ENDBRANCH   3   4
ENDBRANCH   2   3
ENDBRANCH   1   2
END_RES LYS A 131
BEGIN_RES LYS A 135
REMARK  4 active torsions:
REMARK  status: ('A' for Active; 'I' for Inactive)
REMARK    5  A    between atoms: CA   and  CB  
REMARK    6  A    between atoms: CB   and  CG  
REMARK    7  A    between atoms: CG   and  CD  
REMARK    8  A    between atoms: CD   and  CE  
ROOT
ATOM      7  CA  LYS A 135      33.193  34.663   9.290  1.00 25.02     0.186 C 
ENDROOT
BRANCH   7   8
ATOM      8  CB  LYS A 135      32.060  35.360  10.034  1.00 26.63     0.034 C 
BRANCH   8   9
ATOM      9  CG  LYS A 135      32.498  36.021  11.316  1.00 29.45     0.005 C 
BRANCH   9  10
ATOM     10  CD  LYS A 135      31.642  35.550  12.482  1.00 32.00     0.041 C 
BRANCH  10  11
ATOM     11  CE  LYS A 135      32.273  35.950  13.801  1.00 34.25     0.338 C 
ATOM     12  NZ  LYS A 135      31.702  35.163  14.929  1.00 35.99     0.618 N 
ENDBRANCH  10  11
ENDBRANCH   9  10
ENDBRANCH   8   9
ENDBRANCH   7   8
END_RES LYS A 135
