REMARK VINA RESULT:    -4.311      4.868     10.209
REMARK INTER + INTRA:         -22.424
REMARK INTER:                 -13.073
REMARK INTRA:                  -9.351
REMARK UNBOUND:               -11.308
REMARK SMILES CC(=O)N[C@@H]1[C@@H](O)C[C@](OC[C@H]2O[C@@H](O[C@H]3[C@H](O)[C@@H](O)[C@H](OCCN=[N+]=[N-])O[C@@H]3CO)[C@H](O)[C@@H](O)[C@H]2O)(C(=O)O)O[C@H]1C(O)[C@H](O)CNC(=O)OCc1cn(CCN2CCCC2)nn1
REMARK SMILES IDX 9 1 8 2 6 3 5 4 42 5 41 6 10 7 11 8 12 9 14 10 13 11 32 12
REMARK SMILES IDX 34 13 36 14 15 15 16 16 29 17 28 18 21 19 17 20 19 21 30 22
REMARK SMILES IDX 31 23 22 25 23 26 24 27 25 28 26 29 27 30 18 31 20 33 33 35
REMARK SMILES IDX 35 37 37 39 38 41 39 42 40 43 7 45 43 47 44 48 45 50 46 51
REMARK SMILES IDX 47 53 48 54 49 55 50 57 51 58 52 59 53 60 54 61 64 62 55 63
REMARK SMILES IDX 63 64 56 65 57 66 58 67 59 68 62 69 60 70 61 71 4 72 2 73
REMARK SMILES IDX 1 75 3 76
REMARK H PARENT 31 24 18 32 20 34 33 36 35 38 37 40 40 44 7 46 44 49 46 52
REMARK H PARENT 48 56 4 74
REMARK Flexibility Score: inf
ROOT
ATOM      1  C   UNL     1      30.752  29.699  21.054  1.00  0.00     0.272 C 
ATOM      2  C   UNL     1      31.882  28.935  20.438  1.00  0.00     0.113 C 
ATOM      3  C   UNL     1      31.712  27.429  20.677  1.00  0.00     0.145 C 
ATOM      4  C   UNL     1      31.828  27.242  22.216  1.00  0.00     0.142 C 
ATOM      5  C   UNL     1      30.819  28.141  22.831  1.00  0.00     0.178 C 
ATOM      6  O   UNL     1      30.053  28.792  21.860  1.00  0.00    -0.332 OA
ENDROOT
BRANCH   1   7
ATOM      7  O   UNL     1      29.797  30.072  20.105  1.00  0.00    -0.338 OA
BRANCH   7   8
ATOM      8  C   UNL     1      28.522  29.687  20.308  1.00  0.00     0.199 C 
BRANCH   8   9
ATOM      9  C   UNL     1      27.683  29.701  19.033  1.00  0.00     0.179 C 
ATOM     10  C   UNL     1      27.473  30.693  16.976  1.00  0.00     0.282 C 
ATOM     11  O   UNL     1      28.335  30.273  17.954  1.00  0.00    -0.341 OA
ATOM     12  C   UNL     1      26.357  29.721  16.804  1.00  0.00     0.202 C 
ATOM     13  C   UNL     1      26.829  28.343  17.232  1.00  0.00     0.179 C 
ATOM     14  C   UNL     1      27.174  28.310  18.707  1.00  0.00     0.177 C 
BRANCH  10  15
ATOM     15  O   UNL     1      28.058  31.115  15.819  1.00  0.00    -0.341 OA
BRANCH  15  16
ATOM     16  C   UNL     1      28.390  32.383  15.602  1.00  0.00     0.184 C 
ATOM     17  C   UNL     1      29.747  32.848  16.090  1.00  0.00     0.178 C 
ATOM     18  O   UNL     1      30.098  33.957  15.313  1.00  0.00    -0.341 OA
ATOM     19  C   UNL     1      29.325  35.038  15.827  1.00  0.00     0.281 C 
ATOM     20  C   UNL     1      27.412  33.430  16.105  1.00  0.00     0.180 C 
ATOM     21  C   UNL     1      27.883  34.728  15.478  1.00  0.00     0.202 C 
BRANCH  17  22
ATOM     22  C   UNL     1      30.810  31.803  16.054  1.00  0.00     0.191 C 
BRANCH  22  23
ATOM     23  O   UNL     1      31.544  31.974  14.884  1.00  0.00    -0.394 OA
ATOM     24  H   UNL     1      32.489  31.694  15.031  1.00  0.00     0.210 HD
ENDBRANCH  22  23
ENDBRANCH  17  22
BRANCH  19  25
ATOM     25  O   UNL     1      29.702  36.128  15.111  1.00  0.00    -0.350 OA
BRANCH  25  26
ATOM     26  C   UNL     1      30.014  36.005  13.801  1.00  0.00     0.169 C 
BRANCH  26  27
ATOM     27  C   UNL     1      31.175  36.778  13.282  1.00  0.00     0.119 C 
BRANCH  27  28
ATOM     28  N   UNL     1      32.275  35.969  12.816  1.00  0.00    -0.092 NA
ATOM     29  N   UNL     1      32.879  35.262  13.610  1.00  0.00     0.001 N 
ATOM     30  N   UNL     1      33.347  34.531  14.490  1.00  0.00    -0.003 NA
ENDBRANCH  27  28
ENDBRANCH  26  27
ENDBRANCH  25  26
ENDBRANCH  19  25
BRANCH  20  31
ATOM     31  O   UNL     1      26.132  33.202  15.621  1.00  0.00    -0.387 OA
ATOM     32  H   UNL     1      26.065  32.460  14.989  1.00  0.00     0.211 HD
ENDBRANCH  20  31
BRANCH  21  33
ATOM     33  O   UNL     1      27.036  35.784  15.714  1.00  0.00    -0.385 OA
ATOM     34  H   UNL     1      26.418  35.690  16.458  1.00  0.00     0.211 HD
ENDBRANCH  21  33
ENDBRANCH  15  16
ENDBRANCH  10  15
BRANCH  12  35
ATOM     35  O   UNL     1      25.233  30.022  17.583  1.00  0.00    -0.385 OA
ATOM     36  H   UNL     1      24.765  30.829  17.219  1.00  0.00     0.211 HD
ENDBRANCH  12  35
BRANCH  13  37
ATOM     37  O   UNL     1      27.992  28.004  16.535  1.00  0.00    -0.387 OA
ATOM     38  H   UNL     1      28.304  28.792  15.986  1.00  0.00     0.211 HD
ENDBRANCH  13  37
BRANCH  14  39
ATOM     39  O   UNL     1      28.169  27.347  18.862  1.00  0.00    -0.387 OA
ATOM     40  H   UNL     1      28.396  27.056  17.930  1.00  0.00     0.211 HD
ENDBRANCH  14  39
ENDBRANCH   8   9
ENDBRANCH   7   8
ENDBRANCH   1   7
BRANCH   1  41
ATOM     41  C   UNL     1      31.180  30.869  21.864  1.00  0.00     0.364 C 
ATOM     42  O   UNL     1      30.273  31.587  22.387  1.00  0.00    -0.246 OA
BRANCH  41  43
ATOM     43  O   UNL     1      32.472  31.255  22.104  1.00  0.00    -0.477 OA
ATOM     44  H   UNL     1      33.306  30.733  21.963  1.00  0.00     0.296 HD
ENDBRANCH  41  43
ENDBRANCH   1  41
BRANCH   3  45
ATOM     45  O   UNL     1      30.455  27.003  20.328  1.00  0.00    -0.391 OA
ATOM     46  H   UNL     1      30.197  26.148  20.766  1.00  0.00     0.211 HD
ENDBRANCH   3  45
BRANCH   5  47
ATOM     47  C   UNL     1      29.800  27.346  23.613  1.00  0.00     0.176 C 
BRANCH  47  48
ATOM     48  O   UNL     1      30.091  27.204  24.957  1.00  0.00    -0.388 OA
ATOM     49  H   UNL     1      29.316  27.074  25.547  1.00  0.00     0.211 HD
ENDBRANCH  47  48
BRANCH  47  50
ATOM     50  C   UNL     1      28.363  27.618  23.395  1.00  0.00     0.165 C 
BRANCH  50  51
ATOM     51  O   UNL     1      27.851  28.753  23.978  1.00  0.00    -0.388 OA
ATOM     52  H   UNL     1      28.237  29.002  24.847  1.00  0.00     0.211 HD
ENDBRANCH  50  51
BRANCH  50  53
ATOM     53  C   UNL     1      27.460  26.434  23.281  1.00  0.00     0.154 C 
BRANCH  53  54
ATOM     54  N   UNL     1      26.576  26.489  22.177  1.00  0.00    -0.319 N 
ATOM     55  C   UNL     1      25.149  26.595  22.330  1.00  0.00     0.407 C 
ATOM     56  H   UNL     1      26.948  26.457  21.197  1.00  0.00     0.167 HD
ATOM     57  O   UNL     1      24.587  26.648  23.439  1.00  0.00    -0.225 OA
BRANCH  55  58
ATOM     58  O   UNL     1      24.326  26.649  21.205  1.00  0.00    -0.443 OA
BRANCH  58  59
ATOM     59  C   UNL     1      23.470  27.778  20.998  1.00  0.00     0.294 C 
BRANCH  59  60
ATOM     60  C   UNL     1      23.117  27.913  19.570  1.00  0.00     0.120 A 
ATOM     61  C   UNL     1      22.157  28.633  18.918  1.00  0.00     0.138 A 
ATOM     62  N   UNL     1      23.785  27.257  18.577  1.00  0.00    -0.132 NA
ATOM     63  N   UNL     1      22.251  28.416  17.606  1.00  0.00    -0.251 N 
ATOM     64  N   UNL     1      23.273  27.555  17.421  1.00  0.00    -0.067 NA
BRANCH  63  65
ATOM     65  C   UNL     1      21.476  28.938  16.525  1.00  0.00     0.161 C 
BRANCH  65  66
ATOM     66  C   UNL     1      22.055  30.137  15.870  1.00  0.00     0.108 C 
BRANCH  66  67
ATOM     67  N   UNL     1      23.177  30.002  15.041  1.00  0.00    -0.301 NA
ATOM     68  C   UNL     1      23.250  28.969  14.086  1.00  0.00     0.084 C 
ATOM     69  C   UNL     1      23.729  31.218  14.523  1.00  0.00     0.084 C 
ATOM     70  C   UNL     1      23.695  29.584  12.768  1.00  0.00     0.017 C 
ATOM     71  C   UNL     1      24.226  30.938  13.139  1.00  0.00     0.017 C 
ENDBRANCH  66  67
ENDBRANCH  65  66
ENDBRANCH  63  65
ENDBRANCH  59  60
ENDBRANCH  58  59
ENDBRANCH  55  58
ENDBRANCH  53  54
ENDBRANCH  50  53
ENDBRANCH  47  50
ENDBRANCH   5  47
BRANCH   4  72
ATOM     72  N   UNL     1      33.206  27.551  22.550  1.00  0.00    -0.348 N 
ATOM     73  C   UNL     1      33.823  27.188  23.781  1.00  0.00     0.217 C 
ATOM     74  H   UNL     1      33.808  28.062  21.879  1.00  0.00     0.163 HD
ATOM     75  C   UNL     1      35.258  27.568  24.025  1.00  0.00     0.114 C 
ATOM     76  O   UNL     1      33.173  26.570  24.625  1.00  0.00    -0.275 OA
ENDBRANCH   4  72
TORSDOF 32
BEGIN_RES LYS A 131
REMARK  4 active torsions:
REMARK  status: ('A' for Active; 'I' for Inactive)
REMARK    1  A    between atoms: CA   and  CB  
REMARK    2  A    between atoms: CB   and  CG  
REMARK    3  A    between atoms: CG   and  CD  
REMARK    4  A    between atoms: CD   and  CE  
ROOT
ATOM      1  CA  LYS A 131      29.867  25.555  16.977  1.00 20.52     0.186 C 
ENDROOT
BRANCH   1   2
ATOM      2  CB  LYS A 131      28.345  25.722  17.026  1.00 20.94     0.034 C 
BRANCH   2   3
ATOM      3  CG  LYS A 131      27.602  24.399  16.920  1.00 22.96     0.005 C 
BRANCH   3   4
ATOM      4  CD  LYS A 131      26.155  24.530  17.307  1.00 24.33     0.041 C 
BRANCH   4   5
ATOM      5  CE  LYS A 131      26.032  24.524  18.828  1.00 26.91     0.338 C 
ATOM      6  NZ  LYS A 131      25.524  23.215  19.302  1.00 27.40     0.618 N 
ENDBRANCH   4   5
ENDBRANCH   3   4
ENDBRANCH   2   3
ENDBRANCH   1   2
END_RES LYS A 131
BEGIN_RES LYS A 135
REMARK  4 active torsions:
REMARK  status: ('A' for Active; 'I' for Inactive)
REMARK    5  A    between atoms: CA   and  CB  
REMARK    6  A    between atoms: CB   and  CG  
REMARK    7  A    between atoms: CG   and  CD  
REMARK    8  A    between atoms: CD   and  CE  
ROOT
ATOM      7  CA  LYS A 135      33.193  34.663   9.290  1.00 25.02     0.186 C 
ENDROOT
BRANCH   7   8
ATOM      8  CB  LYS A 135      32.060  35.360  10.034  1.00 26.63     0.034 C 
BRANCH   8   9
ATOM      9  CG  LYS A 135      30.797  35.491   9.222  1.00 29.45     0.005 C 
BRANCH   9  10
ATOM     10  CD  LYS A 135      30.136  34.134   9.035  1.00 32.00     0.041 C 
BRANCH  10  11
ATOM     11  CE  LYS A 135      28.676  34.300   8.659  1.00 34.25     0.338 C 
ATOM     12  NZ  LYS A 135      27.784  33.730   9.707  1.00 35.99     0.618 N 
ENDBRANCH  10  11
ENDBRANCH   9  10
ENDBRANCH   8   9
ENDBRANCH   7   8
END_RES LYS A 135
