REMARK VINA RESULT:    -3.906      4.548      9.303
REMARK INTER + INTRA:         -23.293
REMARK INTER:                 -10.787
REMARK INTRA:                 -12.506
REMARK UNBOUND:               -13.108
REMARK SMILES CC(=O)N[C@@H]1[C@@H](O)C[C@](OC[C@H]2O[C@@H](O[C@H]3[C@H](O)[C@@H](O)[C@H](OCCN=[N+]=[N-])O[C@@H]3CO)[C@H](O)[C@@H](O)[C@H]2O)(C(=O)O)O[C@H]1C(O)[C@H](O)CNC(=O)OCc1cn(-c2cccc(C=CC(=O)O)c2)nn1
REMARK SMILES IDX 43 1 42 2 9 3 8 4 41 5 6 6 5 7 10 8 11 9 12 10 14 11 13 12
REMARK SMILES IDX 32 13 34 14 36 15 15 16 16 17 29 18 28 19 21 20 17 21 19 22
REMARK SMILES IDX 30 23 31 24 22 26 23 27 24 28 25 29 26 30 27 31 18 32 20 34
REMARK SMILES IDX 33 36 35 38 37 40 38 42 39 43 40 44 7 46 4 48 2 49 1 51 3 52
REMARK SMILES IDX 44 53 45 55 46 56 47 58 48 59 49 60 50 62 51 63 52 64 53 65
REMARK SMILES IDX 54 66 68 67 55 68 67 69 56 70 66 71 57 72 60 73 58 74 59 75
REMARK SMILES IDX 61 76 62 77 63 78 64 79 65 80
REMARK H PARENT 31 25 18 33 20 35 33 37 35 39 37 41 40 45 7 47 4 50 44 54
REMARK H PARENT 46 57 48 61 65 81
REMARK Flexibility Score: inf
ROOT
ATOM      1  C   UNL     1      30.319  32.451  15.539  1.00  0.00     0.176 C 
ENDROOT
BRANCH   1   2
ATOM      2  C   UNL     1      30.694  33.627  16.419  1.00  0.00     0.178 C 
ATOM      3  C   UNL     1      30.000  34.555  18.472  1.00  0.00     0.272 C 
ATOM      4  C   UNL     1      31.162  35.533  17.955  1.00  0.00     0.113 C 
ATOM      5  O   UNL     1      29.808  33.637  17.460  1.00  0.00    -0.332 OA
ATOM      6  C   UNL     1      30.681  36.052  16.648  1.00  0.00     0.145 C 
ATOM      7  C   UNL     1      30.600  34.914  15.649  1.00  0.00     0.142 C 
BRANCH   3   8
ATOM      8  O   UNL     1      28.947  35.377  18.536  1.00  0.00    -0.338 OA
BRANCH   8   9
ATOM      9  C   UNL     1      27.954  35.325  19.405  1.00  0.00     0.199 C 
BRANCH   9  10
ATOM     10  C   UNL     1      26.526  35.425  18.910  1.00  0.00     0.179 C 
ATOM     11  C   UNL     1      25.735  35.794  16.712  1.00  0.00     0.282 C 
ATOM     12  O   UNL     1      26.527  36.158  17.783  1.00  0.00    -0.341 OA
ATOM     13  C   UNL     1      24.501  35.142  17.196  1.00  0.00     0.202 C 
ATOM     14  C   UNL     1      24.705  33.952  18.084  1.00  0.00     0.179 C 
ATOM     15  C   UNL     1      26.109  33.989  18.629  1.00  0.00     0.177 C 
BRANCH  11  16
ATOM     16  O   UNL     1      26.546  35.088  15.851  1.00  0.00    -0.341 OA
BRANCH  16  17
ATOM     17  C   UNL     1      26.405  35.363  14.535  1.00  0.00     0.184 C 
ATOM     18  C   UNL     1      26.193  34.117  13.733  1.00  0.00     0.178 C 
ATOM     19  O   UNL     1      25.688  34.565  12.488  1.00  0.00    -0.341 OA
ATOM     20  C   UNL     1      26.715  35.164  11.755  1.00  0.00     0.281 C 
ATOM     21  C   UNL     1      27.654  36.012  13.930  1.00  0.00     0.180 C 
ATOM     22  C   UNL     1      27.362  36.303  12.473  1.00  0.00     0.202 C 
BRANCH  18  23
ATOM     23  C   UNL     1      25.242  33.138  14.322  1.00  0.00     0.191 C 
BRANCH  23  24
ATOM     24  O   UNL     1      25.938  32.276  15.166  1.00  0.00    -0.394 OA
ATOM     25  H   UNL     1      25.351  31.502  15.432  1.00  0.00     0.210 HD
ENDBRANCH  23  24
ENDBRANCH  18  23
BRANCH  20  26
ATOM     26  O   UNL     1      26.158  35.638  10.571  1.00  0.00    -0.350 OA
BRANCH  26  27
ATOM     27  C   UNL     1      24.770  35.725  10.648  1.00  0.00     0.169 C 
BRANCH  27  28
ATOM     28  C   UNL     1      24.393  37.189  10.643  1.00  0.00     0.119 C 
BRANCH  28  29
ATOM     29  N   UNL     1      23.809  37.537  11.917  1.00  0.00    -0.092 NA
ATOM     30  N   UNL     1      24.421  38.275  12.710  1.00  0.00     0.001 N 
ATOM     31  N   UNL     1      25.148  38.647  13.644  1.00  0.00    -0.003 NA
ENDBRANCH  28  29
ENDBRANCH  27  28
ENDBRANCH  26  27
ENDBRANCH  20  26
BRANCH  21  32
ATOM     32  O   UNL     1      27.962  37.226  14.531  1.00  0.00    -0.387 OA
ATOM     33  H   UNL     1      28.908  37.403  14.299  1.00  0.00     0.211 HD
ENDBRANCH  21  32
BRANCH  22  34
ATOM     34  O   UNL     1      28.621  36.513  11.864  1.00  0.00    -0.385 OA
ATOM     35  H   UNL     1      29.102  35.670  11.710  1.00  0.00     0.211 HD
ENDBRANCH  22  34
ENDBRANCH  16  17
ENDBRANCH  11  16
BRANCH  13  36
ATOM     36  O   UNL     1      23.739  36.086  17.945  1.00  0.00    -0.385 OA
ATOM     37  H   UNL     1      22.801  35.757  18.027  1.00  0.00     0.211 HD
ENDBRANCH  13  36
BRANCH  14  38
ATOM     38  O   UNL     1      24.422  32.731  17.467  1.00  0.00    -0.387 OA
ATOM     39  H   UNL     1      23.829  32.843  16.681  1.00  0.00     0.211 HD
ENDBRANCH  14  38
BRANCH  15  40
ATOM     40  O   UNL     1      26.963  33.396  17.720  1.00  0.00    -0.387 OA
ATOM     41  H   UNL     1      27.862  33.849  17.693  1.00  0.00     0.211 HD
ENDBRANCH  15  40
ENDBRANCH   9  10
ENDBRANCH   8   9
ENDBRANCH   3   8
BRANCH   3  42
ATOM     42  C   UNL     1      30.545  33.920  19.661  1.00  0.00     0.364 C 
ATOM     43  O   UNL     1      31.080  34.447  20.653  1.00  0.00    -0.246 OA
BRANCH  42  44
ATOM     44  O   UNL     1      30.471  32.507  19.731  1.00  0.00    -0.477 OA
ATOM     45  H   UNL     1      30.738  31.977  18.887  1.00  0.00     0.296 HD
ENDBRANCH  42  44
ENDBRANCH   3  42
BRANCH   6  46
ATOM     46  O   UNL     1      29.351  36.536  16.884  1.00  0.00    -0.391 OA
ATOM     47  H   UNL     1      28.721  35.764  16.915  1.00  0.00     0.211 HD
ENDBRANCH   6  46
BRANCH   7  48
ATOM     48  N   UNL     1      31.453  35.031  14.522  1.00  0.00    -0.348 N 
ATOM     49  C   UNL     1      31.558  36.091  13.617  1.00  0.00     0.217 C 
ATOM     50  H   UNL     1      32.100  34.191  14.292  1.00  0.00     0.163 HD
ATOM     51  C   UNL     1      32.540  35.979  12.467  1.00  0.00     0.114 C 
ATOM     52  O   UNL     1      30.887  37.155  13.687  1.00  0.00    -0.275 OA
ENDBRANCH   7  48
ENDBRANCH   1   2
BRANCH   1  53
ATOM     53  O   UNL     1      31.466  31.876  15.025  1.00  0.00    -0.388 OA
ATOM     54  H   UNL     1      31.643  30.966  15.323  1.00  0.00     0.211 HD
ENDBRANCH   1  53
BRANCH   1  55
ATOM     55  C   UNL     1      29.613  31.351  16.332  1.00  0.00     0.165 C 
BRANCH  55  56
ATOM     56  O   UNL     1      30.436  30.672  17.187  1.00  0.00    -0.388 OA
ATOM     57  H   UNL     1      31.094  30.085  16.748  1.00  0.00     0.211 HD
ENDBRANCH  55  56
BRANCH  55  58
ATOM     58  C   UNL     1      28.863  30.427  15.426  1.00  0.00     0.154 C 
BRANCH  58  59
ATOM     59  N   UNL     1      28.257  29.357  16.133  1.00  0.00    -0.319 N 
ATOM     60  C   UNL     1      27.187  29.547  17.038  1.00  0.00     0.407 C 
ATOM     61  H   UNL     1      28.592  28.365  16.004  1.00  0.00     0.167 HD
ATOM     62  O   UNL     1      26.720  30.697  17.261  1.00  0.00    -0.225 OA
BRANCH  60  63
ATOM     63  O   UNL     1      26.593  28.490  17.725  1.00  0.00    -0.443 OA
BRANCH  63  64
ATOM     64  C   UNL     1      25.295  28.738  18.277  1.00  0.00     0.294 C 
BRANCH  64  65
ATOM     65  C   UNL     1      24.311  28.426  17.224  1.00  0.00     0.121 A 
ATOM     66  C   UNL     1      23.819  29.276  16.237  1.00  0.00     0.144 A 
ATOM     67  N   UNL     1      23.713  27.240  17.024  1.00  0.00    -0.131 NA
ATOM     68  N   UNL     1      22.946  28.572  15.480  1.00  0.00    -0.220 N 
ATOM     69  N   UNL     1      22.905  27.353  15.979  1.00  0.00    -0.062 NA
BRANCH  68  70
ATOM     70  C   UNL     1      22.255  29.115  14.367  1.00  0.00     0.067 A 
ATOM     71  C   UNL     1      22.503  30.430  13.974  1.00  0.00     0.036 A 
ATOM     72  C   UNL     1      21.354  28.384  13.669  1.00  0.00     0.028 A 
ATOM     73  C   UNL     1      21.867  30.995  12.913  1.00  0.00    -0.023 A 
ATOM     74  C   UNL     1      20.678  28.920  12.575  1.00  0.00     0.003 A 
ATOM     75  C   UNL     1      20.954  30.221  12.223  1.00  0.00     0.008 A 
BRANCH  73  76
ATOM     76  C   UNL     1      22.119  32.360  12.505  1.00  0.00     0.015 C 
ATOM     77  C   UNL     1      21.207  33.289  12.641  1.00  0.00     0.094 C 
BRANCH  77  78
ATOM     78  C   UNL     1      21.506  34.658  12.214  1.00  0.00     0.328 C 
ATOM     79  O   UNL     1      21.316  35.027  11.050  1.00  0.00    -0.247 OA
BRANCH  78  80
ATOM     80  O   UNL     1      22.018  35.581  13.124  1.00  0.00    -0.478 OA
ATOM     81  H   UNL     1      22.146  36.540  12.794  1.00  0.00     0.297 HD
ENDBRANCH  78  80
ENDBRANCH  77  78
ENDBRANCH  73  76
ENDBRANCH  68  70
ENDBRANCH  64  65
ENDBRANCH  63  64
ENDBRANCH  60  63
ENDBRANCH  58  59
ENDBRANCH  55  58
ENDBRANCH   1  55
TORSDOF 33
BEGIN_RES LYS A 131
REMARK  4 active torsions:
REMARK  status: ('A' for Active; 'I' for Inactive)
REMARK    1  A    between atoms: CA   and  CB  
REMARK    2  A    between atoms: CB   and  CG  
REMARK    3  A    between atoms: CG   and  CD  
REMARK    4  A    between atoms: CD   and  CE  
ROOT
ATOM      1  CA  LYS A 131      29.867  25.555  16.977  1.00 20.52     0.186 C 
ENDROOT
BRANCH   1   2
ATOM      2  CB  LYS A 131      28.345  25.722  17.026  1.00 20.94     0.034 C 
BRANCH   2   3
ATOM      3  CG  LYS A 131      27.603  24.396  16.962  1.00 22.96     0.005 C 
BRANCH   3   4
ATOM      4  CD  LYS A 131      26.136  24.553  17.254  1.00 24.33     0.041 C 
BRANCH   4   5
ATOM      5  CE  LYS A 131      25.860  24.156  18.701  1.00 26.91     0.338 C 
ATOM      6  NZ  LYS A 131      25.782  25.359  19.563  1.00 27.40     0.618 N 
ENDBRANCH   4   5
ENDBRANCH   3   4
ENDBRANCH   2   3
ENDBRANCH   1   2
END_RES LYS A 131
BEGIN_RES LYS A 135
REMARK  4 active torsions:
REMARK  status: ('A' for Active; 'I' for Inactive)
REMARK    5  A    between atoms: CA   and  CB  
REMARK    6  A    between atoms: CB   and  CG  
REMARK    7  A    between atoms: CG   and  CD  
REMARK    8  A    between atoms: CD   and  CE  
ROOT
ATOM      7  CA  LYS A 135      33.193  34.663   9.290  1.00 25.02     0.186 C 
ENDROOT
BRANCH   7   8
ATOM      8  CB  LYS A 135      32.060  35.360  10.034  1.00 26.63     0.034 C 
BRANCH   8   9
ATOM      9  CG  LYS A 135      30.694  35.047   9.481  1.00 29.45     0.005 C 
BRANCH   9  10
ATOM     10  CD  LYS A 135      30.150  36.228   8.693  1.00 32.00     0.041 C 
BRANCH  10  11
ATOM     11  CE  LYS A 135      28.937  35.814   7.881  1.00 34.25     0.338 C 
ATOM     12  NZ  LYS A 135      28.421  34.489   8.325  1.00 35.99     0.618 N 
ENDBRANCH  10  11
ENDBRANCH   9  10
ENDBRANCH   8   9
ENDBRANCH   7   8
END_RES LYS A 135
