REMARK VINA RESULT:    -5.356      6.263     12.672
REMARK INTER + INTRA:         -23.453
REMARK INTER:                  -9.564
REMARK INTRA:                 -13.889
REMARK UNBOUND:                -9.487
REMARK SMILES CC(=O)N[C@@H]1[C@@H](O)C[C@](OC[C@H]2O[C@@H](O[C@H]3[C@H](O)[C@@H](O)[C@H](OCCN=[N+]=[N-])O[C@@H]3CO)[C@H](O)[C@@H](O)[C@H]2O)(C(=O)O)O[C@H]1C(O)[C@H](O)CNC(=O)OCc1cn(Cc2ccc(C(=O)O)cc2)nn1
REMARK SMILES IDX 43 1 42 2 9 3 8 4 41 5 6 6 5 7 10 8 11 9 12 10 14 11 13 12
REMARK SMILES IDX 32 13 34 14 36 15 15 16 16 17 29 18 28 19 21 20 17 21 19 22
REMARK SMILES IDX 30 23 31 24 22 26 23 27 24 28 25 29 26 30 27 31 18 32 20 34
REMARK SMILES IDX 33 36 35 38 37 40 38 42 39 43 40 44 7 46 4 48 2 49 1 51 3 52
REMARK SMILES IDX 44 53 45 55 46 56 47 58 48 59 49 60 50 62 51 63 52 64 53 65
REMARK SMILES IDX 54 66 67 67 55 68 66 69 56 70 57 71 58 72 65 73 59 74 64 75
REMARK SMILES IDX 60 76 61 77 62 78 63 79
REMARK H PARENT 31 25 18 33 20 35 33 37 35 39 37 41 40 45 7 47 4 50 44 54
REMARK H PARENT 46 57 48 61 63 80
REMARK Flexibility Score: inf
ROOT
ATOM      1  C   UNL     1      32.393  31.659  21.434  1.00  0.00     0.176 C 
ENDROOT
BRANCH   1   2
ATOM      2  C   UNL     1      31.981  30.290  22.019  1.00  0.00     0.178 C 
ATOM      3  C   UNL     1      30.386  28.702  21.289  1.00  0.00     0.272 C 
ATOM      4  C   UNL     1      29.723  28.822  22.603  1.00  0.00     0.113 C 
ATOM      5  O   UNL     1      31.333  29.659  21.029  1.00  0.00    -0.332 OA
ATOM      6  C   UNL     1      29.814  30.212  23.197  1.00  0.00     0.145 C 
ATOM      7  C   UNL     1      31.273  30.548  23.286  1.00  0.00     0.142 C 
BRANCH   3   8
ATOM      8  O   UNL     1      29.486  28.790  20.260  1.00  0.00    -0.338 OA
BRANCH   8   9
ATOM      9  C   UNL     1      28.500  27.876  20.141  1.00  0.00     0.199 C 
BRANCH   9  10
ATOM     10  C   UNL     1      27.182  28.569  19.719  1.00  0.00     0.179 C 
ATOM     11  C   UNL     1      26.203  30.681  19.621  1.00  0.00     0.282 C 
ATOM     12  O   UNL     1      27.233  29.876  20.105  1.00  0.00    -0.341 OA
ATOM     13  C   UNL     1      25.104  29.932  18.956  1.00  0.00     0.202 C 
ATOM     14  C   UNL     1      25.703  29.097  17.844  1.00  0.00     0.179 C 
ATOM     15  C   UNL     1      26.968  28.401  18.237  1.00  0.00     0.177 C 
BRANCH  11  16
ATOM     16  O   UNL     1      26.764  31.619  18.755  1.00  0.00    -0.341 OA
BRANCH  16  17
ATOM     17  C   UNL     1      27.453  32.587  19.426  1.00  0.00     0.184 C 
ATOM     18  C   UNL     1      26.936  33.953  19.161  1.00  0.00     0.178 C 
ATOM     19  O   UNL     1      27.482  34.881  20.061  1.00  0.00    -0.341 OA
ATOM     20  C   UNL     1      28.846  34.650  20.251  1.00  0.00     0.281 C 
ATOM     21  C   UNL     1      28.913  32.494  18.943  1.00  0.00     0.180 C 
ATOM     22  C   UNL     1      29.495  33.878  19.141  1.00  0.00     0.202 C 
BRANCH  18  23
ATOM     23  C   UNL     1      25.442  33.996  19.307  1.00  0.00     0.191 C 
BRANCH  23  24
ATOM     24  O   UNL     1      25.183  33.729  20.672  1.00  0.00    -0.394 OA
ATOM     25  H   UNL     1      25.290  32.776  20.857  1.00  0.00     0.210 HD
ENDBRANCH  23  24
ENDBRANCH  18  23
BRANCH  20  26
ATOM     26  O   UNL     1      29.034  34.060  21.479  1.00  0.00    -0.350 OA
BRANCH  26  27
ATOM     27  C   UNL     1      29.091  34.929  22.544  1.00  0.00     0.169 C 
BRANCH  27  28
ATOM     28  C   UNL     1      27.922  34.891  23.470  1.00  0.00     0.119 C 
BRANCH  28  29
ATOM     29  N   UNL     1      27.693  33.475  23.798  1.00  0.00    -0.092 NA
ATOM     30  N   UNL     1      26.612  32.923  23.622  1.00  0.00     0.001 N 
ATOM     31  N   UNL     1      25.429  32.638  23.480  1.00  0.00    -0.003 NA
ENDBRANCH  28  29
ENDBRANCH  27  28
ENDBRANCH  26  27
ENDBRANCH  20  26
BRANCH  21  32
ATOM     32  O   UNL     1      29.598  31.542  19.667  1.00  0.00    -0.387 OA
ATOM     33  H   UNL     1      30.459  31.913  20.046  1.00  0.00     0.211 HD
ENDBRANCH  21  32
BRANCH  22  34
ATOM     34  O   UNL     1      29.474  34.564  17.949  1.00  0.00    -0.385 OA
ATOM     35  H   UNL     1      30.343  34.591  17.512  1.00  0.00     0.211 HD
ENDBRANCH  22  34
ENDBRANCH  16  17
ENDBRANCH  11  16
BRANCH  13  36
ATOM     36  O   UNL     1      24.411  29.109  19.857  1.00  0.00    -0.385 OA
ATOM     37  H   UNL     1      24.008  29.720  20.531  1.00  0.00     0.211 HD
ENDBRANCH  13  36
BRANCH  14  38
ATOM     38  O   UNL     1      25.933  29.864  16.701  1.00  0.00    -0.387 OA
ATOM     39  H   UNL     1      26.227  30.772  16.995  1.00  0.00     0.211 HD
ENDBRANCH  14  38
BRANCH  15  40
ATOM     40  O   UNL     1      28.073  28.855  17.503  1.00  0.00    -0.387 OA
ATOM     41  H   UNL     1      28.589  29.457  18.099  1.00  0.00     0.211 HD
ENDBRANCH  15  40
ENDBRANCH   9  10
ENDBRANCH   8   9
ENDBRANCH   3   8
BRANCH   3  42
ATOM     42  C   UNL     1      31.120  27.384  21.248  1.00  0.00     0.364 C 
ATOM     43  O   UNL     1      31.069  26.591  22.221  1.00  0.00    -0.246 OA
BRANCH  42  44
ATOM     44  O   UNL     1      31.867  27.002  20.146  1.00  0.00    -0.477 OA
ATOM     45  H   UNL     1      32.539  27.692  19.774  1.00  0.00     0.296 HD
ENDBRANCH  42  44
ENDBRANCH   3  42
BRANCH   6  46
ATOM     46  O   UNL     1      29.086  31.058  22.389  1.00  0.00    -0.391 OA
ATOM     47  H   UNL     1      29.063  31.967  22.787  1.00  0.00     0.211 HD
ENDBRANCH   6  46
BRANCH   7  48
ATOM     48  N   UNL     1      31.863  29.741  24.346  1.00  0.00    -0.348 N 
ATOM     49  C   UNL     1      32.737  30.323  25.329  1.00  0.00     0.217 C 
ATOM     50  H   UNL     1      31.702  28.718  24.463  1.00  0.00     0.163 HD
ATOM     51  C   UNL     1      33.323  29.459  26.402  1.00  0.00     0.114 C 
ATOM     52  O   UNL     1      32.984  31.538  25.261  1.00  0.00    -0.275 OA
ENDBRANCH   7  48
ENDBRANCH   1   2
BRANCH   1  53
ATOM     53  O   UNL     1      31.491  32.648  21.657  1.00  0.00    -0.388 OA
ATOM     54  H   UNL     1      31.534  33.427  21.060  1.00  0.00     0.211 HD
ENDBRANCH   1  53
BRANCH   1  55
ATOM     55  C   UNL     1      33.803  32.021  21.833  1.00  0.00     0.165 C 
BRANCH  55  56
ATOM     56  O   UNL     1      34.377  30.969  22.474  1.00  0.00    -0.388 OA
ATOM     57  H   UNL     1      34.110  30.079  22.173  1.00  0.00     0.211 HD
ENDBRANCH  55  56
BRANCH  55  58
ATOM     58  C   UNL     1      33.824  33.348  22.488  1.00  0.00     0.154 C 
BRANCH  58  59
ATOM     59  N   UNL     1      34.394  34.365  21.649  1.00  0.00    -0.319 N 
ATOM     60  C   UNL     1      33.640  35.297  20.904  1.00  0.00     0.407 C 
ATOM     61  H   UNL     1      35.446  34.442  21.565  1.00  0.00     0.167 HD
ATOM     62  O   UNL     1      32.400  35.307  20.921  1.00  0.00    -0.225 OA
BRANCH  60  63
ATOM     63  O   UNL     1      34.236  36.283  20.092  1.00  0.00    -0.443 OA
BRANCH  63  64
ATOM     64  C   UNL     1      33.456  36.964  19.125  1.00  0.00     0.294 C 
BRANCH  64  65
ATOM     65  C   UNL     1      33.663  36.448  17.760  1.00  0.00     0.120 A 
ATOM     66  C   UNL     1      32.750  36.188  16.776  1.00  0.00     0.138 A 
ATOM     67  N   UNL     1      34.868  36.119  17.258  1.00  0.00    -0.132 NA
ATOM     68  N   UNL     1      33.423  35.707  15.708  1.00  0.00    -0.248 N 
ATOM     69  N   UNL     1      34.704  35.675  16.026  1.00  0.00    -0.067 NA
BRANCH  68  70
ATOM     70  C   UNL     1      32.817  35.307  14.464  1.00  0.00     0.181 C 
BRANCH  70  71
ATOM     71  C   UNL     1      31.718  34.350  14.703  1.00  0.00    -0.026 A 
ATOM     72  C   UNL     1      30.455  34.620  14.225  1.00  0.00     0.006 A 
ATOM     73  C   UNL     1      31.948  33.183  15.427  1.00  0.00     0.006 A 
ATOM     74  C   UNL     1      29.467  33.690  14.500  1.00  0.00     0.016 A 
ATOM     75  C   UNL     1      30.960  32.263  15.699  1.00  0.00     0.016 A 
ATOM     76  C   UNL     1      29.700  32.535  15.219  1.00  0.00     0.059 A 
BRANCH  76  77
ATOM     77  C   UNL     1      28.616  31.600  15.479  1.00  0.00     0.335 C 
ATOM     78  O   UNL     1      28.810  30.380  15.391  1.00  0.00    -0.246 OA
BRANCH  77  79
ATOM     79  O   UNL     1      27.371  32.077  15.823  1.00  0.00    -0.478 OA
ATOM     80  H   UNL     1      27.138  32.351  16.776  1.00  0.00     0.297 HD
ENDBRANCH  77  79
ENDBRANCH  76  77
ENDBRANCH  70  71
ENDBRANCH  68  70
ENDBRANCH  64  65
ENDBRANCH  63  64
ENDBRANCH  60  63
ENDBRANCH  58  59
ENDBRANCH  55  58
ENDBRANCH   1  55
TORSDOF 33
BEGIN_RES LYS A 131
REMARK  4 active torsions:
REMARK  status: ('A' for Active; 'I' for Inactive)
REMARK    1  A    between atoms: CA   and  CB  
REMARK    2  A    between atoms: CB   and  CG  
REMARK    3  A    between atoms: CG   and  CD  
REMARK    4  A    between atoms: CD   and  CE  
ROOT
ATOM      1  CA  LYS A 131      29.867  25.555  16.977  1.00 20.52     0.186 C 
ENDROOT
BRANCH   1   2
ATOM      2  CB  LYS A 131      28.345  25.722  17.026  1.00 20.94     0.034 C 
BRANCH   2   3
ATOM      3  CG  LYS A 131      27.599  24.455  16.638  1.00 22.96     0.005 C 
BRANCH   3   4
ATOM      4  CD  LYS A 131      26.928  23.808  17.818  1.00 24.33     0.041 C 
BRANCH   4   5
ATOM      5  CE  LYS A 131      26.307  24.884  18.703  1.00 26.91     0.338 C 
ATOM      6  NZ  LYS A 131      24.947  25.228  18.226  1.00 27.40     0.618 N 
ENDBRANCH   4   5
ENDBRANCH   3   4
ENDBRANCH   2   3
ENDBRANCH   1   2
END_RES LYS A 131
BEGIN_RES LYS A 135
REMARK  4 active torsions:
REMARK  status: ('A' for Active; 'I' for Inactive)
REMARK    5  A    between atoms: CA   and  CB  
REMARK    6  A    between atoms: CB   and  CG  
REMARK    7  A    between atoms: CG   and  CD  
REMARK    8  A    between atoms: CD   and  CE  
ROOT
ATOM      7  CA  LYS A 135      33.193  34.663   9.290  1.00 25.02     0.186 C 
ENDROOT
BRANCH   7   8
ATOM      8  CB  LYS A 135      32.060  35.360  10.034  1.00 26.63     0.034 C 
BRANCH   8   9
ATOM      9  CG  LYS A 135      30.711  34.729   9.805  1.00 29.45     0.005 C 
BRANCH   9  10
ATOM     10  CD  LYS A 135      30.497  34.441   8.327  1.00 32.00     0.041 C 
BRANCH  10  11
ATOM     11  CE  LYS A 135      29.107  34.871   7.897  1.00 34.25     0.338 C 
ATOM     12  NZ  LYS A 135      28.066  34.299   8.796  1.00 35.99     0.618 N 
ENDBRANCH  10  11
ENDBRANCH   9  10
ENDBRANCH   8   9
ENDBRANCH   7   8
END_RES LYS A 135
