REMARK VINA RESULT:    -4.388      4.091      8.928
REMARK INTER + INTRA:         -22.821
REMARK INTER:                 -11.628
REMARK INTRA:                 -11.193
REMARK UNBOUND:               -11.507
REMARK SMILES COc1ccc(Cn2cc(COC(=O)NC[C@@H](O)C(O)[C@@H]3O[C@@](OC[C@H]4O[C@@H](O[C@H]5[C@H](O)[C@@H](O)[C@H](OCCN=[N+]=[N-])O[C@@H]5CO)[C@H](O)[C@@H](O)[C@H]4O)(C(=O)O)C[C@H](O)[C@H]3NC(C)=O)nn2)cc1
REMARK SMILES IDX 23 1 55 2 56 3 58 4 21 5 22 6 24 7 25 8 26 9 28 10 27 11
REMARK SMILES IDX 46 12 48 13 50 14 29 15 30 16 43 17 42 18 35 19 31 20 33 21
REMARK SMILES IDX 44 22 45 23 36 25 37 26 38 27 39 28 40 29 41 30 32 31 34 33
REMARK SMILES IDX 47 35 49 37 51 39 52 41 53 42 54 43 57 45 19 47 20 48 17 50
REMARK SMILES IDX 18 51 16 53 15 54 13 55 14 57 12 58 11 59 10 60 9 61 63 62
REMARK SMILES IDX 8 63 64 64 7 65 6 66 5 67 65 68 4 69 66 70 3 71 2 72 1 73
REMARK SMILES IDX 59 74 60 75 61 77 62 78
REMARK H PARENT 45 24 32 32 34 34 47 36 49 38 51 40 54 44 57 46 20 49 18 52
REMARK H PARENT 15 56 59 76
REMARK Flexibility Score: inf
ROOT
ATOM      1  C   UNL     1      23.006  33.394  13.043  1.00  0.00     0.272 C 
ATOM      2  C   UNL     1      22.487  33.618  14.448  1.00  0.00     0.113 C 
ATOM      3  C   UNL     1      23.364  32.886  15.443  1.00  0.00     0.145 C 
ATOM      4  C   UNL     1      24.833  33.081  15.209  1.00  0.00     0.142 C 
ATOM      5  C   UNL     1      25.142  33.895  13.964  1.00  0.00     0.178 C 
ATOM      6  O   UNL     1      24.325  33.550  12.905  1.00  0.00    -0.332 OA
ENDROOT
BRANCH   1   7
ATOM      7  O   UNL     1      22.192  33.933  12.106  1.00  0.00    -0.338 OA
BRANCH   7   8
ATOM      8  C   UNL     1      21.970  35.246  11.981  1.00  0.00     0.199 C 
BRANCH   8   9
ATOM      9  C   UNL     1      22.371  35.794  10.628  1.00  0.00     0.179 C 
ATOM     10  C   UNL     1      22.346  37.783   9.520  1.00  0.00     0.282 C 
ATOM     11  O   UNL     1      22.683  37.177  10.751  1.00  0.00    -0.341 OA
ATOM     12  C   UNL     1      22.750  36.947   8.362  1.00  0.00     0.202 C 
ATOM     13  C   UNL     1      23.708  35.837   8.632  1.00  0.00     0.179 C 
ATOM     14  C   UNL     1      23.548  35.165   9.981  1.00  0.00     0.177 C 
BRANCH  10  15
ATOM     15  O   UNL     1      22.677  39.108   9.493  1.00  0.00    -0.341 OA
BRANCH  15  16
ATOM     16  C   UNL     1      23.931  39.427   9.017  1.00  0.00     0.184 C 
ATOM     17  C   UNL     1      24.787  40.233   9.963  1.00  0.00     0.178 C 
ATOM     18  O   UNL     1      25.683  41.037   9.260  1.00  0.00    -0.341 OA
ATOM     19  C   UNL     1      26.099  40.459   8.048  1.00  0.00     0.281 C 
ATOM     20  C   UNL     1      23.679  40.409   7.856  1.00  0.00     0.180 C 
ATOM     21  C   UNL     1      24.939  40.422   7.035  1.00  0.00     0.202 C 
BRANCH  17  22
ATOM     22  C   UNL     1      25.591  39.425  10.932  1.00  0.00     0.191 C 
BRANCH  22  23
ATOM     23  O   UNL     1      25.418  38.070  10.659  1.00  0.00    -0.394 OA
ATOM     24  H   UNL     1      26.056  37.834   9.926  1.00  0.00     0.210 HD
ENDBRANCH  22  23
ENDBRANCH  17  22
BRANCH  19  25
ATOM     25  O   UNL     1      26.674  39.236   8.173  1.00  0.00    -0.350 OA
BRANCH  25  26
ATOM     26  C   UNL     1      27.059  38.559   7.057  1.00  0.00     0.169 C 
BRANCH  26  27
ATOM     27  C   UNL     1      28.354  38.923   6.434  1.00  0.00     0.119 C 
BRANCH  27  28
ATOM     28  N   UNL     1      28.302  39.127   5.028  1.00  0.00    -0.092 NA
ATOM     29  N   UNL     1      27.360  39.667   4.430  1.00  0.00     0.001 N 
ATOM     30  N   UNL     1      26.722  40.537   3.796  1.00  0.00    -0.003 NA
ENDBRANCH  27  28
ENDBRANCH  26  27
ENDBRANCH  25  26
ENDBRANCH  19  25
BRANCH  20  31
ATOM     31  O   UNL     1      22.542  40.112   7.159  1.00  0.00    -0.387 OA
ATOM     32  H   UNL     1      22.341  40.800   6.447  1.00  0.00     0.211 HD
ENDBRANCH  20  31
BRANCH  21  33
ATOM     33  O   UNL     1      24.978  41.519   6.175  1.00  0.00    -0.385 OA
ATOM     34  H   UNL     1      25.549  41.296   5.394  1.00  0.00     0.211 HD
ENDBRANCH  21  33
ENDBRANCH  15  16
ENDBRANCH  10  15
BRANCH  12  35
ATOM     35  O   UNL     1      21.629  36.457   7.645  1.00  0.00    -0.385 OA
ATOM     36  H   UNL     1      21.764  35.479   7.454  1.00  0.00     0.211 HD
ENDBRANCH  12  35
BRANCH  13  37
ATOM     37  O   UNL     1      25.049  36.241   8.426  1.00  0.00    -0.387 OA
ATOM     38  H   UNL     1      25.625  35.693   9.018  1.00  0.00     0.211 HD
ENDBRANCH  13  37
BRANCH  14  39
ATOM     39  O   UNL     1      24.709  35.255  10.742  1.00  0.00    -0.387 OA
ATOM     40  H   UNL     1      25.456  34.741  10.348  1.00  0.00     0.211 HD
ENDBRANCH  14  39
ENDBRANCH   8   9
ENDBRANCH   7   8
ENDBRANCH   1   7
BRANCH   1  41
ATOM     41  C   UNL     1      22.663  31.883  12.824  1.00  0.00     0.364 C 
ATOM     42  O   UNL     1      21.476  31.542  12.630  1.00  0.00    -0.246 OA
BRANCH  41  43
ATOM     43  O   UNL     1      23.599  30.908  12.831  1.00  0.00    -0.477 OA
ATOM     44  H   UNL     1      24.586  30.984  12.843  1.00  0.00     0.296 HD
ENDBRANCH  41  43
ENDBRANCH   1  41
BRANCH   3  45
ATOM     45  O   UNL     1      22.997  33.457  16.697  1.00  0.00    -0.391 OA
ATOM     46  H   UNL     1      22.964  34.445  16.624  1.00  0.00     0.211 HD
ENDBRANCH   3  45
BRANCH   5  47
ATOM     47  C   UNL     1      25.206  35.318  14.363  1.00  0.00     0.176 C 
BRANCH  47  48
ATOM     48  O   UNL     1      25.218  36.222  13.261  1.00  0.00    -0.388 OA
ATOM     49  H   UNL     1      26.150  36.487  13.109  1.00  0.00     0.211 HD
ENDBRANCH  47  48
BRANCH  47  50
ATOM     50  C   UNL     1      26.574  35.733  14.979  1.00  0.00     0.165 C 
BRANCH  50  51
ATOM     51  O   UNL     1      26.712  36.996  15.395  1.00  0.00    -0.388 OA
ATOM     52  H   UNL     1      26.027  37.230  16.070  1.00  0.00     0.211 HD
ENDBRANCH  50  51
BRANCH  50  53
ATOM     53  C   UNL     1      27.647  35.368  13.929  1.00  0.00     0.154 C 
BRANCH  53  54
ATOM     54  N   UNL     1      28.440  36.486  13.535  1.00  0.00    -0.319 N 
ATOM     55  C   UNL     1      28.373  36.959  12.184  1.00  0.00     0.407 C 
ATOM     56  H   UNL     1      29.062  36.962  14.196  1.00  0.00     0.167 HD
ATOM     57  O   UNL     1      27.608  36.376  11.366  1.00  0.00    -0.225 OA
BRANCH  55  58
ATOM     58  O   UNL     1      29.155  38.043  11.830  1.00  0.00    -0.443 OA
BRANCH  58  59
ATOM     59  C   UNL     1      30.550  37.842  11.530  1.00  0.00     0.294 C 
BRANCH  59  60
ATOM     60  C   UNL     1      31.228  37.418  12.773  1.00  0.00     0.120 A 
ATOM     61  C   UNL     1      32.038  36.291  12.947  1.00  0.00     0.138 A 
ATOM     62  N   UNL     1      31.191  38.018  13.968  1.00  0.00    -0.132 NA
ATOM     63  N   UNL     1      32.433  36.280  14.225  1.00  0.00    -0.248 N 
ATOM     64  N   UNL     1      31.912  37.334  14.834  1.00  0.00    -0.067 NA
BRANCH  63  65
ATOM     65  C   UNL     1      33.280  35.290  14.841  1.00  0.00     0.181 C 
BRANCH  65  66
ATOM     66  C   UNL     1      32.446  34.378  15.654  1.00  0.00    -0.026 A 
ATOM     67  C   UNL     1      32.211  34.671  16.994  1.00  0.00     0.009 A 
ATOM     68  C   UNL     1      31.867  33.245  15.145  1.00  0.00     0.009 A 
ATOM     69  C   UNL     1      31.429  33.866  17.794  1.00  0.00     0.047 A 
ATOM     70  C   UNL     1      31.073  32.429  15.957  1.00  0.00     0.047 A 
ATOM     71  C   UNL     1      30.844  32.720  17.274  1.00  0.00     0.118 A 
BRANCH  71  72
ATOM     72  O   UNL     1      30.068  31.946  18.116  1.00  0.00    -0.497 OA
ATOM     73  C   UNL     1      29.494  32.390  19.310  1.00  0.00     0.278 C 
ENDBRANCH  71  72
ENDBRANCH  65  66
ENDBRANCH  63  65
ENDBRANCH  59  60
ENDBRANCH  58  59
ENDBRANCH  55  58
ENDBRANCH  53  54
ENDBRANCH  50  53
ENDBRANCH  47  50
ENDBRANCH   5  47
BRANCH   4  74
ATOM     74  N   UNL     1      25.633  31.878  15.284  1.00  0.00    -0.348 N 
ATOM     75  C   UNL     1      26.904  31.791  15.916  1.00  0.00     0.217 C 
ATOM     76  H   UNL     1      25.279  31.017  14.842  1.00  0.00     0.163 HD
ATOM     77  C   UNL     1      27.655  30.478  15.928  1.00  0.00     0.114 C 
ATOM     78  O   UNL     1      27.401  32.804  16.462  1.00  0.00    -0.275 OA
ENDBRANCH   4  74
TORSDOF 32
BEGIN_RES LYS A 131
REMARK  4 active torsions:
REMARK  status: ('A' for Active; 'I' for Inactive)
REMARK    1  A    between atoms: CA   and  CB  
REMARK    2  A    between atoms: CB   and  CG  
REMARK    3  A    between atoms: CG   and  CD  
REMARK    4  A    between atoms: CD   and  CE  
ROOT
ATOM      1  CA  LYS A 131      29.867  25.555  16.977  1.00 20.52     0.186 C 
ENDROOT
BRANCH   1   2
ATOM      2  CB  LYS A 131      28.345  25.722  17.026  1.00 20.94     0.034 C 
BRANCH   2   3
ATOM      3  CG  LYS A 131      27.601  24.401  16.905  1.00 22.96     0.005 C 
BRANCH   3   4
ATOM      4  CD  LYS A 131      26.352  24.375  17.741  1.00 24.33     0.041 C 
BRANCH   4   5
ATOM      5  CE  LYS A 131      26.251  25.668  18.545  1.00 26.91     0.338 C 
ATOM      6  NZ  LYS A 131      25.036  26.424  18.161  1.00 27.40     0.618 N 
ENDBRANCH   4   5
ENDBRANCH   3   4
ENDBRANCH   2   3
ENDBRANCH   1   2
END_RES LYS A 131
BEGIN_RES LYS A 135
REMARK  4 active torsions:
REMARK  status: ('A' for Active; 'I' for Inactive)
REMARK    5  A    between atoms: CA   and  CB  
REMARK    6  A    between atoms: CB   and  CG  
REMARK    7  A    between atoms: CG   and  CD  
REMARK    8  A    between atoms: CD   and  CE  
ROOT
ATOM      7  CA  LYS A 135      33.193  34.663   9.290  1.00 25.02     0.186 C 
ENDROOT
BRANCH   7   8
ATOM      8  CB  LYS A 135      32.060  35.360  10.034  1.00 26.63     0.034 C 
BRANCH   8   9
ATOM      9  CG  LYS A 135      30.715  34.714   9.825  1.00 29.45     0.005 C 
BRANCH   9  10
ATOM     10  CD  LYS A 135      30.029  35.289   8.595  1.00 32.00     0.041 C 
BRANCH  10  11
ATOM     11  CE  LYS A 135      28.752  34.528   8.293  1.00 34.25     0.338 C 
ATOM     12  NZ  LYS A 135      28.295  33.754   9.481  1.00 35.99     0.618 N 
ENDBRANCH  10  11
ENDBRANCH   9  10
ENDBRANCH   8   9
ENDBRANCH   7   8
END_RES LYS A 135
