REMARK VINA RESULT:    -4.390      4.987     10.591
REMARK INTER + INTRA:         -22.510
REMARK INTER:                 -11.529
REMARK INTRA:                 -10.981
REMARK UNBOUND:               -11.447
REMARK SMILES CC(=O)N[C@@H]1[C@@H](O)C[C@](OC[C@H]2O[C@@H](O[C@H]3[C@H](O)[C@@H](O)[C@H](OCCN=[N+]=[N-])O[C@@H]3CO)[C@H](O)[C@@H](O)[C@H]2O)(C(=O)O)O[C@H]1C(O)[C@H](O)CNC(=O)OCc1cn(-c2ccccc2C(C)C)nn1
REMARK SMILES IDX 9 1 8 2 6 3 5 4 42 5 41 6 10 7 11 8 12 9 14 10 13 11 32 12
REMARK SMILES IDX 34 13 36 14 15 15 16 16 29 17 28 18 21 19 17 20 19 21 30 22
REMARK SMILES IDX 31 23 22 25 23 26 24 27 25 28 26 29 27 30 18 31 20 33 33 35
REMARK SMILES IDX 35 37 37 39 38 41 39 42 40 43 7 45 43 47 44 48 45 50 46 51
REMARK SMILES IDX 47 53 48 54 49 55 50 57 51 58 52 59 53 60 54 61 66 62 55 63
REMARK SMILES IDX 65 64 56 65 61 66 57 67 60 68 58 69 59 70 62 71 63 72 64 73
REMARK SMILES IDX 4 74 2 75 1 77 3 78
REMARK H PARENT 31 24 18 32 20 34 33 36 35 38 37 40 40 44 7 46 44 49 46 52
REMARK H PARENT 48 56 4 76
REMARK Flexibility Score: inf
ROOT
ATOM      1  C   UNL     1      30.002  32.570  17.993  1.00  0.00     0.272 C 
ATOM      2  C   UNL     1      30.267  31.142  17.576  1.00  0.00     0.113 C 
ATOM      3  C   UNL     1      29.070  30.673  16.763  1.00  0.00     0.145 C 
ATOM      4  C   UNL     1      27.886  30.566  17.740  1.00  0.00     0.142 C 
ATOM      5  C   UNL     1      27.811  31.844  18.488  1.00  0.00     0.178 C 
ATOM      6  O   UNL     1      28.600  32.798  17.863  1.00  0.00    -0.332 OA
ENDROOT
BRANCH   1   7
ATOM      7  O   UNL     1      30.544  33.463  17.144  1.00  0.00    -0.338 OA
BRANCH   7   8
ATOM      8  C   UNL     1      31.587  33.412  16.390  1.00  0.00     0.199 C 
BRANCH   8   9
ATOM      9  C   UNL     1      31.743  34.149  15.099  1.00  0.00     0.179 C 
ATOM     10  C   UNL     1      30.717  34.721  13.153  1.00  0.00     0.282 C 
ATOM     11  O   UNL     1      30.767  33.859  14.178  1.00  0.00    -0.341 OA
ATOM     12  C   UNL     1      31.935  35.611  12.951  1.00  0.00     0.202 C 
ATOM     13  C   UNL     1      32.288  36.362  14.207  1.00  0.00     0.179 C 
ATOM     14  C   UNL     1      31.660  35.668  15.379  1.00  0.00     0.177 C 
BRANCH  10  15
ATOM     15  O   UNL     1      29.608  35.501  13.021  1.00  0.00    -0.341 OA
BRANCH  15  16
ATOM     16  C   UNL     1      28.372  34.911  12.941  1.00  0.00     0.184 C 
ATOM     17  C   UNL     1      27.585  35.328  11.742  1.00  0.00     0.178 C 
ATOM     18  O   UNL     1      26.393  35.889  12.038  1.00  0.00    -0.341 OA
ATOM     19  C   UNL     1      25.501  35.231  12.826  1.00  0.00     0.281 C 
ATOM     20  C   UNL     1      27.560  34.963  14.170  1.00  0.00     0.180 C 
ATOM     21  C   UNL     1      26.203  34.353  13.864  1.00  0.00     0.202 C 
BRANCH  17  22
ATOM     22  C   UNL     1      27.337  34.183  10.747  1.00  0.00     0.191 C 
BRANCH  22  23
ATOM     23  O   UNL     1      26.582  34.718   9.679  1.00  0.00    -0.394 OA
ATOM     24  H   UNL     1      25.867  34.035   9.483  1.00  0.00     0.210 HD
ENDBRANCH  22  23
ENDBRANCH  17  22
BRANCH  19  25
ATOM     25  O   UNL     1      24.694  34.421  12.074  1.00  0.00    -0.350 OA
BRANCH  25  26
ATOM     26  C   UNL     1      23.487  34.902  11.676  1.00  0.00     0.169 C 
BRANCH  26  27
ATOM     27  C   UNL     1      22.280  34.081  11.941  1.00  0.00     0.119 C 
BRANCH  27  28
ATOM     28  N   UNL     1      21.686  34.388  13.198  1.00  0.00    -0.092 NA
ATOM     29  N   UNL     1      22.052  34.017  14.295  1.00  0.00     0.001 N 
ATOM     30  N   UNL     1      22.633  33.687  15.322  1.00  0.00    -0.003 NA
ENDBRANCH  27  28
ENDBRANCH  26  27
ENDBRANCH  25  26
ENDBRANCH  19  25
BRANCH  20  31
ATOM     31  O   UNL     1      28.079  34.233  15.238  1.00  0.00    -0.387 OA
ATOM     32  H   UNL     1      27.434  34.272  15.978  1.00  0.00     0.211 HD
ENDBRANCH  20  31
BRANCH  21  33
ATOM     33  O   UNL     1      25.405  34.326  15.009  1.00  0.00    -0.385 OA
ATOM     34  H   UNL     1      24.504  34.030  14.724  1.00  0.00     0.211 HD
ENDBRANCH  21  33
ENDBRANCH  15  16
ENDBRANCH  10  15
BRANCH  12  35
ATOM     35  O   UNL     1      32.985  34.807  12.541  1.00  0.00    -0.385 OA
ATOM     36  H   UNL     1      33.858  35.299  12.662  1.00  0.00     0.211 HD
ENDBRANCH  12  35
BRANCH  13  37
ATOM     37  O   UNL     1      31.836  37.684  14.092  1.00  0.00    -0.387 OA
ATOM     38  H   UNL     1      30.904  37.633  13.766  1.00  0.00     0.211 HD
ENDBRANCH  13  37
BRANCH  14  39
ATOM     39  O   UNL     1      30.322  35.994  15.455  1.00  0.00    -0.387 OA
ATOM     40  H   UNL     1      30.179  36.501  16.293  1.00  0.00     0.211 HD
ENDBRANCH  14  39
ENDBRANCH   8   9
ENDBRANCH   7   8
ENDBRANCH   1   7
BRANCH   1  41
ATOM     41  C   UNL     1      30.366  32.805  19.396  1.00  0.00     0.364 C 
ATOM     42  O   UNL     1      30.312  34.022  19.800  1.00  0.00    -0.246 OA
BRANCH  41  43
ATOM     43  O   UNL     1      30.761  31.900  20.344  1.00  0.00    -0.477 OA
ATOM     44  H   UNL     1      30.167  31.325  20.912  1.00  0.00     0.296 HD
ENDBRANCH  41  43
ENDBRANCH   1  41
BRANCH   3  45
ATOM     45  O   UNL     1      28.696  31.671  15.856  1.00  0.00    -0.391 OA
ATOM     46  H   UNL     1      27.739  31.532  15.649  1.00  0.00     0.211 HD
ENDBRANCH   3  45
BRANCH   5  47
ATOM     47  C   UNL     1      26.462  32.481  18.632  1.00  0.00     0.176 C 
BRANCH  47  48
ATOM     48  O   UNL     1      26.143  32.882  17.287  1.00  0.00    -0.388 OA
ATOM     49  H   UNL     1      25.878  32.000  16.875  1.00  0.00     0.211 HD
ENDBRANCH  47  48
BRANCH  47  50
ATOM     50  C   UNL     1      26.390  33.734  19.444  1.00  0.00     0.165 C 
BRANCH  50  51
ATOM     51  O   UNL     1      27.454  33.920  20.286  1.00  0.00    -0.388 OA
ATOM     52  H   UNL     1      27.308  33.325  21.066  1.00  0.00     0.211 HD
ENDBRANCH  50  51
BRANCH  50  53
ATOM     53  C   UNL     1      25.034  34.043  19.956  1.00  0.00     0.154 C 
BRANCH  53  54
ATOM     54  N   UNL     1      24.066  32.969  19.845  1.00  0.00    -0.319 N 
ATOM     55  C   UNL     1      23.567  32.299  20.988  1.00  0.00     0.407 C 
ATOM     56  H   UNL     1      23.696  32.646  18.926  1.00  0.00     0.167 HD
ATOM     57  O   UNL     1      23.916  32.568  22.160  1.00  0.00    -0.225 OA
BRANCH  55  58
ATOM     58  O   UNL     1      22.617  31.253  20.906  1.00  0.00    -0.443 OA
BRANCH  58  59
ATOM     59  C   UNL     1      21.711  31.216  19.846  1.00  0.00     0.294 C 
BRANCH  59  60
ATOM     60  C   UNL     1      22.345  30.497  18.705  1.00  0.00     0.121 A 
ATOM     61  C   UNL     1      22.312  30.758  17.353  1.00  0.00     0.144 A 
ATOM     62  N   UNL     1      23.127  29.376  18.805  1.00  0.00    -0.131 NA
ATOM     63  N   UNL     1      23.030  29.852  16.668  1.00  0.00    -0.220 N 
ATOM     64  N   UNL     1      23.515  29.018  17.598  1.00  0.00    -0.062 NA
BRANCH  63  65
ATOM     65  C   UNL     1      23.267  29.753  15.268  1.00  0.00     0.070 A 
ATOM     66  C   UNL     1      22.541  28.849  14.523  1.00  0.00    -0.020 A 
ATOM     67  C   UNL     1      24.203  30.512  14.603  1.00  0.00     0.029 A 
ATOM     68  C   UNL     1      22.751  28.713  13.165  1.00  0.00     0.006 A 
ATOM     69  C   UNL     1      24.425  30.389  13.244  1.00  0.00     0.002 A 
ATOM     70  C   UNL     1      23.689  29.477  12.513  1.00  0.00     0.000 A 
BRANCH  66  71
ATOM     71  C   UNL     1      21.519  28.023  15.196  1.00  0.00     0.015 C 
ATOM     72  C   UNL     1      22.107  26.639  15.425  1.00  0.00     0.012 C 
ATOM     73  C   UNL     1      20.302  27.864  14.270  1.00  0.00     0.012 C 
ENDBRANCH  66  71
ENDBRANCH  63  65
ENDBRANCH  59  60
ENDBRANCH  58  59
ENDBRANCH  55  58
ENDBRANCH  53  54
ENDBRANCH  50  53
ENDBRANCH  47  50
ENDBRANCH   5  47
BRANCH   4  74
ATOM     74  N   UNL     1      28.144  29.426  18.590  1.00  0.00    -0.348 N 
ATOM     75  C   UNL     1      27.466  28.199  18.525  1.00  0.00     0.217 C 
ATOM     76  H   UNL     1      28.904  29.525  19.328  1.00  0.00     0.163 HD
ATOM     77  C   UNL     1      27.851  27.110  19.485  1.00  0.00     0.114 C 
ATOM     78  O   UNL     1      26.568  28.011  17.694  1.00  0.00    -0.275 OA
ENDBRANCH   4  74
TORSDOF 31
BEGIN_RES LYS A 131
REMARK  4 active torsions:
REMARK  status: ('A' for Active; 'I' for Inactive)
REMARK    1  A    between atoms: CA   and  CB  
REMARK    2  A    between atoms: CB   and  CG  
REMARK    3  A    between atoms: CG   and  CD  
REMARK    4  A    between atoms: CD   and  CE  
ROOT
ATOM      1  CA  LYS A 131      29.867  25.555  16.977  1.00 20.52     0.186 C 
ENDROOT
BRANCH   1   2
ATOM      2  CB  LYS A 131      28.345  25.722  17.026  1.00 20.94     0.034 C 
BRANCH   2   3
ATOM      3  CG  LYS A 131      27.601  24.402  16.889  1.00 22.96     0.005 C 
BRANCH   3   4
ATOM      4  CD  LYS A 131      26.152  24.527  17.271  1.00 24.33     0.041 C 
BRANCH   4   5
ATOM      5  CE  LYS A 131      25.909  23.799  18.589  1.00 26.91     0.338 C 
ATOM      6  NZ  LYS A 131      25.032  24.604  19.472  1.00 27.40     0.618 N 
ENDBRANCH   4   5
ENDBRANCH   3   4
ENDBRANCH   2   3
ENDBRANCH   1   2
END_RES LYS A 131
BEGIN_RES LYS A 135
REMARK  4 active torsions:
REMARK  status: ('A' for Active; 'I' for Inactive)
REMARK    5  A    between atoms: CA   and  CB  
REMARK    6  A    between atoms: CB   and  CG  
REMARK    7  A    between atoms: CG   and  CD  
REMARK    8  A    between atoms: CD   and  CE  
ROOT
ATOM      7  CA  LYS A 135      33.193  34.663   9.290  1.00 25.02     0.186 C 
ENDROOT
BRANCH   7   8
ATOM      8  CB  LYS A 135      32.060  35.360  10.034  1.00 26.63     0.034 C 
BRANCH   8   9
ATOM      9  CG  LYS A 135      30.694  34.825   9.689  1.00 29.45     0.005 C 
BRANCH   9  10
ATOM     10  CD  LYS A 135      30.457  34.886   8.188  1.00 32.00     0.041 C 
BRANCH  10  11
ATOM     11  CE  LYS A 135      29.352  35.872   7.862  1.00 34.25     0.338 C 
ATOM     12  NZ  LYS A 135      28.818  35.646   6.491  1.00 35.99     0.618 N 
ENDBRANCH  10  11
ENDBRANCH   9  10
ENDBRANCH   8   9
ENDBRANCH   7   8
END_RES LYS A 135
