REMARK VINA RESULT:    -4.812      3.666      9.209
REMARK INTER + INTRA:         -25.604
REMARK INTER:                 -13.721
REMARK INTRA:                 -11.883
REMARK UNBOUND:               -11.931
REMARK SMILES CC(=O)N[C@@H]1[C@@H](O)C[C@](OC[C@H]2O[C@@H](O[C@H]3[C@H](O)[C@@H](O)[C@H](OCCN=[N+]=[N-])O[C@@H]3CO)[C@H](O)[C@@H](O)[C@H]2O)(C(=O)O)O[C@H]1C(O)[C@H](O)CNC(=O)OCc1cn(CC(=O)NCC(O)Cn2ccnc2[N+](=O)[O-])nn1
REMARK SMILES IDX 47 1 45 2 43 3 42 4 9 5 8 6 41 7 6 8 5 9 10 10 11 11 12 12
REMARK SMILES IDX 14 13 13 14 32 15 34 16 36 17 15 18 16 19 29 20 28 21 21 22
REMARK SMILES IDX 17 23 19 24 30 25 31 26 22 28 23 29 24 30 25 31 26 32 27 33
REMARK SMILES IDX 18 34 20 36 33 38 35 40 37 42 38 44 39 45 40 46 7 48 4 50
REMARK SMILES IDX 2 51 1 53 3 54 44 55 46 57 48 59 49 60 50 62 51 63 52 64
REMARK SMILES IDX 53 65 54 66 73 67 55 68 72 69 56 70 57 71 58 72 59 73 60 75
REMARK SMILES IDX 61 76 62 77 63 79 64 80 65 81 68 82 66 83 67 84 69 85 70 86
REMARK SMILES IDX 71 87
REMARK H PARENT 31 27 18 35 20 37 33 39 35 41 37 43 40 47 7 49 4 52 44 56
REMARK H PARENT 46 58 48 61 59 74 62 78
REMARK Flexibility Score: inf
ROOT
ATOM      1  C   UNL     1      33.422  35.332  14.158  1.00  0.00     0.154 C 
ENDROOT
BRANCH   1   2
ATOM      2  C   UNL     1      32.698  35.592  12.879  1.00  0.00     0.165 C 
BRANCH   2   3
ATOM      3  C   UNL     1      32.101  36.941  12.724  1.00  0.00     0.176 C 
BRANCH   3   4
ATOM      4  C   UNL     1      30.738  37.186  13.225  1.00  0.00     0.178 C 
ATOM      5  C   UNL     1      28.576  36.360  13.441  1.00  0.00     0.272 C 
ATOM      6  C   UNL     1      28.560  37.364  14.540  1.00  0.00     0.113 C 
ATOM      7  O   UNL     1      29.842  36.208  12.847  1.00  0.00    -0.332 OA
ATOM      8  C   UNL     1      29.125  38.697  14.181  1.00  0.00     0.145 C 
ATOM      9  C   UNL     1      30.144  38.528  13.018  1.00  0.00     0.142 C 
BRANCH   5  10
ATOM     10  O   UNL     1      27.668  36.527  12.437  1.00  0.00    -0.338 OA
BRANCH  10  11
ATOM     11  C   UNL     1      26.404  36.897  12.776  1.00  0.00     0.199 C 
BRANCH  11  12
ATOM     12  C   UNL     1      25.789  37.877  11.797  1.00  0.00     0.179 C 
ATOM     13  C   UNL     1      26.359  39.360  10.091  1.00  0.00     0.282 C 
ATOM     14  O   UNL     1      26.649  38.809  11.334  1.00  0.00    -0.341 OA
ATOM     15  C   UNL     1      24.874  39.510   9.877  1.00  0.00     0.202 C 
ATOM     16  C   UNL     1      24.156  38.188  10.018  1.00  0.00     0.179 C 
ATOM     17  C   UNL     1      25.064  37.171  10.683  1.00  0.00     0.177 C 
BRANCH  13  18
ATOM     18  O   UNL     1      26.903  38.698   9.049  1.00  0.00    -0.341 OA
BRANCH  18  19
ATOM     19  C   UNL     1      28.080  39.055   8.510  1.00  0.00     0.184 C 
ATOM     20  C   UNL     1      28.139  39.212   7.014  1.00  0.00     0.178 C 
ATOM     21  O   UNL     1      29.268  39.991   6.749  1.00  0.00    -0.341 OA
ATOM     22  C   UNL     1      30.438  39.285   7.007  1.00  0.00     0.281 C 
ATOM     23  C   UNL     1      29.200  38.049   8.821  1.00  0.00     0.180 C 
ATOM     24  C   UNL     1      30.486  38.721   8.395  1.00  0.00     0.202 C 
BRANCH  20  25
ATOM     25  C   UNL     1      26.947  39.985   6.533  1.00  0.00     0.191 C 
BRANCH  25  26
ATOM     26  O   UNL     1      25.811  39.171   6.422  1.00  0.00    -0.394 OA
ATOM     27  H   UNL     1      25.367  39.240   7.325  1.00  0.00     0.210 HD
ENDBRANCH  25  26
ENDBRANCH  20  25
BRANCH  22  28
ATOM     28  O   UNL     1      31.496  40.182   6.881  1.00  0.00    -0.350 OA
BRANCH  28  29
ATOM     29  C   UNL     1      32.090  40.093   5.621  1.00  0.00     0.169 C 
BRANCH  29  30
ATOM     30  C   UNL     1      32.309  41.535   5.155  1.00  0.00     0.119 C 
BRANCH  30  31
ATOM     31  N   UNL     1      33.698  41.917   5.334  1.00  0.00    -0.092 NA
ATOM     32  N   UNL     1      34.022  42.339   6.465  1.00  0.00     0.001 N 
ATOM     33  N   UNL     1      34.460  42.478   7.599  1.00  0.00    -0.003 NA
ENDBRANCH  30  31
ENDBRANCH  29  30
ENDBRANCH  28  29
ENDBRANCH  22  28
BRANCH  23  34
ATOM     34  O   UNL     1      29.301  37.815  10.188  1.00  0.00    -0.387 OA
ATOM     35  H   UNL     1      30.197  38.200  10.447  1.00  0.00     0.211 HD
ENDBRANCH  23  34
BRANCH  24  36
ATOM     36  O   UNL     1      31.590  37.874   8.477  1.00  0.00    -0.385 OA
ATOM     37  H   UNL     1      31.669  37.385   7.606  1.00  0.00     0.211 HD
ENDBRANCH  24  36
ENDBRANCH  18  19
ENDBRANCH  13  18
BRANCH  15  38
ATOM     38  O   UNL     1      24.326  40.484  10.723  1.00  0.00    -0.385 OA
ATOM     39  H   UNL     1      23.682  40.998  10.141  1.00  0.00     0.211 HD
ENDBRANCH  15  38
BRANCH  16  40
ATOM     40  O   UNL     1      23.803  37.674   8.774  1.00  0.00    -0.387 OA
ATOM     41  H   UNL     1      23.388  36.764   8.845  1.00  0.00     0.211 HD
ENDBRANCH  16  40
BRANCH  17  42
ATOM     42  O   UNL     1      25.882  36.492   9.812  1.00  0.00    -0.387 OA
ATOM     43  H   UNL     1      26.838  36.499  10.092  1.00  0.00     0.211 HD
ENDBRANCH  17  42
ENDBRANCH  11  12
ENDBRANCH  10  11
ENDBRANCH   5  10
BRANCH   5  44
ATOM     44  C   UNL     1      28.352  35.014  14.087  1.00  0.00     0.364 C 
ATOM     45  O   UNL     1      28.971  34.049  13.604  1.00  0.00    -0.246 OA
BRANCH  44  46
ATOM     46  O   UNL     1      27.513  34.820  15.159  1.00  0.00    -0.477 OA
ATOM     47  H   UNL     1      26.937  35.600  15.524  1.00  0.00     0.296 HD
ENDBRANCH  44  46
ENDBRANCH   5  44
BRANCH   8  48
ATOM     48  O   UNL     1      28.248  39.695  13.904  1.00  0.00    -0.391 OA
ATOM     49  H   UNL     1      28.349  40.142  13.051  1.00  0.00     0.211 HD
ENDBRANCH   8  48
BRANCH   9  50
ATOM     50  N   UNL     1      31.004  39.650  13.068  1.00  0.00    -0.348 N 
ATOM     51  C   UNL     1      30.878  40.729  12.121  1.00  0.00     0.217 C 
ATOM     52  H   UNL     1      31.737  39.741  13.783  1.00  0.00     0.163 HD
ATOM     53  C   UNL     1      31.777  41.913  12.151  1.00  0.00     0.114 C 
ATOM     54  O   UNL     1      29.982  40.645  11.255  1.00  0.00    -0.275 OA
ENDBRANCH   9  50
ENDBRANCH   3   4
BRANCH   3  55
ATOM     55  O   UNL     1      32.232  37.296  11.358  1.00  0.00    -0.388 OA
ATOM     56  H   UNL     1      32.920  37.979  11.300  1.00  0.00     0.211 HD
ENDBRANCH   3  55
ENDBRANCH   2   3
BRANCH   2  57
ATOM     57  O   UNL     1      31.945  34.525  12.452  1.00  0.00    -0.388 OA
ATOM     58  H   UNL     1      31.237  34.234  13.054  1.00  0.00     0.211 HD
ENDBRANCH   2  57
ENDBRANCH   1   2
BRANCH   1  59
ATOM     59  N   UNL     1      32.965  34.108  14.758  1.00  0.00    -0.319 N 
ATOM     60  C   UNL     1      31.988  34.058  15.784  1.00  0.00     0.407 C 
ATOM     61  H   UNL     1      33.360  33.174  14.441  1.00  0.00     0.167 HD
ATOM     62  O   UNL     1      31.478  35.122  16.192  1.00  0.00    -0.225 OA
BRANCH  60  63
ATOM     63  O   UNL     1      31.549  32.895  16.380  1.00  0.00    -0.443 OA
BRANCH  63  64
ATOM     64  C   UNL     1      30.880  31.895  15.658  1.00  0.00     0.294 C 
BRANCH  64  65
ATOM     65  C   UNL     1      29.490  31.637  16.029  1.00  0.00     0.120 A 
ATOM     66  C   UNL     1      28.756  30.494  15.842  1.00  0.00     0.138 A 
ATOM     67  N   UNL     1      28.647  32.497  16.624  1.00  0.00    -0.132 NA
ATOM     68  N   UNL     1      27.505  30.690  16.322  1.00  0.00    -0.243 N 
ATOM     69  N   UNL     1      27.456  31.899  16.787  1.00  0.00    -0.067 NA
BRANCH  68  70
ATOM     70  C   UNL     1      26.426  29.710  16.335  1.00  0.00     0.245 C 
BRANCH  70  71
ATOM     71  C   UNL     1      26.554  28.869  17.543  1.00  0.00     0.241 C 
ATOM     72  O   UNL     1      26.194  27.643  17.536  1.00  0.00    -0.273 OA
ATOM     73  N   UNL     1      27.084  29.357  18.774  1.00  0.00    -0.352 N 
ATOM     74  H   UNL     1      27.390  30.344  18.831  1.00  0.00     0.163 HD
BRANCH  73  75
ATOM     75  C   UNL     1      27.173  28.453  19.905  1.00  0.00     0.151 C 
BRANCH  75  76
ATOM     76  C   UNL     1      28.578  28.016  20.178  1.00  0.00     0.168 C 
BRANCH  76  77
ATOM     77  O   UNL     1      28.715  26.639  20.183  1.00  0.00    -0.388 OA
ATOM     78  H   UNL     1      28.019  26.273  20.778  1.00  0.00     0.211 HD
ENDBRANCH  76  77
BRANCH  76  79
ATOM     79  C   UNL     1      28.982  28.599  21.524  1.00  0.00     0.239 C 
BRANCH  79  80
ATOM     80  N   UNL     1      30.190  29.368  21.430  1.00  0.00    -0.227 N 
ATOM     81  C   UNL     1      30.240  30.705  21.190  1.00  0.00     0.204 A 
ATOM     82  C   UNL     1      31.483  28.974  21.532  1.00  0.00     0.434 A 
ATOM     83  C   UNL     1      31.551  31.109  21.147  1.00  0.00     0.245 A 
ATOM     84  N   UNL     1      32.299  30.032  21.359  1.00  0.00    -0.074 NA
BRANCH  82  85
ATOM     85  N   UNL     1      31.916  27.640  21.797  1.00  0.00    -0.047 N 
ATOM     86  O   UNL     1      31.698  26.684  21.053  1.00  0.00    -0.390 OA
ATOM     87  O   UNL     1      32.618  27.402  22.971  1.00  0.00    -0.390 OA
ENDBRANCH  82  85
ENDBRANCH  79  80
ENDBRANCH  76  79
ENDBRANCH  75  76
ENDBRANCH  73  75
ENDBRANCH  70  71
ENDBRANCH  68  70
ENDBRANCH  64  65
ENDBRANCH  63  64
ENDBRANCH  60  63
ENDBRANCH   1  59
TORSDOF 37
BEGIN_RES LYS A 131
REMARK  4 active torsions:
REMARK  status: ('A' for Active; 'I' for Inactive)
REMARK    1  A    between atoms: CA   and  CB  
REMARK    2  A    between atoms: CB   and  CG  
REMARK    3  A    between atoms: CG   and  CD  
REMARK    4  A    between atoms: CD   and  CE  
ROOT
ATOM      1  CA  LYS A 131      29.867  25.555  16.977  1.00 20.52     0.186 C 
ENDROOT
BRANCH   1   2
ATOM      2  CB  LYS A 131      28.345  25.722  17.026  1.00 20.94     0.034 C 
BRANCH   2   3
ATOM      3  CG  LYS A 131      27.601  24.403  16.886  1.00 22.96     0.005 C 
BRANCH   3   4
ATOM      4  CD  LYS A 131      26.630  24.178  18.011  1.00 24.33     0.041 C 
BRANCH   4   5
ATOM      5  CE  LYS A 131      25.244  23.898  17.439  1.00 26.91     0.338 C 
ATOM      6  NZ  LYS A 131      24.905  22.462  17.577  1.00 27.40     0.618 N 
ENDBRANCH   4   5
ENDBRANCH   3   4
ENDBRANCH   2   3
ENDBRANCH   1   2
END_RES LYS A 131
BEGIN_RES LYS A 135
REMARK  4 active torsions:
REMARK  status: ('A' for Active; 'I' for Inactive)
REMARK    5  A    between atoms: CA   and  CB  
REMARK    6  A    between atoms: CB   and  CG  
REMARK    7  A    between atoms: CG   and  CD  
REMARK    8  A    between atoms: CD   and  CE  
ROOT
ATOM      7  CA  LYS A 135      33.193  34.663   9.290  1.00 25.02     0.186 C 
ENDROOT
BRANCH   7   8
ATOM      8  CB  LYS A 135      32.060  35.360  10.034  1.00 26.63     0.034 C 
BRANCH   8   9
ATOM      9  CG  LYS A 135      30.726  34.678   9.875  1.00 29.45     0.005 C 
BRANCH   9  10
ATOM     10  CD  LYS A 135      30.368  34.535   8.404  1.00 32.00     0.041 C 
BRANCH  10  11
ATOM     11  CE  LYS A 135      28.863  34.554   8.217  1.00 34.25     0.338 C 
ATOM     12  NZ  LYS A 135      28.175  33.846   9.332  1.00 35.99     0.618 N 
ENDBRANCH  10  11
ENDBRANCH   9  10
ENDBRANCH   8   9
ENDBRANCH   7   8
END_RES LYS A 135
