REMARK VINA RESULT:    -3.596      5.729     11.133
REMARK INTER + INTRA:         -22.582
REMARK INTER:                  -8.854
REMARK INTRA:                 -13.728
REMARK UNBOUND:               -13.100
REMARK SMILES CC(=O)N[C@@H]1[C@@H](O)C[C@](OC[C@H]2O[C@@H](O[C@H]3[C@H](O)[C@@H](O)[C@H](OCCN=[N+]=[N-])O[C@@H]3CO)[C@H](O)[C@@H](O)[C@H]2O)(C(=O)O)O[C@H]1C(O)[C@H](O)CNC(=O)OCc1cn(CCNS(C)(=O)=O)nn1
REMARK SMILES IDX 43 1 42 2 9 3 8 4 41 5 6 6 5 7 10 8 11 9 12 10 14 11 13 12
REMARK SMILES IDX 32 13 34 14 36 15 15 16 16 17 29 18 28 19 21 20 17 21 19 22
REMARK SMILES IDX 30 23 31 24 22 26 23 27 24 28 25 29 26 30 27 31 18 32 20 34
REMARK SMILES IDX 33 36 35 38 37 40 38 42 39 43 40 44 7 46 4 48 2 49 1 51 3 52
REMARK SMILES IDX 44 53 45 55 46 56 47 58 48 59 49 60 50 62 51 63 52 64 53 65
REMARK SMILES IDX 54 66 64 67 55 68 63 69 56 70 57 71 58 72 59 74 61 75 62 76
REMARK SMILES IDX 60 77
REMARK H PARENT 31 25 18 33 20 35 33 37 35 39 37 41 40 45 7 47 4 50 44 54
REMARK H PARENT 46 57 48 61 58 73
REMARK Flexibility Score: inf
ROOT
ATOM      1  C   UNL     1      27.268  36.512  14.203  1.00  0.00     0.176 C 
ENDROOT
BRANCH   1   2
ATOM      2  C   UNL     1      28.692  37.055  13.979  1.00  0.00     0.178 C 
ATOM      3  C   UNL     1      29.938  37.912  12.192  1.00  0.00     0.272 C 
ATOM      4  C   UNL     1      30.947  36.834  12.209  1.00  0.00     0.113 C 
ATOM      5  O   UNL     1      28.714  37.494  12.699  1.00  0.00    -0.332 OA
ATOM      6  C   UNL     1      30.708  35.738  13.210  1.00  0.00     0.145 C 
ATOM      7  C   UNL     1      29.689  36.001  14.264  1.00  0.00     0.142 C 
BRANCH   3   8
ATOM      8  O   UNL     1      29.621  38.438  10.935  1.00  0.00    -0.338 OA
BRANCH   8   9
ATOM      9  C   UNL     1      28.274  38.331  10.636  1.00  0.00     0.199 C 
BRANCH   9  10
ATOM     10  C   UNL     1      28.091  37.830   9.245  1.00  0.00     0.179 C 
ATOM     11  C   UNL     1      26.575  37.195   7.627  1.00  0.00     0.282 C 
ATOM     12  O   UNL     1      26.768  37.874   8.842  1.00  0.00    -0.341 OA
ATOM     13  C   UNL     1      27.329  37.835   6.513  1.00  0.00     0.202 C 
ATOM     14  C   UNL     1      28.800  37.745   6.858  1.00  0.00     0.179 C 
ATOM     15  C   UNL     1      29.047  38.322   8.211  1.00  0.00     0.177 C 
BRANCH  11  16
ATOM     16  O   UNL     1      25.232  37.171   7.396  1.00  0.00    -0.341 OA
BRANCH  16  17
ATOM     17  C   UNL     1      24.430  37.183   8.484  1.00  0.00     0.184 C 
ATOM     18  C   UNL     1      23.806  35.937   8.973  1.00  0.00     0.178 C 
ATOM     19  O   UNL     1      22.645  36.270   9.671  1.00  0.00    -0.341 OA
ATOM     20  C   UNL     1      21.621  36.621   8.840  1.00  0.00     0.281 C 
ATOM     21  C   UNL     1      23.318  38.260   8.349  1.00  0.00     0.180 C 
ATOM     22  C   UNL     1      22.158  37.505   7.734  1.00  0.00     0.202 C 
BRANCH  18  23
ATOM     23  C   UNL     1      24.695  35.268  10.016  1.00  0.00     0.191 C 
BRANCH  23  24
ATOM     24  O   UNL     1      25.280  36.254  10.844  1.00  0.00    -0.394 OA
ATOM     25  H   UNL     1      24.755  36.401  11.660  1.00  0.00     0.210 HD
ENDBRANCH  23  24
ENDBRANCH  18  23
BRANCH  20  26
ATOM     26  O   UNL     1      20.584  37.258   9.538  1.00  0.00    -0.350 OA
BRANCH  26  27
ATOM     27  C   UNL     1      19.399  37.331   8.852  1.00  0.00     0.169 C 
BRANCH  27  28
ATOM     28  C   UNL     1      19.021  38.772   8.710  1.00  0.00     0.119 C 
BRANCH  28  29
ATOM     29  N   UNL     1      18.826  39.419  10.002  1.00  0.00    -0.092 NA
ATOM     30  N   UNL     1      19.872  39.797  10.559  1.00  0.00     0.001 N 
ATOM     31  N   UNL     1      20.701  40.210  11.362  1.00  0.00    -0.003 NA
ENDBRANCH  28  29
ENDBRANCH  27  28
ENDBRANCH  26  27
ENDBRANCH  20  26
BRANCH  21  32
ATOM     32  O   UNL     1      22.920  38.687   9.619  1.00  0.00    -0.387 OA
ATOM     33  H   UNL     1      22.160  39.320   9.521  1.00  0.00     0.211 HD
ENDBRANCH  21  32
BRANCH  22  34
ATOM     34  O   UNL     1      22.486  36.798   6.599  1.00  0.00    -0.385 OA
ATOM     35  H   UNL     1      22.266  37.265   5.753  1.00  0.00     0.211 HD
ENDBRANCH  22  34
ENDBRANCH  16  17
ENDBRANCH  11  16
BRANCH  13  36
ATOM     36  O   UNL     1      27.187  37.104   5.324  1.00  0.00    -0.385 OA
ATOM     37  H   UNL     1      26.920  37.681   4.563  1.00  0.00     0.211 HD
ENDBRANCH  13  36
BRANCH  14  38
ATOM     38  O   UNL     1      29.602  38.245   5.862  1.00  0.00    -0.387 OA
ATOM     39  H   UNL     1      29.264  39.127   5.507  1.00  0.00     0.211 HD
ENDBRANCH  14  38
BRANCH  15  40
ATOM     40  O   UNL     1      28.935  39.707   8.131  1.00  0.00    -0.387 OA
ATOM     41  H   UNL     1      28.092  40.005   7.703  1.00  0.00     0.211 HD
ENDBRANCH  15  40
ENDBRANCH   9  10
ENDBRANCH   8   9
ENDBRANCH   3   8
BRANCH   3  42
ATOM     42  C   UNL     1      30.396  39.087  12.972  1.00  0.00     0.364 C 
ATOM     43  O   UNL     1      29.859  40.236  12.838  1.00  0.00    -0.246 OA
BRANCH  42  44
ATOM     44  O   UNL     1      31.423  39.054  13.894  1.00  0.00    -0.477 OA
ATOM     45  H   UNL     1      31.273  38.972  14.896  1.00  0.00     0.296 HD
ENDBRANCH  42  44
ENDBRANCH   3  42
BRANCH   6  46
ATOM     46  O   UNL     1      30.426  34.535  12.578  1.00  0.00    -0.391 OA
ATOM     47  H   UNL     1      29.478  34.338  12.447  1.00  0.00     0.211 HD
ENDBRANCH   6  46
BRANCH   7  48
ATOM     48  N   UNL     1      30.406  36.323  15.509  1.00  0.00    -0.348 N 
ATOM     49  C   UNL     1      30.622  35.456  16.585  1.00  0.00     0.217 C 
ATOM     50  H   UNL     1      30.842  37.307  15.608  1.00  0.00     0.163 HD
ATOM     51  C   UNL     1      31.361  35.908  17.817  1.00  0.00     0.114 C 
ATOM     52  O   UNL     1      30.208  34.265  16.575  1.00  0.00    -0.275 OA
ENDBRANCH   7  48
ENDBRANCH   1   2
BRANCH   1  53
ATOM     53  O   UNL     1      26.364  37.335  13.509  1.00  0.00    -0.388 OA
ATOM     54  H   UNL     1      26.885  38.051  13.101  1.00  0.00     0.211 HD
ENDBRANCH   1  53
BRANCH   1  55
ATOM     55  C   UNL     1      27.155  35.133  13.665  1.00  0.00     0.165 C 
BRANCH  55  56
ATOM     56  O   UNL     1      27.384  34.990  12.318  1.00  0.00    -0.388 OA
ATOM     57  H   UNL     1      26.829  34.283  11.894  1.00  0.00     0.211 HD
ENDBRANCH  55  56
BRANCH  55  58
ATOM     58  C   UNL     1      25.945  34.365  14.099  1.00  0.00     0.154 C 
BRANCH  58  59
ATOM     59  N   UNL     1      24.724  34.955  13.617  1.00  0.00    -0.319 N 
ATOM     60  C   UNL     1      23.698  35.260  14.591  1.00  0.00     0.407 C 
ATOM     61  H   UNL     1      24.532  35.172  12.626  1.00  0.00     0.167 HD
ATOM     62  O   UNL     1      23.969  35.006  15.792  1.00  0.00    -0.225 OA
BRANCH  60  63
ATOM     63  O   UNL     1      22.498  35.798  14.204  1.00  0.00    -0.443 OA
BRANCH  63  64
ATOM     64  C   UNL     1      22.188  37.137  14.509  1.00  0.00     0.294 C 
BRANCH  64  65
ATOM     65  C   UNL     1      22.983  38.066  13.685  1.00  0.00     0.120 A 
ATOM     66  C   UNL     1      23.331  39.372  13.987  1.00  0.00     0.138 A 
ATOM     67  N   UNL     1      23.547  37.815  12.512  1.00  0.00    -0.132 NA
ATOM     68  N   UNL     1      24.085  39.871  13.007  1.00  0.00    -0.251 N 
ATOM     69  N   UNL     1      24.212  38.902  12.099  1.00  0.00    -0.067 NA
BRANCH  68  70
ATOM     70  C   UNL     1      24.647  41.210  12.940  1.00  0.00     0.162 C 
BRANCH  70  71
ATOM     71  C   UNL     1      23.702  42.127  12.165  1.00  0.00     0.122 C 
BRANCH  71  72
ATOM     72  N   UNL     1      23.338  41.538  10.908  1.00  0.00    -0.214 NA
ATOM     73  H   UNL     1      22.409  41.933  10.601  1.00  0.00     0.141 HD
BRANCH  72  74
ATOM     74  S   UNL     1      24.465  41.884   9.655  1.00  0.00     0.208 S 
ATOM     75  O   UNL     1      25.450  40.736   9.511  1.00  0.00    -0.213 OA
ATOM     76  O   UNL     1      23.657  41.986   8.375  1.00  0.00    -0.213 OA
ATOM     77  C   UNL     1      25.312  43.404   9.962  1.00  0.00     0.176 C 
ENDBRANCH  72  74
ENDBRANCH  71  72
ENDBRANCH  70  71
ENDBRANCH  68  70
ENDBRANCH  64  65
ENDBRANCH  63  64
ENDBRANCH  60  63
ENDBRANCH  58  59
ENDBRANCH  55  58
ENDBRANCH   1  55
TORSDOF 33
BEGIN_RES LYS A 131
REMARK  4 active torsions:
REMARK  status: ('A' for Active; 'I' for Inactive)
REMARK    1  A    between atoms: CA   and  CB  
REMARK    2  A    between atoms: CB   and  CG  
REMARK    3  A    between atoms: CG   and  CD  
REMARK    4  A    between atoms: CD   and  CE  
ROOT
ATOM      1  CA  LYS A 131      29.867  25.555  16.977  1.00 20.52     0.186 C 
ENDROOT
BRANCH   1   2
ATOM      2  CB  LYS A 131      28.345  25.722  17.026  1.00 20.94     0.034 C 
BRANCH   2   3
ATOM      3  CG  LYS A 131      27.599  24.436  16.706  1.00 22.96     0.005 C 
BRANCH   3   4
ATOM      4  CD  LYS A 131      27.002  23.807  17.934  1.00 24.33     0.041 C 
BRANCH   4   5
ATOM      5  CE  LYS A 131      25.606  23.284  17.611  1.00 26.91     0.338 C 
ATOM      6  NZ  LYS A 131      24.809  24.325  16.919  1.00 27.40     0.618 N 
ENDBRANCH   4   5
ENDBRANCH   3   4
ENDBRANCH   2   3
ENDBRANCH   1   2
END_RES LYS A 131
BEGIN_RES LYS A 135
REMARK  4 active torsions:
REMARK  status: ('A' for Active; 'I' for Inactive)
REMARK    5  A    between atoms: CA   and  CB  
REMARK    6  A    between atoms: CB   and  CG  
REMARK    7  A    between atoms: CG   and  CD  
REMARK    8  A    between atoms: CD   and  CE  
ROOT
ATOM      7  CA  LYS A 135      33.193  34.663   9.290  1.00 25.02     0.186 C 
ENDROOT
BRANCH   7   8
ATOM      8  CB  LYS A 135      32.060  35.360  10.034  1.00 26.63     0.034 C 
BRANCH   8   9
ATOM      9  CG  LYS A 135      30.807  35.519   9.212  1.00 29.45     0.005 C 
BRANCH   9  10
ATOM     10  CD  LYS A 135      30.168  34.166   8.939  1.00 32.00     0.041 C 
BRANCH  10  11
ATOM     11  CE  LYS A 135      28.740  34.339   8.458  1.00 34.25     0.338 C 
ATOM     12  NZ  LYS A 135      27.773  33.755   9.429  1.00 35.99     0.618 N 
ENDBRANCH  10  11
ENDBRANCH   9  10
ENDBRANCH   8   9
ENDBRANCH   7   8
END_RES LYS A 135
