REMARK VINA RESULT:    -4.163      5.677     10.302
REMARK INTER + INTRA:         -21.647
REMARK INTER:                 -11.332
REMARK INTRA:                 -10.315
REMARK UNBOUND:               -10.427
REMARK SMILES CCN(CC)CCn1cc(COC(=O)NC[C@@H](O)C(O)[C@@H]2O[C@@](OC[C@H]3O[C@@H](O[C@H]4[C@H](O)[C@@H](O)[C@H](OCCN=[N+]=[N-])O[C@@H]4CO)[C@H](O)[C@@H](O)[C@H]3O)(C(=O)O)C[C@H](O)[C@H]2NC(C)=O)nn1
REMARK SMILES IDX 19 1 21 2 23 3 55 4 22 5 56 6 58 7 24 8 25 9 26 10 28 11
REMARK SMILES IDX 27 12 46 13 48 14 50 15 29 16 30 17 43 18 42 19 35 20 31 21
REMARK SMILES IDX 33 22 44 23 45 24 36 26 37 27 38 28 39 29 40 30 41 31 32 32
REMARK SMILES IDX 34 34 47 36 49 38 51 40 52 42 53 43 54 44 57 46 59 48 60 49
REMARK SMILES IDX 61 51 62 52 20 53 17 55 18 56 16 58 15 59 13 60 14 62 12 63
REMARK SMILES IDX 11 64 10 65 9 66 63 67 8 68 64 69 7 70 6 71 3 72 2 73 1 74
REMARK SMILES IDX 4 75 5 76
REMARK H PARENT 45 25 32 33 34 35 47 37 49 39 51 41 54 45 57 47 59 50 20 54
REMARK H PARENT 18 57 15 61
REMARK Flexibility Score: inf
ROOT
ATOM      1  C   UNL     1      30.255  37.716   8.670  1.00  0.00     0.176 C 
ENDROOT
BRANCH   1   2
ATOM      2  C   UNL     1      29.145  37.908   7.672  1.00  0.00     0.178 C 
ATOM      3  C   UNL     1      27.998  39.484   6.447  1.00  0.00     0.272 C 
ATOM      4  C   UNL     1      27.440  38.175   5.868  1.00  0.00     0.113 C 
ATOM      5  O   UNL     1      29.030  39.233   7.324  1.00  0.00    -0.332 OA
ATOM      6  C   UNL     1      26.962  37.217   6.910  1.00  0.00     0.145 C 
ATOM      7  C   UNL     1      27.789  37.468   8.180  1.00  0.00     0.142 C 
BRANCH   3   8
ATOM      8  O   UNL     1      26.931  40.155   6.993  1.00  0.00    -0.338 OA
BRANCH   8   9
ATOM      9  C   UNL     1      27.230  41.096   7.948  1.00  0.00     0.199 C 
BRANCH   9  10
ATOM     10  C   UNL     1      26.031  41.343   8.881  1.00  0.00     0.179 C 
ATOM     11  C   UNL     1      23.955  40.249   9.044  1.00  0.00     0.282 C 
ATOM     12  O   UNL     1      24.956  40.808   8.265  1.00  0.00    -0.341 OA
ATOM     13  C   UNL     1      23.891  40.841  10.395  1.00  0.00     0.202 C 
ATOM     14  C   UNL     1      25.190  40.790  11.149  1.00  0.00     0.179 C 
ATOM     15  C   UNL     1      26.338  40.650  10.174  1.00  0.00     0.177 C 
BRANCH  11  16
ATOM     16  O   UNL     1      24.148  38.879   8.941  1.00  0.00    -0.341 OA
BRANCH  16  17
ATOM     17  C   UNL     1      23.105  38.125   9.349  1.00  0.00     0.184 C 
ATOM     18  C   UNL     1      23.421  36.653   9.389  1.00  0.00     0.178 C 
ATOM     19  O   UNL     1      22.291  35.981   9.937  1.00  0.00    -0.341 OA
ATOM     20  C   UNL     1      21.357  35.834   8.935  1.00  0.00     0.281 C 
ATOM     21  C   UNL     1      21.866  38.278   8.473  1.00  0.00     0.180 C 
ATOM     22  C   UNL     1      21.309  36.970   8.010  1.00  0.00     0.202 C 
BRANCH  18  23
ATOM     23  C   UNL     1      24.671  36.276  10.098  1.00  0.00     0.191 C 
BRANCH  23  24
ATOM     24  O   UNL     1      24.902  37.218  11.093  1.00  0.00    -0.394 OA
ATOM     25  H   UNL     1      25.807  37.165  11.489  1.00  0.00     0.210 HD
ENDBRANCH  23  24
ENDBRANCH  18  23
BRANCH  20  26
ATOM     26  O   UNL     1      20.120  35.432   9.431  1.00  0.00    -0.350 OA
BRANCH  26  27
ATOM     27  C   UNL     1      19.959  35.596  10.774  1.00  0.00     0.169 C 
BRANCH  27  28
ATOM     28  C   UNL     1      19.636  34.301  11.495  1.00  0.00     0.119 C 
BRANCH  28  29
ATOM     29  N   UNL     1      20.837  33.676  12.014  1.00  0.00    -0.092 NA
ATOM     30  N   UNL     1      20.859  32.511  12.433  1.00  0.00     0.001 N 
ATOM     31  N   UNL     1      20.772  31.584  13.240  1.00  0.00    -0.003 NA
ENDBRANCH  28  29
ENDBRANCH  27  28
ENDBRANCH  26  27
ENDBRANCH  20  26
BRANCH  21  32
ATOM     32  O   UNL     1      20.903  38.957   9.196  1.00  0.00    -0.387 OA
ATOM     33  H   UNL     1      20.734  39.870   8.884  1.00  0.00     0.211 HD
ENDBRANCH  21  32
BRANCH  22  34
ATOM     34  O   UNL     1      21.869  36.588   6.765  1.00  0.00    -0.385 OA
ATOM     35  H   UNL     1      21.310  37.026   6.073  1.00  0.00     0.211 HD
ENDBRANCH  22  34
ENDBRANCH  16  17
ENDBRANCH  11  16
BRANCH  13  36
ATOM     36  O   UNL     1      23.558  42.221  10.259  1.00  0.00    -0.385 OA
ATOM     37  H   UNL     1      23.355  42.618  11.124  1.00  0.00     0.211 HD
ENDBRANCH  13  36
BRANCH  14  38
ATOM     38  O   UNL     1      25.233  39.819  12.137  1.00  0.00    -0.387 OA
ATOM     39  H   UNL     1      26.045  39.843  12.669  1.00  0.00     0.211 HD
ENDBRANCH  14  38
BRANCH  15  40
ATOM     40  O   UNL     1      26.521  39.297   9.923  1.00  0.00    -0.387 OA
ATOM     41  H   UNL     1      26.169  38.754  10.686  1.00  0.00     0.211 HD
ENDBRANCH  15  40
ENDBRANCH   9  10
ENDBRANCH   8   9
ENDBRANCH   3   8
BRANCH   3  42
ATOM     42  C   UNL     1      28.534  40.206   5.266  1.00  0.00     0.364 C 
ATOM     43  O   UNL     1      29.787  40.437   5.158  1.00  0.00    -0.246 OA
BRANCH  42  44
ATOM     44  O   UNL     1      27.766  40.678   4.221  1.00  0.00    -0.477 OA
ATOM     45  H   UNL     1      28.144  41.374   3.588  1.00  0.00     0.296 HD
ENDBRANCH  42  44
ENDBRANCH   3  42
BRANCH   6  46
ATOM     46  O   UNL     1      25.608  37.228   7.141  1.00  0.00    -0.391 OA
ATOM     47  H   UNL     1      25.388  36.405   7.648  1.00  0.00     0.211 HD
ENDBRANCH   6  46
BRANCH   7  48
ATOM     48  N   UNL     1      27.810  36.326   9.028  1.00  0.00    -0.348 N 
ATOM     49  C   UNL     1      27.771  35.021   8.415  1.00  0.00     0.217 C 
ATOM     50  H   UNL     1      27.856  36.337  10.063  1.00  0.00     0.163 HD
ATOM     51  C   UNL     1      27.789  33.785   9.236  1.00  0.00     0.114 C 
ATOM     52  O   UNL     1      27.720  34.886   7.164  1.00  0.00    -0.275 OA
ENDBRANCH   7  48
ENDBRANCH   1   2
BRANCH   1  53
ATOM     53  O   UNL     1      30.970  36.580   8.316  1.00  0.00    -0.388 OA
ATOM     54  H   UNL     1      30.872  35.888   9.044  1.00  0.00     0.211 HD
ENDBRANCH   1  53
BRANCH   1  55
ATOM     55  C   UNL     1      31.156  38.919   8.556  1.00  0.00     0.165 C 
BRANCH  55  56
ATOM     56  O   UNL     1      32.024  38.739   7.473  1.00  0.00    -0.388 OA
ATOM     57  H   UNL     1      32.538  37.910   7.627  1.00  0.00     0.211 HD
ENDBRANCH  55  56
BRANCH  55  58
ATOM     58  C   UNL     1      31.941  39.251   9.771  1.00  0.00     0.154 C 
BRANCH  58  59
ATOM     59  N   UNL     1      31.280  38.956  10.996  1.00  0.00    -0.319 N 
ATOM     60  C   UNL     1      31.190  39.972  12.008  1.00  0.00     0.407 C 
ATOM     61  H   UNL     1      30.873  38.039  11.183  1.00  0.00     0.167 HD
ATOM     62  O   UNL     1      31.687  41.101  11.830  1.00  0.00    -0.225 OA
BRANCH  60  63
ATOM     63  O   UNL     1      30.537  39.663  13.190  1.00  0.00    -0.443 OA
BRANCH  63  64
ATOM     64  C   UNL     1      29.125  39.918  13.276  1.00  0.00     0.294 C 
BRANCH  64  65
ATOM     65  C   UNL     1      28.430  38.649  13.023  1.00  0.00     0.120 A 
ATOM     66  C   UNL     1      27.986  37.792  14.036  1.00  0.00     0.138 A 
ATOM     67  N   UNL     1      28.082  38.054  11.885  1.00  0.00    -0.132 NA
ATOM     68  N   UNL     1      27.393  36.727  13.469  1.00  0.00    -0.251 N 
ATOM     69  N   UNL     1      27.464  36.907  12.178  1.00  0.00    -0.067 NA
BRANCH  68  70
ATOM     70  C   UNL     1      26.789  35.592  14.142  1.00  0.00     0.161 C 
BRANCH  70  71
ATOM     71  C   UNL     1      26.274  34.647  13.078  1.00  0.00     0.108 C 
BRANCH  71  72
ATOM     72  N   UNL     1      24.844  34.543  13.050  1.00  0.00    -0.302 NA
BRANCH  72  73
ATOM     73  C   UNL     1      24.230  35.165  14.192  1.00  0.00     0.081 C 
ATOM     74  C   UNL     1      23.008  35.943  13.718  1.00  0.00     0.021 C 
ENDBRANCH  72  73
BRANCH  72  75
ATOM     75  C   UNL     1      24.379  33.213  12.808  1.00  0.00     0.081 C 
ATOM     76  C   UNL     1      24.472  32.369  14.063  1.00  0.00     0.021 C 
ENDBRANCH  72  75
ENDBRANCH  71  72
ENDBRANCH  70  71
ENDBRANCH  68  70
ENDBRANCH  64  65
ENDBRANCH  63  64
ENDBRANCH  60  63
ENDBRANCH  58  59
ENDBRANCH  55  58
ENDBRANCH   1  55
TORSDOF 34
BEGIN_RES LYS A 131
REMARK  4 active torsions:
REMARK  status: ('A' for Active; 'I' for Inactive)
REMARK    1  A    between atoms: CA   and  CB  
REMARK    2  A    between atoms: CB   and  CG  
REMARK    3  A    between atoms: CG   and  CD  
REMARK    4  A    between atoms: CD   and  CE  
ROOT
ATOM      1  CA  LYS A 131      29.867  25.555  16.977  1.00 20.52     0.186 C 
ENDROOT
BRANCH   1   2
ATOM      2  CB  LYS A 131      28.345  25.722  17.026  1.00 20.94     0.034 C 
BRANCH   2   3
ATOM      3  CG  LYS A 131      27.601  24.402  16.894  1.00 22.96     0.005 C 
BRANCH   3   4
ATOM      4  CD  LYS A 131      26.157  24.523  17.293  1.00 24.33     0.041 C 
BRANCH   4   5
ATOM      5  CE  LYS A 131      25.805  23.412  18.277  1.00 26.91     0.338 C 
ATOM      6  NZ  LYS A 131      25.001  22.362  17.609  1.00 27.40     0.618 N 
ENDBRANCH   4   5
ENDBRANCH   3   4
ENDBRANCH   2   3
ENDBRANCH   1   2
END_RES LYS A 131
BEGIN_RES LYS A 135
REMARK  4 active torsions:
REMARK  status: ('A' for Active; 'I' for Inactive)
REMARK    5  A    between atoms: CA   and  CB  
REMARK    6  A    between atoms: CB   and  CG  
REMARK    7  A    between atoms: CG   and  CD  
REMARK    8  A    between atoms: CD   and  CE  
ROOT
ATOM      7  CA  LYS A 135      33.193  34.663   9.290  1.00 25.02     0.186 C 
ENDROOT
BRANCH   7   8
ATOM      8  CB  LYS A 135      32.060  35.360  10.034  1.00 26.63     0.034 C 
BRANCH   8   9
ATOM      9  CG  LYS A 135      31.075  34.407  10.661  1.00 29.45     0.005 C 
BRANCH   9  10
ATOM     10  CD  LYS A 135      30.252  35.112  11.728  1.00 32.00     0.041 C 
BRANCH  10  11
ATOM     11  CE  LYS A 135      30.817  34.831  13.108  1.00 34.25     0.338 C 
ATOM     12  NZ  LYS A 135      29.949  33.883  13.860  1.00 35.99     0.618 N 
ENDBRANCH  10  11
ENDBRANCH   9  10
ENDBRANCH   8   9
ENDBRANCH   7   8
END_RES LYS A 135
