REMARK VINA RESULT:    -4.313      2.859      7.620
REMARK INTER + INTRA:         -24.372
REMARK INTER:                 -12.275
REMARK INTRA:                 -12.098
REMARK UNBOUND:               -13.000
REMARK SMILES CC(=O)N[C@@H]1[C@@H](O)C[C@](OC[C@H]2O[C@@H](O[C@H]3[C@H](O)[C@@H](O)[C@H](OCCN=[N+]=[N-])O[C@@H]3CO)[C@H](O)[C@@H](O)[C@H]2O)(C(=O)O)O[C@H]1C(O)[C@H](O)CNC(=O)OCc1cn(C(C)CC(=O)c2ccccc2)nn1
REMARK SMILES IDX 43 1 42 2 9 3 8 4 41 5 6 6 5 7 10 8 11 9 12 10 14 11 13 12
REMARK SMILES IDX 32 13 34 14 36 15 15 16 16 17 29 18 28 19 21 20 17 21 19 22
REMARK SMILES IDX 30 23 31 24 22 26 23 27 24 28 25 29 26 30 27 31 18 32 20 34
REMARK SMILES IDX 33 36 35 38 37 40 38 42 39 43 40 44 7 46 4 48 2 49 1 51 3 52
REMARK SMILES IDX 44 53 45 55 46 56 47 58 48 59 49 60 50 62 51 63 52 64 53 65
REMARK SMILES IDX 54 66 68 67 55 68 67 69 56 70 57 71 58 72 59 73 60 74 61 75
REMARK SMILES IDX 62 76 66 77 63 78 65 79 64 80
REMARK H PARENT 31 25 18 33 20 35 33 37 35 39 37 41 40 45 7 47 4 50 44 54
REMARK H PARENT 46 57 48 61
REMARK Flexibility Score: inf
ROOT
ATOM      1  C   UNL     1      22.610  39.041   8.226  1.00  0.00     0.176 C 
ENDROOT
BRANCH   1   2
ATOM      2  C   UNL     1      23.664  38.080   7.893  1.00  0.00     0.178 C 
ATOM      3  C   UNL     1      24.750  36.958   9.661  1.00  0.00     0.272 C 
ATOM      4  C   UNL     1      26.049  36.870   8.937  1.00  0.00     0.113 C 
ATOM      5  O   UNL     1      23.757  36.955   8.613  1.00  0.00    -0.332 OA
ATOM      6  C   UNL     1      26.029  37.682   7.656  1.00  0.00     0.145 C 
ATOM      7  C   UNL     1      25.033  38.777   7.722  1.00  0.00     0.142 C 
BRANCH   3   8
ATOM      8  O   UNL     1      24.457  37.940  10.461  1.00  0.00    -0.338 OA
BRANCH   8   9
ATOM      9  C   UNL     1      24.819  38.419  11.598  1.00  0.00     0.199 C 
BRANCH   9  10
ATOM     10  C   UNL     1      26.112  39.081  11.951  1.00  0.00     0.179 C 
ATOM     11  C   UNL     1      28.377  38.404  12.073  1.00  0.00     0.282 C 
ATOM     12  O   UNL     1      27.058  38.145  12.082  1.00  0.00    -0.341 OA
ATOM     13  C   UNL     1      28.767  39.218  10.884  1.00  0.00     0.202 C 
ATOM     14  C   UNL     1      27.833  40.302  10.586  1.00  0.00     0.179 C 
ATOM     15  C   UNL     1      26.481  40.306  11.214  1.00  0.00     0.177 C 
BRANCH  11  16
ATOM     16  O   UNL     1      29.002  37.129  12.032  1.00  0.00    -0.341 OA
BRANCH  16  17
ATOM     17  C   UNL     1      29.767  36.962  13.161  1.00  0.00     0.184 C 
ATOM     18  C   UNL     1      31.023  36.196  12.865  1.00  0.00     0.178 C 
ATOM     19  O   UNL     1      30.754  34.894  12.475  1.00  0.00    -0.341 OA
ATOM     20  C   UNL     1      29.986  34.141  13.307  1.00  0.00     0.281 C 
ATOM     21  C   UNL     1      28.936  36.182  14.201  1.00  0.00     0.180 C 
ATOM     22  C   UNL     1      28.722  34.775  13.777  1.00  0.00     0.202 C 
BRANCH  18  23
ATOM     23  C   UNL     1      31.994  36.245  14.028  1.00  0.00     0.191 C 
BRANCH  23  24
ATOM     24  O   UNL     1      32.133  37.523  14.554  1.00  0.00    -0.394 OA
ATOM     25  H   UNL     1      31.683  38.173  13.950  1.00  0.00     0.210 HD
ENDBRANCH  23  24
ENDBRANCH  18  23
BRANCH  20  26
ATOM     26  O   UNL     1      30.659  33.556  14.349  1.00  0.00    -0.350 OA
BRANCH  26  27
ATOM     27  C   UNL     1      29.952  32.622  15.055  1.00  0.00     0.169 C 
BRANCH  27  28
ATOM     28  C   UNL     1      30.767  31.969  16.140  1.00  0.00     0.119 C 
BRANCH  28  29
ATOM     29  N   UNL     1      31.089  32.971  17.139  1.00  0.00    -0.092 NA
ATOM     30  N   UNL     1      30.183  33.606  17.674  1.00  0.00     0.001 N 
ATOM     31  N   UNL     1      29.264  34.084  18.340  1.00  0.00    -0.003 NA
ENDBRANCH  28  29
ENDBRANCH  27  28
ENDBRANCH  26  27
ENDBRANCH  20  26
BRANCH  21  32
ATOM     32  O   UNL     1      29.496  36.302  15.467  1.00  0.00    -0.387 OA
ATOM     33  H   UNL     1      28.915  36.796  16.094  1.00  0.00     0.211 HD
ENDBRANCH  21  32
BRANCH  22  34
ATOM     34  O   UNL     1      27.672  34.651  12.866  1.00  0.00    -0.385 OA
ATOM     35  H   UNL     1      28.081  34.769  11.971  1.00  0.00     0.211 HD
ENDBRANCH  22  34
ENDBRANCH  16  17
ENDBRANCH  11  16
BRANCH  13  36
ATOM     36  O   UNL     1      30.058  39.784  11.093  1.00  0.00    -0.385 OA
ATOM     37  H   UNL     1      29.982  40.715  10.751  1.00  0.00     0.211 HD
ENDBRANCH  13  36
BRANCH  14  38
ATOM     38  O   UNL     1      27.699  40.380   9.170  1.00  0.00    -0.387 OA
ATOM     39  H   UNL     1      26.752  40.387   8.897  1.00  0.00     0.211 HD
ENDBRANCH  14  38
BRANCH  15  40
ATOM     40  O   UNL     1      25.572  40.741  10.270  1.00  0.00    -0.387 OA
ATOM     41  H   UNL     1      24.639  40.575  10.423  1.00  0.00     0.211 HD
ENDBRANCH  15  40
ENDBRANCH   9  10
ENDBRANCH   8   9
ENDBRANCH   3   8
BRANCH   3  42
ATOM     42  C   UNL     1      24.509  35.596  10.312  1.00  0.00     0.364 C 
ATOM     43  O   UNL     1      23.453  34.991  10.091  1.00  0.00    -0.246 OA
BRANCH  42  44
ATOM     44  O   UNL     1      25.455  35.033  11.137  1.00  0.00    -0.477 OA
ATOM     45  H   UNL     1      25.904  35.640  11.813  1.00  0.00     0.296 HD
ENDBRANCH  42  44
ENDBRANCH   3  42
BRANCH   6  46
ATOM     46  O   UNL     1      27.303  38.116   7.311  1.00  0.00    -0.391 OA
ATOM     47  H   UNL     1      27.929  37.867   8.069  1.00  0.00     0.211 HD
ENDBRANCH   6  46
BRANCH   7  48
ATOM     48  N   UNL     1      24.971  39.488   6.449  1.00  0.00    -0.348 N 
ATOM     49  C   UNL     1      25.221  40.882   6.325  1.00  0.00     0.217 C 
ATOM     50  H   UNL     1      24.736  38.956   5.592  1.00  0.00     0.163 HD
ATOM     51  C   UNL     1      25.157  41.591   5.046  1.00  0.00     0.114 C 
ATOM     52  O   UNL     1      25.513  41.546   7.378  1.00  0.00    -0.275 OA
ENDBRANCH   7  48
ENDBRANCH   1   2
BRANCH   1  53
ATOM     53  O   UNL     1      23.055  40.162   8.967  1.00  0.00    -0.388 OA
ATOM     54  H   UNL     1      23.433  40.806   8.292  1.00  0.00     0.211 HD
ENDBRANCH   1  53
BRANCH   1  55
ATOM     55  C   UNL     1      21.391  38.520   8.957  1.00  0.00     0.165 C 
BRANCH  55  56
ATOM     56  O   UNL     1      21.659  37.807  10.080  1.00  0.00    -0.388 OA
ATOM     57  H   UNL     1      22.122  36.970   9.843  1.00  0.00     0.211 HD
ENDBRANCH  55  56
BRANCH  55  58
ATOM     58  C   UNL     1      20.628  37.646   7.950  1.00  0.00     0.154 C 
BRANCH  58  59
ATOM     59  N   UNL     1      19.588  36.897   8.619  1.00  0.00    -0.319 N 
ATOM     60  C   UNL     1      19.352  35.510   8.490  1.00  0.00     0.407 C 
ATOM     61  H   UNL     1      18.920  37.395   9.286  1.00  0.00     0.167 HD
ATOM     62  O   UNL     1      20.094  34.796   7.789  1.00  0.00    -0.225 OA
BRANCH  60  63
ATOM     63  O   UNL     1      18.270  34.888   9.145  1.00  0.00    -0.443 OA
BRANCH  63  64
ATOM     64  C   UNL     1      18.553  34.051  10.288  1.00  0.00     0.294 C 
BRANCH  64  65
ATOM     65  C   UNL     1      19.410  34.932  11.164  1.00  0.00     0.120 A 
ATOM     66  C   UNL     1      20.615  34.491  11.742  1.00  0.00     0.138 A 
ATOM     67  N   UNL     1      19.242  36.166  11.600  1.00  0.00    -0.132 NA
ATOM     68  N   UNL     1      21.116  35.476  12.503  1.00  0.00    -0.249 N 
ATOM     69  N   UNL     1      20.278  36.479  12.405  1.00  0.00    -0.067 NA
BRANCH  68  70
ATOM     70  C   UNL     1      22.353  35.355  13.277  1.00  0.00     0.114 C 
ATOM     71  C   UNL     1      22.548  36.605  14.076  1.00  0.00     0.034 C 
BRANCH  70  72
ATOM     72  C   UNL     1      22.366  34.080  14.055  1.00  0.00     0.108 C 
BRANCH  72  73
ATOM     73  C   UNL     1      23.479  33.241  13.536  1.00  0.00     0.164 C 
ATOM     74  O   UNL     1      24.622  33.687  13.421  1.00  0.00    -0.294 OA
BRANCH  73  75
ATOM     75  C   UNL     1      23.162  31.853  13.165  1.00  0.00     0.018 A 
ATOM     76  C   UNL     1      21.926  31.458  12.805  1.00  0.00     0.012 A 
ATOM     77  C   UNL     1      24.222  30.933  13.197  1.00  0.00     0.012 A 
ATOM     78  C   UNL     1      21.685  30.119  12.452  1.00  0.00     0.001 A 
ATOM     79  C   UNL     1      23.967  29.638  12.852  1.00  0.00     0.001 A 
ATOM     80  C   UNL     1      22.720  29.214  12.480  1.00  0.00     0.000 A 
ENDBRANCH  73  75
ENDBRANCH  72  73
ENDBRANCH  70  72
ENDBRANCH  68  70
ENDBRANCH  64  65
ENDBRANCH  63  64
ENDBRANCH  60  63
ENDBRANCH  58  59
ENDBRANCH  55  58
ENDBRANCH   1  55
TORSDOF 33
BEGIN_RES LYS A 131
REMARK  4 active torsions:
REMARK  status: ('A' for Active; 'I' for Inactive)
REMARK    1  A    between atoms: CA   and  CB  
REMARK    2  A    between atoms: CB   and  CG  
REMARK    3  A    between atoms: CG   and  CD  
REMARK    4  A    between atoms: CD   and  CE  
ROOT
ATOM      1  CA  LYS A 131      29.867  25.555  16.977  1.00 20.52     0.186 C 
ENDROOT
BRANCH   1   2
ATOM      2  CB  LYS A 131      28.345  25.722  17.026  1.00 20.94     0.034 C 
BRANCH   2   3
ATOM      3  CG  LYS A 131      27.602  24.399  16.920  1.00 22.96     0.005 C 
BRANCH   3   4
ATOM      4  CD  LYS A 131      26.627  24.205  18.048  1.00 24.33     0.041 C 
BRANCH   4   5
ATOM      5  CE  LYS A 131      26.429  25.526  18.783  1.00 26.91     0.338 C 
ATOM      6  NZ  LYS A 131      25.169  25.502  19.562  1.00 27.40     0.618 N 
ENDBRANCH   4   5
ENDBRANCH   3   4
ENDBRANCH   2   3
ENDBRANCH   1   2
END_RES LYS A 131
BEGIN_RES LYS A 135
REMARK  4 active torsions:
REMARK  status: ('A' for Active; 'I' for Inactive)
REMARK    5  A    between atoms: CA   and  CB  
REMARK    6  A    between atoms: CB   and  CG  
REMARK    7  A    between atoms: CG   and  CD  
REMARK    8  A    between atoms: CD   and  CE  
ROOT
ATOM      7  CA  LYS A 135      33.193  34.663   9.290  1.00 25.02     0.186 C 
ENDROOT
BRANCH   7   8
ATOM      8  CB  LYS A 135      32.060  35.360  10.034  1.00 26.63     0.034 C 
BRANCH   8   9
ATOM      9  CG  LYS A 135      30.826  35.568   9.194  1.00 29.45     0.005 C 
BRANCH   9  10
ATOM     10  CD  LYS A 135      30.076  34.258   9.009  1.00 32.00     0.041 C 
BRANCH  10  11
ATOM     11  CE  LYS A 135      28.592  34.515   8.826  1.00 34.25     0.338 C 
ATOM     12  NZ  LYS A 135      27.779  33.522   9.580  1.00 35.99     0.618 N 
ENDBRANCH  10  11
ENDBRANCH   9  10
ENDBRANCH   8   9
ENDBRANCH   7   8
END_RES LYS A 135
