REMARK VINA RESULT:    -4.412      3.702      8.794
REMARK INTER + INTRA:         -22.431
REMARK INTER:                 -10.544
REMARK INTRA:                 -11.887
REMARK UNBOUND:               -11.571
REMARK SMILES CC(=O)N[C@@H]1[C@@H](O)C[C@](OC[C@H]2O[C@@H](O[C@H]3[C@H](O)[C@@H](O)[C@H](OCCN=[N+]=[N-])O[C@@H]3CO)[C@H](O)[C@@H](O)[C@H]2O)(C(=O)O)O[C@H]1C(O)[C@H](O)CNC(=O)OCc1cn(-c2ccc3[nH]ncc3c2)nn1
REMARK SMILES IDX 9 1 8 2 6 3 5 4 42 5 41 6 10 7 11 8 12 9 14 10 13 11 32 12
REMARK SMILES IDX 34 13 36 14 15 15 16 16 29 17 28 18 21 19 17 20 19 21 30 22
REMARK SMILES IDX 31 23 22 25 23 26 24 27 25 28 26 29 27 30 18 31 20 33 33 35
REMARK SMILES IDX 35 37 37 39 38 41 39 42 40 43 7 45 43 47 44 48 45 50 46 51
REMARK SMILES IDX 47 53 48 54 49 55 50 57 51 58 52 59 53 60 54 61 66 62 55 63
REMARK SMILES IDX 65 64 56 65 57 66 64 67 58 68 63 69 59 70 62 71 60 72 61 73
REMARK SMILES IDX 4 75 2 76 1 78 3 79
REMARK H PARENT 31 24 18 32 20 34 33 36 35 38 37 40 40 44 7 46 44 49 46 52
REMARK H PARENT 48 56 60 74 4 77
REMARK Flexibility Score: inf
ROOT
ATOM      1  C   UNL     1      28.505  36.097  13.641  1.00  0.00     0.272 C 
ATOM      2  C   UNL     1      28.755  37.182  12.658  1.00  0.00     0.113 C 
ATOM      3  C   UNL     1      28.040  37.039  11.339  1.00  0.00     0.145 C 
ATOM      4  C   UNL     1      26.535  36.985  11.715  1.00  0.00     0.142 C 
ATOM      5  C   UNL     1      26.420  35.865  12.674  1.00  0.00     0.178 C 
ATOM      6  O   UNL     1      27.137  35.908  13.819  1.00  0.00    -0.332 OA
ENDROOT
BRANCH   1   7
ATOM      7  O   UNL     1      29.059  36.489  14.880  1.00  0.00    -0.338 OA
BRANCH   7   8
ATOM      8  C   UNL     1      30.413  36.473  14.945  1.00  0.00     0.199 C 
BRANCH   8   9
ATOM      9  C   UNL     1      30.920  35.771  16.225  1.00  0.00     0.179 C 
ATOM     10  C   UNL     1      30.663  33.533  16.767  1.00  0.00     0.282 C 
ATOM     11  O   UNL     1      30.059  34.795  16.628  1.00  0.00    -0.341 OA
ATOM     12  C   UNL     1      31.146  33.146  15.407  1.00  0.00     0.202 C 
ATOM     13  C   UNL     1      32.347  34.053  15.099  1.00  0.00     0.179 C 
ATOM     14  C   UNL     1      32.331  35.267  15.988  1.00  0.00     0.177 C 
BRANCH  10  15
ATOM     15  O   UNL     1      29.769  32.657  17.354  1.00  0.00    -0.341 OA
BRANCH  15  16
ATOM     16  C   UNL     1      28.557  33.300  17.567  1.00  0.00     0.184 C 
ATOM     17  C   UNL     1      28.169  33.442  19.008  1.00  0.00     0.178 C 
ATOM     18  O   UNL     1      27.035  34.151  19.142  1.00  0.00    -0.341 OA
ATOM     19  C   UNL     1      26.176  34.323  18.104  1.00  0.00     0.281 C 
ATOM     20  C   UNL     1      27.417  32.446  16.979  1.00  0.00     0.180 C 
ATOM     21  C   UNL     1      26.177  33.268  17.052  1.00  0.00     0.202 C 
BRANCH  17  22
ATOM     22  C   UNL     1      29.246  34.044  19.887  1.00  0.00     0.191 C 
BRANCH  22  23
ATOM     23  O   UNL     1      29.490  35.370  19.576  1.00  0.00    -0.394 OA
ATOM     24  H   UNL     1      29.037  35.903  20.298  1.00  0.00     0.210 HD
ENDBRANCH  22  23
ENDBRANCH  17  22
BRANCH  19  25
ATOM     25  O   UNL     1      26.429  35.557  17.557  1.00  0.00    -0.350 OA
BRANCH  25  26
ATOM     26  C   UNL     1      26.113  36.641  18.298  1.00  0.00     0.169 C 
BRANCH  26  27
ATOM     27  C   UNL     1      24.835  37.311  17.907  1.00  0.00     0.119 C 
BRANCH  27  28
ATOM     28  N   UNL     1      24.584  37.390  16.498  1.00  0.00    -0.092 NA
ATOM     29  N   UNL     1      25.282  38.007  15.718  1.00  0.00     0.001 N 
ATOM     30  N   UNL     1      25.759  38.902  14.985  1.00  0.00    -0.003 NA
ENDBRANCH  27  28
ENDBRANCH  26  27
ENDBRANCH  25  26
ENDBRANCH  19  25
BRANCH  20  31
ATOM     31  O   UNL     1      27.700  32.023  15.709  1.00  0.00    -0.387 OA
ATOM     32  H   UNL     1      27.928  31.059  15.647  1.00  0.00     0.211 HD
ENDBRANCH  20  31
BRANCH  21  33
ATOM     33  O   UNL     1      25.098  32.379  17.218  1.00  0.00    -0.385 OA
ATOM     34  H   UNL     1      25.385  31.538  17.655  1.00  0.00     0.211 HD
ENDBRANCH  21  33
ENDBRANCH  15  16
ENDBRANCH  10  15
BRANCH  12  35
ATOM     35  O   UNL     1      31.471  31.824  15.237  1.00  0.00    -0.385 OA
ATOM     36  H   UNL     1      31.591  31.350  16.115  1.00  0.00     0.211 HD
ENDBRANCH  12  35
BRANCH  13  37
ATOM     37  O   UNL     1      32.452  34.331  13.753  1.00  0.00    -0.387 OA
ATOM     38  H   UNL     1      32.262  33.475  13.263  1.00  0.00     0.211 HD
ENDBRANCH  13  37
BRANCH  14  39
ATOM     39  O   UNL     1      33.019  36.287  15.283  1.00  0.00    -0.387 OA
ATOM     40  H   UNL     1      32.433  37.001  14.992  1.00  0.00     0.211 HD
ENDBRANCH  14  39
ENDBRANCH   8   9
ENDBRANCH   7   8
ENDBRANCH   1   7
BRANCH   1  41
ATOM     41  C   UNL     1      29.041  34.767  13.242  1.00  0.00     0.364 C 
ATOM     42  O   UNL     1      28.512  33.747  13.797  1.00  0.00    -0.246 OA
BRANCH  41  43
ATOM     43  O   UNL     1      30.036  34.512  12.350  1.00  0.00    -0.477 OA
ATOM     44  H   UNL     1      30.614  35.237  11.924  1.00  0.00     0.296 HD
ENDBRANCH  41  43
ENDBRANCH   1  41
BRANCH   3  45
ATOM     45  O   UNL     1      28.299  38.164  10.579  1.00  0.00    -0.391 OA
ATOM     46  H   UNL     1      28.985  38.756  11.011  1.00  0.00     0.211 HD
ENDBRANCH   3  45
BRANCH   5  47
ATOM     47  C   UNL     1      24.995  35.438  12.859  1.00  0.00     0.176 C 
BRANCH  47  48
ATOM     48  O   UNL     1      24.810  34.428  11.846  1.00  0.00    -0.388 OA
ATOM     49  H   UNL     1      25.663  33.997  11.636  1.00  0.00     0.211 HD
ENDBRANCH  47  48
BRANCH  47  50
ATOM     50  C   UNL     1      24.687  34.730  14.155  1.00  0.00     0.165 C 
BRANCH  50  51
ATOM     51  O   UNL     1      25.415  33.509  14.090  1.00  0.00    -0.388 OA
ATOM     52  H   UNL     1      26.177  33.567  13.489  1.00  0.00     0.211 HD
ENDBRANCH  50  51
BRANCH  50  53
ATOM     53  C   UNL     1      23.259  34.419  14.401  1.00  0.00     0.154 C 
BRANCH  53  54
ATOM     54  N   UNL     1      22.795  33.116  14.080  1.00  0.00    -0.319 N 
ATOM     55  C   UNL     1      22.175  32.697  12.879  1.00  0.00     0.407 C 
ATOM     56  H   UNL     1      22.914  32.337  14.804  1.00  0.00     0.167 HD
ATOM     57  O   UNL     1      21.986  33.480  11.944  1.00  0.00    -0.225 OA
BRANCH  55  58
ATOM     58  O   UNL     1      21.765  31.374  12.734  1.00  0.00    -0.443 OA
BRANCH  58  59
ATOM     59  C   UNL     1      22.605  30.265  12.626  1.00  0.00     0.294 C 
BRANCH  59  60
ATOM     60  C   UNL     1      23.578  30.115  13.717  1.00  0.00     0.121 A 
ATOM     61  C   UNL     1      23.447  29.308  14.825  1.00  0.00     0.144 A 
ATOM     62  N   UNL     1      24.762  30.752  13.824  1.00  0.00    -0.131 NA
ATOM     63  N   UNL     1      24.556  29.498  15.544  1.00  0.00    -0.220 N 
ATOM     64  N   UNL     1      25.333  30.367  14.925  1.00  0.00    -0.062 NA
BRANCH  63  65
ATOM     65  C   UNL     1      24.839  28.855  16.786  1.00  0.00     0.067 A 
ATOM     66  C   UNL     1      23.826  28.362  17.579  1.00  0.00     0.030 A 
ATOM     67  C   UNL     1      26.139  28.718  17.217  1.00  0.00     0.040 A 
ATOM     68  C   UNL     1      24.101  27.747  18.775  1.00  0.00     0.030 A 
ATOM     69  C   UNL     1      26.400  28.091  18.433  1.00  0.00     0.022 A 
ATOM     70  C   UNL     1      25.393  27.592  19.240  1.00  0.00     0.065 A 
ATOM     71  C   UNL     1      27.595  27.838  19.066  1.00  0.00     0.143 A 
ATOM     72  N   UNL     1      25.970  27.054  20.328  1.00  0.00    -0.278 N 
ATOM     73  N   UNL     1      27.268  27.208  20.207  1.00  0.00    -0.183 NA
ATOM     74  H   UNL     1      25.446  26.599  21.115  1.00  0.00     0.190 HD
ENDBRANCH  63  65
ENDBRANCH  59  60
ENDBRANCH  58  59
ENDBRANCH  55  58
ENDBRANCH  53  54
ENDBRANCH  50  53
ENDBRANCH  47  50
ENDBRANCH   5  47
BRANCH   4  75
ATOM     75  N   UNL     1      25.910  36.599  10.446  1.00  0.00    -0.348 N 
ATOM     76  C   UNL     1      25.250  37.572   9.691  1.00  0.00     0.217 C 
ATOM     77  H   UNL     1      25.941  35.628  10.094  1.00  0.00     0.163 HD
ATOM     78  C   UNL     1      24.580  37.258   8.386  1.00  0.00     0.114 C 
ATOM     79  O   UNL     1      25.212  38.774  10.114  1.00  0.00    -0.275 OA
ENDBRANCH   4  75
TORSDOF 30
BEGIN_RES LYS A 131
REMARK  4 active torsions:
REMARK  status: ('A' for Active; 'I' for Inactive)
REMARK    1  A    between atoms: CA   and  CB  
REMARK    2  A    between atoms: CB   and  CG  
REMARK    3  A    between atoms: CG   and  CD  
REMARK    4  A    between atoms: CD   and  CE  
ROOT
ATOM      1  CA  LYS A 131      29.867  25.555  16.977  1.00 20.52     0.186 C 
ENDROOT
BRANCH   1   2
ATOM      2  CB  LYS A 131      28.345  25.722  17.026  1.00 20.94     0.034 C 
BRANCH   2   3
ATOM      3  CG  LYS A 131      27.601  24.401  16.901  1.00 22.96     0.005 C 
BRANCH   3   4
ATOM      4  CD  LYS A 131      26.521  24.259  17.938  1.00 24.33     0.041 C 
BRANCH   4   5
ATOM      5  CE  LYS A 131      25.156  24.394  17.271  1.00 26.91     0.338 C 
ATOM      6  NZ  LYS A 131      24.471  23.081  17.222  1.00 27.40     0.618 N 
ENDBRANCH   4   5
ENDBRANCH   3   4
ENDBRANCH   2   3
ENDBRANCH   1   2
END_RES LYS A 131
BEGIN_RES LYS A 135
REMARK  4 active torsions:
REMARK  status: ('A' for Active; 'I' for Inactive)
REMARK    5  A    between atoms: CA   and  CB  
REMARK    6  A    between atoms: CB   and  CG  
REMARK    7  A    between atoms: CG   and  CD  
REMARK    8  A    between atoms: CD   and  CE  
ROOT
ATOM      7  CA  LYS A 135      33.193  34.663   9.290  1.00 25.02     0.186 C 
ENDROOT
BRANCH   7   8
ATOM      8  CB  LYS A 135      32.060  35.360  10.034  1.00 26.63     0.034 C 
BRANCH   8   9
ATOM      9  CG  LYS A 135      30.832  35.582   9.190  1.00 29.45     0.005 C 
BRANCH   9  10
ATOM     10  CD  LYS A 135      30.160  34.258   8.860  1.00 32.00     0.041 C 
BRANCH  10  11
ATOM     11  CE  LYS A 135      28.667  34.449   8.678  1.00 34.25     0.338 C 
ATOM     12  NZ  LYS A 135      27.901  33.702   9.713  1.00 35.99     0.618 N 
ENDBRANCH  10  11
ENDBRANCH   9  10
ENDBRANCH   8   9
ENDBRANCH   7   8
END_RES LYS A 135
