REMARK VINA RESULT:    -4.507      2.522      6.508
REMARK INTER + INTRA:         -22.038
REMARK INTER:                 -11.802
REMARK INTRA:                 -10.236
REMARK UNBOUND:               -10.943
REMARK SMILES CC(=O)N[C@@H]1[C@@H](O)C[C@](OC[C@H]2O[C@@H](O[C@H]3[C@H](O)[C@@H](O)[C@H](OCCN=[N+]=[N-])O[C@@H]3CO)[C@H](O)[C@@H](O)[C@H]2O)(C(=O)O)O[C@H]1C(O)[C@H](O)CNC(=O)OCc1cn([C@@H]2C[C@H]3CC[C@@H](C2)N3C)nn1
REMARK SMILES IDX 9 1 8 2 6 3 5 4 42 5 41 6 10 7 11 8 12 9 14 10 13 11 32 12
REMARK SMILES IDX 34 13 36 14 15 15 16 16 29 17 28 18 21 19 17 20 19 21 30 22
REMARK SMILES IDX 31 23 22 25 23 26 24 27 25 28 26 29 27 30 18 31 20 33 33 35
REMARK SMILES IDX 35 37 37 39 38 41 39 42 40 43 7 45 43 47 44 48 45 50 46 51
REMARK SMILES IDX 47 53 48 54 49 55 50 57 51 58 52 59 53 60 54 61 66 62 55 63
REMARK SMILES IDX 65 64 56 65 62 66 57 67 61 68 58 69 63 70 60 71 59 72 64 73
REMARK SMILES IDX 4 74 2 75 1 77 3 78
REMARK H PARENT 31 24 18 32 20 34 33 36 35 38 37 40 40 44 7 46 44 49 46 52
REMARK H PARENT 48 56 4 76
REMARK Flexibility Score: inf
ROOT
ATOM      1  C   UNL     1      21.958  36.336   9.468  1.00  0.00     0.272 C 
ATOM      2  C   UNL     1      22.924  35.350   8.945  1.00  0.00     0.113 C 
ATOM      3  C   UNL     1      24.344  35.649   9.404  1.00  0.00     0.145 C 
ATOM      4  C   UNL     1      24.696  37.113   9.047  1.00  0.00     0.142 C 
ATOM      5  C   UNL     1      23.568  38.023   9.330  1.00  0.00     0.178 C 
ATOM      6  O   UNL     1      22.667  37.368  10.143  1.00  0.00    -0.332 OA
ENDROOT
BRANCH   1   7
ATOM      7  O   UNL     1      20.905  35.974  10.229  1.00  0.00    -0.338 OA
BRANCH   7   8
ATOM      8  C   UNL     1      20.691  34.923  10.952  1.00  0.00     0.199 C 
BRANCH   8   9
ATOM      9  C   UNL     1      20.529  35.123  12.452  1.00  0.00     0.179 C 
ATOM     10  C   UNL     1      21.389  33.532  13.954  1.00  0.00     0.282 C 
ATOM     11  O   UNL     1      20.438  33.848  13.028  1.00  0.00    -0.341 OA
ATOM     12  C   UNL     1      21.493  34.505  15.080  1.00  0.00     0.202 C 
ATOM     13  C   UNL     1      21.673  35.868  14.509  1.00  0.00     0.179 C 
ATOM     14  C   UNL     1      21.664  35.914  13.021  1.00  0.00     0.177 C 
BRANCH  10  15
ATOM     15  O   UNL     1      22.606  33.172  13.402  1.00  0.00    -0.341 OA
BRANCH  15  16
ATOM     16  C   UNL     1      23.094  31.958  13.838  1.00  0.00     0.184 C 
ATOM     17  C   UNL     1      24.570  31.930  13.881  1.00  0.00     0.178 C 
ATOM     18  O   UNL     1      25.060  30.764  14.478  1.00  0.00    -0.341 OA
ATOM     19  C   UNL     1      24.100  29.756  14.589  1.00  0.00     0.281 C 
ATOM     20  C   UNL     1      22.722  30.869  12.775  1.00  0.00     0.180 C 
ATOM     21  C   UNL     1      23.240  29.593  13.353  1.00  0.00     0.202 C 
BRANCH  17  22
ATOM     22  C   UNL     1      25.264  33.117  14.450  1.00  0.00     0.191 C 
BRANCH  22  23
ATOM     23  O   UNL     1      24.999  34.251  13.686  1.00  0.00    -0.394 OA
ATOM     24  H   UNL     1      25.684  34.328  12.978  1.00  0.00     0.210 HD
ENDBRANCH  22  23
ENDBRANCH  17  22
BRANCH  19  25
ATOM     25  O   UNL     1      23.404  29.826  15.763  1.00  0.00    -0.350 OA
BRANCH  25  26
ATOM     26  C   UNL     1      23.355  28.756  16.585  1.00  0.00     0.169 C 
BRANCH  26  27
ATOM     27  C   UNL     1      24.281  28.795  17.744  1.00  0.00     0.119 C 
BRANCH  27  28
ATOM     28  N   UNL     1      25.663  28.668  17.436  1.00  0.00    -0.092 NA
ATOM     29  N   UNL     1      26.437  27.920  18.041  1.00  0.00     0.001 N 
ATOM     30  N   UNL     1      27.445  27.641  18.698  1.00  0.00    -0.003 NA
ENDBRANCH  27  28
ENDBRANCH  26  27
ENDBRANCH  25  26
ENDBRANCH  19  25
BRANCH  20  31
ATOM     31  O   UNL     1      21.363  30.791  12.605  1.00  0.00    -0.387 OA
ATOM     32  H   UNL     1      21.136  30.120  11.906  1.00  0.00     0.211 HD
ENDBRANCH  20  31
BRANCH  21  33
ATOM     33  O   UNL     1      23.970  28.879  12.397  1.00  0.00    -0.385 OA
ATOM     34  H   UNL     1      23.382  28.232  11.982  1.00  0.00     0.211 HD
ENDBRANCH  21  33
ENDBRANCH  15  16
ENDBRANCH  10  15
BRANCH  12  35
ATOM     35  O   UNL     1      20.307  34.460  15.843  1.00  0.00    -0.385 OA
ATOM     36  H   UNL     1      19.553  34.659  15.227  1.00  0.00     0.211 HD
ENDBRANCH  12  35
BRANCH  13  37
ATOM     37  O   UNL     1      22.882  36.448  14.961  1.00  0.00    -0.387 OA
ATOM     38  H   UNL     1      22.697  37.288  15.445  1.00  0.00     0.211 HD
ENDBRANCH  13  37
BRANCH  14  39
ATOM     39  O   UNL     1      22.920  35.546  12.522  1.00  0.00    -0.387 OA
ATOM     40  H   UNL     1      22.802  34.626  12.147  1.00  0.00     0.211 HD
ENDBRANCH  14  39
ENDBRANCH   8   9
ENDBRANCH   7   8
ENDBRANCH   1   7
BRANCH   1  41
ATOM     41  C   UNL     1      21.317  37.008   8.271  1.00  0.00     0.364 C 
ATOM     42  O   UNL     1      20.355  37.792   8.328  1.00  0.00    -0.246 OA
BRANCH  41  43
ATOM     43  O   UNL     1      21.816  36.754   6.990  1.00  0.00    -0.477 OA
ATOM     44  H   UNL     1      21.234  36.267   6.297  1.00  0.00     0.296 HD
ENDBRANCH  41  43
ENDBRANCH   1  41
BRANCH   3  45
ATOM     45  O   UNL     1      24.583  35.370  10.731  1.00  0.00    -0.391 OA
ATOM     46  H   UNL     1      24.631  36.241  11.230  1.00  0.00     0.211 HD
ENDBRANCH   3  45
BRANCH   5  47
ATOM     47  C   UNL     1      24.024  39.199  10.273  1.00  0.00     0.176 C 
BRANCH  47  48
ATOM     48  O   UNL     1      25.475  39.027  10.309  1.00  0.00    -0.388 OA
ATOM     49  H   UNL     1      25.770  39.185   9.362  1.00  0.00     0.211 HD
ENDBRANCH  47  48
BRANCH  47  50
ATOM     50  C   UNL     1      23.648  38.962  11.697  1.00  0.00     0.165 C 
BRANCH  50  51
ATOM     51  O   UNL     1      22.613  39.788  12.072  1.00  0.00    -0.388 OA
ATOM     52  H   UNL     1      21.816  39.753  11.519  1.00  0.00     0.211 HD
ENDBRANCH  50  51
BRANCH  50  53
ATOM     53  C   UNL     1      24.770  38.903  12.664  1.00  0.00     0.154 C 
BRANCH  53  54
ATOM     54  N   UNL     1      25.211  37.522  12.860  1.00  0.00    -0.319 N 
ATOM     55  C   UNL     1      26.546  37.152  12.662  1.00  0.00     0.407 C 
ATOM     56  H   UNL     1      24.507  36.829  13.152  1.00  0.00     0.167 HD
ATOM     57  O   UNL     1      27.375  38.042  12.306  1.00  0.00    -0.225 OA
BRANCH  55  58
ATOM     58  O   UNL     1      27.007  35.852  12.838  1.00  0.00    -0.443 OA
BRANCH  58  59
ATOM     59  C   UNL     1      28.297  35.471  12.377  1.00  0.00     0.294 C 
BRANCH  59  60
ATOM     60  C   UNL     1      29.217  35.302  13.545  1.00  0.00     0.120 A 
ATOM     61  C   UNL     1      29.987  34.199  13.849  1.00  0.00     0.138 A 
ATOM     62  N   UNL     1      29.459  36.184  14.509  1.00  0.00    -0.132 NA
ATOM     63  N   UNL     1      30.671  34.433  14.977  1.00  0.00    -0.249 N 
ATOM     64  N   UNL     1      30.316  35.675  15.357  1.00  0.00    -0.067 NA
BRANCH  63  65
ATOM     65  C   UNL     1      31.602  33.602  15.701  1.00  0.00     0.112 C 
ATOM     66  C   UNL     1      31.563  33.802  17.187  1.00  0.00     0.046 C 
ATOM     67  C   UNL     1      31.211  32.137  15.453  1.00  0.00     0.046 C 
ATOM     68  C   UNL     1      30.284  33.257  17.766  1.00  0.00     0.058 C 
ATOM     69  C   UNL     1      29.830  31.875  16.023  1.00  0.00     0.058 C 
ATOM     70  N   UNL     1      29.351  33.090  16.660  1.00  0.00    -0.300 NA
ATOM     71  C   UNL     1      30.450  31.858  18.297  1.00  0.00     0.021 C 
ATOM     72  C   UNL     1      29.937  30.946  17.217  1.00  0.00     0.021 C 
ATOM     73  C   UNL     1      28.038  32.939  17.209  1.00  0.00     0.105 C 
ENDBRANCH  63  65
ENDBRANCH  59  60
ENDBRANCH  58  59
ENDBRANCH  55  58
ENDBRANCH  53  54
ENDBRANCH  50  53
ENDBRANCH  47  50
ENDBRANCH   5  47
BRANCH   4  74
ATOM     74  N   UNL     1      25.175  37.106   7.659  1.00  0.00    -0.348 N 
ATOM     75  C   UNL     1      26.564  37.374   7.359  1.00  0.00     0.217 C 
ATOM     76  H   UNL     1      24.578  36.918   6.833  1.00  0.00     0.163 HD
ATOM     77  C   UNL     1      27.121  37.386   6.003  1.00  0.00     0.114 C 
ATOM     78  O   UNL     1      27.307  37.604   8.336  1.00  0.00    -0.275 OA
ENDBRANCH   4  74
TORSDOF 30
BEGIN_RES LYS A 131
REMARK  4 active torsions:
REMARK  status: ('A' for Active; 'I' for Inactive)
REMARK    1  A    between atoms: CA   and  CB  
REMARK    2  A    between atoms: CB   and  CG  
REMARK    3  A    between atoms: CG   and  CD  
REMARK    4  A    between atoms: CD   and  CE  
ROOT
ATOM      1  CA  LYS A 131      29.867  25.555  16.977  1.00 20.52     0.186 C 
ENDROOT
BRANCH   1   2
ATOM      2  CB  LYS A 131      28.345  25.722  17.026  1.00 20.94     0.034 C 
BRANCH   2   3
ATOM      3  CG  LYS A 131      27.601  24.401  16.899  1.00 22.96     0.005 C 
BRANCH   3   4
ATOM      4  CD  LYS A 131      26.561  24.232  17.972  1.00 24.33     0.041 C 
BRANCH   4   5
ATOM      5  CE  LYS A 131      25.174  24.442  17.373  1.00 26.91     0.338 C 
ATOM      6  NZ  LYS A 131      24.472  23.146  17.221  1.00 27.40     0.618 N 
ENDBRANCH   4   5
ENDBRANCH   3   4
ENDBRANCH   2   3
ENDBRANCH   1   2
END_RES LYS A 131
BEGIN_RES LYS A 135
REMARK  4 active torsions:
REMARK  status: ('A' for Active; 'I' for Inactive)
REMARK    5  A    between atoms: CA   and  CB  
REMARK    6  A    between atoms: CB   and  CG  
REMARK    7  A    between atoms: CG   and  CD  
REMARK    8  A    between atoms: CD   and  CE  
ROOT
ATOM      7  CA  LYS A 135      33.193  34.663   9.290  1.00 25.02     0.186 C 
ENDROOT
BRANCH   7   8
ATOM      8  CB  LYS A 135      32.060  35.360  10.034  1.00 26.63     0.034 C 
BRANCH   8   9
ATOM      9  CG  LYS A 135      30.733  34.658   9.905  1.00 29.45     0.005 C 
BRANCH   9  10
ATOM     10  CD  LYS A 135      30.345  34.509   8.442  1.00 32.00     0.041 C 
BRANCH  10  11
ATOM     11  CE  LYS A 135      28.836  34.519   8.287  1.00 34.25     0.338 C 
ATOM     12  NZ  LYS A 135      28.179  33.769   9.393  1.00 35.99     0.618 N 
ENDBRANCH  10  11
ENDBRANCH   9  10
ENDBRANCH   8   9
ENDBRANCH   7   8
END_RES LYS A 135
