REMARK VINA RESULT:    -3.042      3.798      9.168
REMARK INTER + INTRA:         -21.261
REMARK INTER:                  -9.711
REMARK INTRA:                 -11.550
REMARK UNBOUND:               -13.239
REMARK SMILES CCOC(=O)Cn1cc(COC(=O)NC[C@@H](O)C(O)[C@@H]2O[C@@](OC[C@H]3O[C@@H](O[C@H]4[C@H](O)[C@@H](O)[C@H](OCCN=[N+]=[N-])O[C@@H]4CO)[C@H](O)[C@@H](O)[C@H]3O)(C(=O)O)C[C@H](O)[C@H]2NC(C)=O)nn1
REMARK SMILES IDX 18 1 20 2 22 3 54 4 21 5 55 6 57 7 23 8 24 9 25 10 27 11
REMARK SMILES IDX 26 12 45 13 47 14 49 15 28 16 29 17 42 18 41 19 34 20 30 21
REMARK SMILES IDX 32 22 43 23 44 24 35 26 36 27 37 28 38 29 39 30 40 31 31 32
REMARK SMILES IDX 33 34 46 36 48 38 50 40 51 42 52 43 53 44 56 46 58 48 59 49
REMARK SMILES IDX 60 51 61 52 19 53 16 55 17 56 15 58 14 59 12 60 13 62 11 63
REMARK SMILES IDX 10 64 9 65 8 66 62 67 7 68 63 69 6 70 4 71 5 72 3 73 2 74
REMARK SMILES IDX 1 75
REMARK H PARENT 44 25 31 33 33 35 46 37 48 39 50 41 53 45 56 47 58 50 19 54
REMARK H PARENT 17 57 14 61
REMARK Flexibility Score: inf
ROOT
ATOM      1  C   UNL     1      29.109  34.065  17.772  1.00  0.00     0.176 C 
ENDROOT
BRANCH   1   2
ATOM      2  C   UNL     1      27.842  33.274  17.597  1.00  0.00     0.178 C 
ATOM      3  C   UNL     1      26.839  31.268  18.260  1.00  0.00     0.272 C 
ATOM      4  C   UNL     1      25.892  31.612  17.162  1.00  0.00     0.113 C 
ATOM      5  O   UNL     1      27.673  32.355  18.600  1.00  0.00    -0.332 OA
ATOM      6  C   UNL     1      26.555  32.086  15.909  1.00  0.00     0.145 C 
ATOM      7  C   UNL     1      27.956  32.558  16.263  1.00  0.00     0.142 C 
BRANCH   3   8
ATOM      8  O   UNL     1      27.628  30.160  18.039  1.00  0.00    -0.338 OA
BRANCH   8   9
ATOM      9  C   UNL     1      27.039  29.028  17.592  1.00  0.00     0.199 C 
BRANCH   9  10
ATOM     10  C   UNL     1      27.300  27.911  18.621  1.00  0.00     0.179 C 
ATOM     11  C   UNL     1      28.157  27.509  20.738  1.00  0.00     0.282 C 
ATOM     12  O   UNL     1      28.076  28.345  19.648  1.00  0.00    -0.341 OA
ATOM     13  C   UNL     1      26.826  27.062  21.261  1.00  0.00     0.202 C 
ATOM     14  C   UNL     1      26.153  26.296  20.152  1.00  0.00     0.179 C 
ATOM     15  C   UNL     1      26.019  27.225  18.993  1.00  0.00     0.177 C 
BRANCH  11  16
ATOM     16  O   UNL     1      28.876  28.055  21.789  1.00  0.00    -0.341 OA
BRANCH  16  17
ATOM     17  C   UNL     1      30.156  28.443  21.487  1.00  0.00     0.184 C 
ATOM     18  C   UNL     1      31.199  27.837  22.401  1.00  0.00     0.178 C 
ATOM     19  O   UNL     1      31.763  28.790  23.238  1.00  0.00    -0.341 OA
ATOM     20  C   UNL     1      32.510  29.751  22.518  1.00  0.00     0.281 C 
ATOM     21  C   UNL     1      30.260  29.965  21.581  1.00  0.00     0.180 C 
ATOM     22  C   UNL     1      31.728  30.304  21.369  1.00  0.00     0.202 C 
BRANCH  18  23
ATOM     23  C   UNL     1      32.210  27.065  21.594  1.00  0.00     0.191 C 
BRANCH  23  24
ATOM     24  O   UNL     1      31.833  27.010  20.239  1.00  0.00    -0.394 OA
ATOM     25  H   UNL     1      31.098  27.627  20.048  1.00  0.00     0.210 HD
ENDBRANCH  23  24
ENDBRANCH  18  23
BRANCH  20  26
ATOM     26  O   UNL     1      33.720  29.234  22.134  1.00  0.00    -0.350 OA
BRANCH  26  27
ATOM     27  C   UNL     1      34.832  29.496  22.859  1.00  0.00     0.169 C 
BRANCH  27  28
ATOM     28  C   UNL     1      35.741  28.386  23.234  1.00  0.00     0.119 C 
BRANCH  28  29
ATOM     29  N   UNL     1      35.148  27.152  23.624  1.00  0.00    -0.092 NA
ATOM     30  N   UNL     1      34.458  27.065  24.661  1.00  0.00     0.001 N 
ATOM     31  N   UNL     1      33.659  27.243  25.598  1.00  0.00    -0.003 NA
ENDBRANCH  28  29
ENDBRANCH  27  28
ENDBRANCH  26  27
ENDBRANCH  20  26
BRANCH  21  32
ATOM     32  O   UNL     1      29.490  30.542  20.568  1.00  0.00    -0.387 OA
ATOM     33  H   UNL     1      28.770  29.875  20.342  1.00  0.00     0.211 HD
ENDBRANCH  21  32
BRANCH  22  34
ATOM     34  O   UNL     1      31.865  31.688  21.230  1.00  0.00    -0.385 OA
ATOM     35  H   UNL     1      32.716  32.038  21.593  1.00  0.00     0.211 HD
ENDBRANCH  22  34
ENDBRANCH  16  17
ENDBRANCH  11  16
BRANCH  13  36
ATOM     36  O   UNL     1      27.033  26.238  22.360  1.00  0.00    -0.385 OA
ATOM     37  H   UNL     1      27.870  26.371  22.831  1.00  0.00     0.211 HD
ENDBRANCH  13  36
BRANCH  14  38
ATOM     38  O   UNL     1      24.865  25.931  20.603  1.00  0.00    -0.387 OA
ATOM     39  H   UNL     1      24.867  24.995  20.924  1.00  0.00     0.211 HD
ENDBRANCH  14  38
BRANCH  15  40
ATOM     40  O   UNL     1      25.011  28.162  19.319  1.00  0.00    -0.387 OA
ATOM     41  H   UNL     1      24.161  27.701  19.078  1.00  0.00     0.211 HD
ENDBRANCH  15  40
ENDBRANCH   9  10
ENDBRANCH   8   9
ENDBRANCH   3   8
BRANCH   3  42
ATOM     42  C   UNL     1      26.037  31.053  19.489  1.00  0.00     0.364 C 
ATOM     43  O   UNL     1      24.799  31.229  19.456  1.00  0.00    -0.246 OA
BRANCH  42  44
ATOM     44  O   UNL     1      26.633  30.667  20.656  1.00  0.00    -0.477 OA
ATOM     45  H   UNL     1      26.399  29.797  21.126  1.00  0.00     0.296 HD
ENDBRANCH  42  44
ENDBRANCH   3  42
BRANCH   6  46
ATOM     46  O   UNL     1      26.557  31.183  14.873  1.00  0.00    -0.391 OA
ATOM     47  H   UNL     1      27.468  30.780  14.804  1.00  0.00     0.211 HD
ENDBRANCH   6  46
BRANCH   7  48
ATOM     48  N   UNL     1      28.477  33.443  15.231  1.00  0.00    -0.348 N 
ATOM     49  C   UNL     1      29.745  33.240  14.634  1.00  0.00     0.217 C 
ATOM     50  H   UNL     1      27.898  34.243  14.922  1.00  0.00     0.163 HD
ATOM     51  C   UNL     1      30.291  34.140  13.575  1.00  0.00     0.114 C 
ATOM     52  O   UNL     1      30.431  32.255  15.021  1.00  0.00    -0.275 OA
ENDBRANCH   7  48
ENDBRANCH   1   2
BRANCH   1  53
ATOM     53  O   UNL     1      28.850  35.271  18.393  1.00  0.00    -0.388 OA
ATOM     54  H   UNL     1      28.067  35.236  19.015  1.00  0.00     0.211 HD
ENDBRANCH   1  53
BRANCH   1  55
ATOM     55  C   UNL     1      30.168  33.323  18.568  1.00  0.00     0.165 C 
BRANCH  55  56
ATOM     56  O   UNL     1      29.941  33.352  19.923  1.00  0.00    -0.388 OA
ATOM     57  H   UNL     1      29.091  32.935  20.198  1.00  0.00     0.211 HD
ENDBRANCH  55  56
BRANCH  55  58
ATOM     58  C   UNL     1      31.504  33.892  18.222  1.00  0.00     0.154 C 
BRANCH  58  59
ATOM     59  N   UNL     1      31.535  34.656  17.025  1.00  0.00    -0.319 N 
ATOM     60  C   UNL     1      32.608  35.487  16.606  1.00  0.00     0.407 C 
ATOM     61  H   UNL     1      30.694  34.632  16.349  1.00  0.00     0.167 HD
ATOM     62  O   UNL     1      33.646  35.612  17.277  1.00  0.00    -0.225 OA
BRANCH  60  63
ATOM     63  O   UNL     1      32.496  36.189  15.392  1.00  0.00    -0.443 OA
BRANCH  63  64
ATOM     64  C   UNL     1      31.910  37.447  15.347  1.00  0.00     0.294 C 
BRANCH  64  65
ATOM     65  C   UNL     1      30.447  37.440  15.539  1.00  0.00     0.120 A 
ATOM     66  C   UNL     1      29.489  37.380  14.545  1.00  0.00     0.139 A 
ATOM     67  N   UNL     1      29.763  37.499  16.689  1.00  0.00    -0.132 NA
ATOM     68  N   UNL     1      28.258  37.406  15.108  1.00  0.00    -0.241 N 
ATOM     69  N   UNL     1      28.463  37.477  16.406  1.00  0.00    -0.066 NA
BRANCH  68  70
ATOM     70  C   UNL     1      27.005  37.366  14.364  1.00  0.00     0.268 C 
BRANCH  70  71
ATOM     71  C   UNL     1      26.520  35.940  14.384  1.00  0.00     0.327 C 
ATOM     72  O   UNL     1      25.892  35.468  15.351  1.00  0.00    -0.250 OA
BRANCH  71  73
ATOM     73  O   UNL     1      26.755  35.090  13.318  1.00  0.00    -0.465 OA
BRANCH  73  74
ATOM     74  C   UNL     1      25.794  34.262  12.730  1.00  0.00     0.229 C 
ATOM     75  C   UNL     1      24.870  35.003  11.795  1.00  0.00     0.049 C 
ENDBRANCH  73  74
ENDBRANCH  71  73
ENDBRANCH  70  71
ENDBRANCH  68  70
ENDBRANCH  64  65
ENDBRANCH  63  64
ENDBRANCH  60  63
ENDBRANCH  58  59
ENDBRANCH  55  58
ENDBRANCH   1  55
TORSDOF 33
BEGIN_RES LYS A 131
REMARK  4 active torsions:
REMARK  status: ('A' for Active; 'I' for Inactive)
REMARK    1  A    between atoms: CA   and  CB  
REMARK    2  A    between atoms: CB   and  CG  
REMARK    3  A    between atoms: CG   and  CD  
REMARK    4  A    between atoms: CD   and  CE  
ROOT
ATOM      1  CA  LYS A 131      29.867  25.555  16.977  1.00 20.52     0.186 C 
ENDROOT
BRANCH   1   2
ATOM      2  CB  LYS A 131      28.345  25.722  17.026  1.00 20.94     0.034 C 
BRANCH   2   3
ATOM      3  CG  LYS A 131      27.599  24.477  16.570  1.00 22.96     0.005 C 
BRANCH   3   4
ATOM      4  CD  LYS A 131      27.304  23.544  17.711  1.00 24.33     0.041 C 
BRANCH   4   5
ATOM      5  CE  LYS A 131      25.796  23.468  17.930  1.00 26.91     0.338 C 
ATOM      6  NZ  LYS A 131      25.086  24.319  16.946  1.00 27.40     0.618 N 
ENDBRANCH   4   5
ENDBRANCH   3   4
ENDBRANCH   2   3
ENDBRANCH   1   2
END_RES LYS A 131
BEGIN_RES LYS A 135
REMARK  4 active torsions:
REMARK  status: ('A' for Active; 'I' for Inactive)
REMARK    5  A    between atoms: CA   and  CB  
REMARK    6  A    between atoms: CB   and  CG  
REMARK    7  A    between atoms: CG   and  CD  
REMARK    8  A    between atoms: CD   and  CE  
ROOT
ATOM      7  CA  LYS A 135      33.193  34.663   9.290  1.00 25.02     0.186 C 
ENDROOT
BRANCH   7   8
ATOM      8  CB  LYS A 135      32.060  35.360  10.034  1.00 26.63     0.034 C 
BRANCH   8   9
ATOM      9  CG  LYS A 135      30.898  35.732   9.150  1.00 29.45     0.005 C 
BRANCH   9  10
ATOM     10  CD  LYS A 135      30.340  34.501   8.452  1.00 32.00     0.041 C 
BRANCH  10  11
ATOM     11  CE  LYS A 135      28.897  34.729   8.042  1.00 34.25     0.338 C 
ATOM     12  NZ  LYS A 135      28.816  35.461   6.748  1.00 35.99     0.618 N 
ENDBRANCH  10  11
ENDBRANCH   9  10
ENDBRANCH   8   9
ENDBRANCH   7   8
END_RES LYS A 135
