REMARK VINA RESULT:    -3.572      3.063      6.921
REMARK INTER + INTRA:         -21.465
REMARK INTER:                 -11.000
REMARK INTRA:                 -10.465
REMARK UNBOUND:               -12.359
REMARK SMILES CC(=O)N[C@@H]1[C@@H](O)C[C@](OC[C@H]2O[C@@H](O[C@H]3[C@H](O)[C@@H](O)[C@H](OCCN=[N+]=[N-])O[C@@H]3CO)[C@H](O)[C@@H](O)[C@H]2O)(C(=O)O)O[C@H]1C(O)[C@H](O)CNC(=O)OCc1cn(CC(=O)O)nn1
REMARK SMILES IDX 9 1 8 2 6 3 5 4 42 5 41 6 10 7 11 8 12 9 14 10 13 11 32 12
REMARK SMILES IDX 34 13 36 14 15 15 16 16 29 17 28 18 21 19 17 20 19 21 30 22
REMARK SMILES IDX 31 23 22 25 23 26 24 27 25 28 26 29 27 30 18 31 20 33 33 35
REMARK SMILES IDX 35 37 37 39 38 41 39 42 40 43 7 45 43 47 44 48 45 50 46 51
REMARK SMILES IDX 47 53 48 54 49 55 50 57 51 58 52 59 53 60 54 61 61 62 55 63
REMARK SMILES IDX 60 64 56 65 57 66 58 67 59 68 4 70 2 71 1 73 3 74
REMARK H PARENT 31 24 18 32 20 34 33 36 35 38 37 40 40 44 7 46 44 49 46 52
REMARK H PARENT 48 56 59 69 4 72
REMARK Flexibility Score: inf
ROOT
ATOM      1  C   UNL     1      26.995  36.265   7.546  1.00  0.00     0.272 C 
ATOM      2  C   UNL     1      26.997  34.821   7.956  1.00  0.00     0.113 C 
ATOM      3  C   UNL     1      27.349  34.530   9.354  1.00  0.00     0.145 C 
ATOM      4  C   UNL     1      28.051  35.648  10.117  1.00  0.00     0.142 C 
ATOM      5  C   UNL     1      28.690  36.524   9.084  1.00  0.00     0.178 C 
ATOM      6  O   UNL     1      27.569  37.114   8.440  1.00  0.00    -0.332 OA
ENDROOT
BRANCH   1   7
ATOM      7  O   UNL     1      25.689  36.725   7.268  1.00  0.00    -0.338 OA
BRANCH   7   8
ATOM      8  C   UNL     1      25.082  37.376   8.297  1.00  0.00     0.199 C 
BRANCH   8   9
ATOM      9  C   UNL     1      23.951  36.500   8.860  1.00  0.00     0.179 C 
ATOM     10  C   UNL     1      22.613  36.754  10.722  1.00  0.00     0.282 C 
ATOM     11  O   UNL     1      23.930  36.483  10.231  1.00  0.00    -0.341 OA
ATOM     12  C   UNL     1      22.348  38.159  10.325  1.00  0.00     0.202 C 
ATOM     13  C   UNL     1      22.018  38.118   8.824  1.00  0.00     0.179 C 
ATOM     14  C   UNL     1      22.632  36.885   8.219  1.00  0.00     0.177 C 
BRANCH  10  15
ATOM     15  O   UNL     1      22.602  36.459  12.053  1.00  0.00    -0.341 OA
BRANCH  15  16
ATOM     16  C   UNL     1      22.737  35.098  12.333  1.00  0.00     0.184 C 
ATOM     17  C   UNL     1      21.613  34.690  13.239  1.00  0.00     0.178 C 
ATOM     18  O   UNL     1      21.983  33.655  14.054  1.00  0.00    -0.341 OA
ATOM     19  C   UNL     1      22.811  32.703  13.517  1.00  0.00     0.281 C 
ATOM     20  C   UNL     1      24.046  34.809  13.037  1.00  0.00     0.180 C 
ATOM     21  C   UNL     1      24.161  33.286  13.133  1.00  0.00     0.202 C 
BRANCH  17  22
ATOM     22  C   UNL     1      20.419  34.274  12.399  1.00  0.00     0.191 C 
BRANCH  22  23
ATOM     23  O   UNL     1      20.902  34.106  11.099  1.00  0.00    -0.394 OA
ATOM     24  H   UNL     1      20.194  33.778  10.502  1.00  0.00     0.210 HD
ENDBRANCH  22  23
ENDBRANCH  17  22
BRANCH  19  25
ATOM     25  O   UNL     1      22.205  32.051  12.478  1.00  0.00    -0.350 OA
BRANCH  25  26
ATOM     26  C   UNL     1      21.826  30.762  12.757  1.00  0.00     0.169 C 
BRANCH  26  27
ATOM     27  C   UNL     1      22.882  29.722  12.484  1.00  0.00     0.119 C 
BRANCH  27  28
ATOM     28  N   UNL     1      23.289  29.048  13.719  1.00  0.00    -0.092 NA
ATOM     29  N   UNL     1      23.995  29.725  14.493  1.00  0.00     0.001 N 
ATOM     30  N   UNL     1      24.947  29.946  15.267  1.00  0.00    -0.003 NA
ENDBRANCH  27  28
ENDBRANCH  26  27
ENDBRANCH  25  26
ENDBRANCH  19  25
BRANCH  20  31
ATOM     31  O   UNL     1      25.148  35.256  12.352  1.00  0.00    -0.387 OA
ATOM     32  H   UNL     1      25.684  35.925  12.807  1.00  0.00     0.211 HD
ENDBRANCH  20  31
BRANCH  21  33
ATOM     33  O   UNL     1      25.109  32.913  14.067  1.00  0.00    -0.385 OA
ATOM     34  H   UNL     1      24.717  32.824  14.974  1.00  0.00     0.211 HD
ENDBRANCH  21  33
ENDBRANCH  15  16
ENDBRANCH  10  15
BRANCH  12  35
ATOM     35  O   UNL     1      21.420  38.851  11.048  1.00  0.00    -0.385 OA
ATOM     36  H   UNL     1      20.824  39.341  10.459  1.00  0.00     0.211 HD
ENDBRANCH  12  35
BRANCH  13  37
ATOM     37  O   UNL     1      22.555  39.267   8.262  1.00  0.00    -0.387 OA
ATOM     38  H   UNL     1      22.597  39.227   7.266  1.00  0.00     0.211 HD
ENDBRANCH  13  37
BRANCH  14  39
ATOM     39  O   UNL     1      22.880  37.186   6.880  1.00  0.00    -0.387 OA
ATOM     40  H   UNL     1      23.084  36.384   6.345  1.00  0.00     0.211 HD
ENDBRANCH  14  39
ENDBRANCH   8   9
ENDBRANCH   7   8
ENDBRANCH   1   7
BRANCH   1  41
ATOM     41  C   UNL     1      27.719  36.377   6.259  1.00  0.00     0.364 C 
ATOM     42  O   UNL     1      28.738  35.702   6.020  1.00  0.00    -0.246 OA
BRANCH  41  43
ATOM     43  O   UNL     1      27.298  37.237   5.258  1.00  0.00    -0.477 OA
ATOM     44  H   UNL     1      27.888  37.992   4.887  1.00  0.00     0.296 HD
ENDBRANCH  41  43
ENDBRANCH   1  41
BRANCH   3  45
ATOM     45  O   UNL     1      26.313  33.965  10.105  1.00  0.00    -0.391 OA
ATOM     46  H   UNL     1      25.456  34.410   9.992  1.00  0.00     0.211 HD
ENDBRANCH   3  45
BRANCH   5  47
ATOM     47  C   UNL     1      29.590  37.610   9.565  1.00  0.00     0.176 C 
BRANCH  47  48
ATOM     48  O   UNL     1      28.810  38.310  10.544  1.00  0.00    -0.388 OA
ATOM     49  H   UNL     1      29.077  38.000  11.456  1.00  0.00     0.211 HD
ENDBRANCH  47  48
BRANCH  47  50
ATOM     50  C   UNL     1      29.992  38.605   8.498  1.00  0.00     0.165 C 
BRANCH  50  51
ATOM     51  O   UNL     1      30.351  37.894   7.324  1.00  0.00    -0.388 OA
ATOM     52  H   UNL     1      30.924  37.148   7.604  1.00  0.00     0.211 HD
ENDBRANCH  50  51
BRANCH  50  53
ATOM     53  C   UNL     1      31.112  39.482   8.899  1.00  0.00     0.154 C 
BRANCH  53  54
ATOM     54  N   UNL     1      30.706  40.525   9.797  1.00  0.00    -0.319 N 
ATOM     55  C   UNL     1      30.171  41.787   9.457  1.00  0.00     0.407 C 
ATOM     56  H   UNL     1      30.795  40.385  10.868  1.00  0.00     0.167 HD
ATOM     57  O   UNL     1      30.007  42.125   8.282  1.00  0.00    -0.225 OA
BRANCH  55  58
ATOM     58  O   UNL     1      29.800  42.724  10.429  1.00  0.00    -0.443 OA
BRANCH  58  59
ATOM     59  C   UNL     1      29.279  42.309  11.679  1.00  0.00     0.294 C 
BRANCH  59  60
ATOM     60  C   UNL     1      27.860  41.859  11.534  1.00  0.00     0.120 A 
ATOM     61  C   UNL     1      27.161  41.030  12.400  1.00  0.00     0.139 A 
ATOM     62  N   UNL     1      26.997  42.161  10.552  1.00  0.00    -0.132 NA
ATOM     63  N   UNL     1      25.918  40.868  11.912  1.00  0.00    -0.241 N 
ATOM     64  N   UNL     1      25.842  41.563  10.788  1.00  0.00    -0.066 NA
BRANCH  63  65
ATOM     65  C   UNL     1      24.825  40.078  12.489  1.00  0.00     0.268 C 
BRANCH  65  66
ATOM     66  C   UNL     1      25.294  38.689  12.636  1.00  0.00     0.325 C 
ATOM     67  O   UNL     1      25.120  38.078  13.700  1.00  0.00    -0.250 OA
BRANCH  66  68
ATOM     68  O   UNL     1      25.932  38.068  11.581  1.00  0.00    -0.480 OA
ATOM     69  H   UNL     1      25.586  38.088  10.645  1.00  0.00     0.296 HD
ENDBRANCH  66  68
ENDBRANCH  65  66
ENDBRANCH  63  65
ENDBRANCH  59  60
ENDBRANCH  58  59
ENDBRANCH  55  58
ENDBRANCH  53  54
ENDBRANCH  50  53
ENDBRANCH  47  50
ENDBRANCH   5  47
BRANCH   4  70
ATOM     70  N   UNL     1      28.878  35.130  11.151  1.00  0.00    -0.348 N 
ATOM     71  C   UNL     1      28.627  35.392  12.542  1.00  0.00     0.217 C 
ATOM     72  H   UNL     1      29.693  34.523  10.933  1.00  0.00     0.163 HD
ATOM     73  C   UNL     1      29.540  34.810  13.553  1.00  0.00     0.114 C 
ATOM     74  O   UNL     1      27.656  36.098  12.901  1.00  0.00    -0.275 OA
ENDBRANCH   4  70
TORSDOF 32
BEGIN_RES LYS A 131
REMARK  4 active torsions:
REMARK  status: ('A' for Active; 'I' for Inactive)
REMARK    1  A    between atoms: CA   and  CB  
REMARK    2  A    between atoms: CB   and  CG  
REMARK    3  A    between atoms: CG   and  CD  
REMARK    4  A    between atoms: CD   and  CE  
ROOT
ATOM      1  CA  LYS A 131      29.867  25.555  16.977  1.00 20.52     0.186 C 
ENDROOT
BRANCH   1   2
ATOM      2  CB  LYS A 131      28.345  25.722  17.026  1.00 20.94     0.034 C 
BRANCH   2   3
ATOM      3  CG  LYS A 131      27.601  24.401  16.902  1.00 22.96     0.005 C 
BRANCH   3   4
ATOM      4  CD  LYS A 131      26.163  24.519  17.323  1.00 24.33     0.041 C 
BRANCH   4   5
ATOM      5  CE  LYS A 131      25.901  23.594  18.507  1.00 26.91     0.338 C 
ATOM      6  NZ  LYS A 131      24.725  24.060  19.280  1.00 27.40     0.618 N 
ENDBRANCH   4   5
ENDBRANCH   3   4
ENDBRANCH   2   3
ENDBRANCH   1   2
END_RES LYS A 131
BEGIN_RES LYS A 135
REMARK  4 active torsions:
REMARK  status: ('A' for Active; 'I' for Inactive)
REMARK    5  A    between atoms: CA   and  CB  
REMARK    6  A    between atoms: CB   and  CG  
REMARK    7  A    between atoms: CG   and  CD  
REMARK    8  A    between atoms: CD   and  CE  
ROOT
ATOM      7  CA  LYS A 135      33.193  34.663   9.290  1.00 25.02     0.186 C 
ENDROOT
BRANCH   7   8
ATOM      8  CB  LYS A 135      32.060  35.360  10.034  1.00 26.63     0.034 C 
BRANCH   8   9
ATOM      9  CG  LYS A 135      32.423  35.769  11.438  1.00 29.45     0.005 C 
BRANCH   9  10
ATOM     10  CD  LYS A 135      32.261  37.270  11.619  1.00 32.00     0.041 C 
BRANCH  10  11
ATOM     11  CE  LYS A 135      31.547  37.576  12.921  1.00 34.25     0.338 C 
ATOM     12  NZ  LYS A 135      31.020  38.969  12.930  1.00 35.99     0.618 N 
ENDBRANCH  10  11
ENDBRANCH   9  10
ENDBRANCH   8   9
ENDBRANCH   7   8
END_RES LYS A 135
