REMARK VINA RESULT:    -6.814      5.209     11.165
REMARK INTER + INTRA:         -20.184
REMARK INTER:                 -12.909
REMARK INTRA:                  -7.275
REMARK UNBOUND:                -1.022
REMARK SMILES CC(=O)N[C@@H]1[C@@H](O)C[C@](OC[C@H]2O[C@@H](O[C@H]3[C@H](O)[C@@H](O)[C@H](OCCN=[N+]=[N-])O[C@@H]3CO)[C@H](O)[C@@H](O)[C@H]2O)(C(=O)O)O[C@H]1C(O)[C@H](O)CNC(=O)OCc1cn(C2CC(O)C=C[C@@H](O)C2)nn1
REMARK SMILES IDX 43 1 42 2 9 3 8 4 41 5 6 6 5 7 10 8 11 9 12 10 14 11 13 12
REMARK SMILES IDX 32 13 34 14 36 15 15 16 16 17 29 18 28 19 21 20 17 21 19 22
REMARK SMILES IDX 30 23 31 24 22 26 23 27 24 28 25 29 26 30 27 31 18 32 20 34
REMARK SMILES IDX 33 36 35 38 37 40 38 42 39 43 40 44 7 46 4 48 2 49 1 51 3 52
REMARK SMILES IDX 44 53 45 55 46 56 47 58 48 59 49 60 50 62 51 63 52 64 53 65
REMARK SMILES IDX 54 66 66 67 55 68 65 69 56 70 57 71 58 72 59 74 64 76 62 77
REMARK SMILES IDX 61 78 60 79 63 81
REMARK H PARENT 31 25 18 33 20 35 33 37 35 39 37 41 40 45 7 47 4 50 44 54
REMARK H PARENT 46 57 48 61 59 75 63 82
REMARK Flexibility Score: 90.00
ROOT
ATOM      1  C   UNL     1      31.858  27.515  21.375  1.00  0.00     0.176 C 
ENDROOT
BRANCH   1   2
ATOM      2  C   UNL     1      31.518  28.992  21.469  1.00  0.00     0.178 C 
ATOM      3  C   UNL     1      30.082  30.482  20.349  1.00  0.00     0.272 C 
ATOM      4  C   UNL     1      30.838  31.656  20.853  1.00  0.00     0.113 C 
ATOM      5  O   UNL     1      30.656  29.268  20.369  1.00  0.00    -0.332 OA
ATOM      6  C   UNL     1      31.969  31.330  21.758  1.00  0.00     0.145 C 
ATOM      7  C   UNL     1      32.609  29.965  21.353  1.00  0.00     0.142 C 
BRANCH   3   8
ATOM      8  O   UNL     1      29.588  30.803  19.067  1.00  0.00    -0.338 OA
BRANCH   8   9
ATOM      9  C   UNL     1      28.564  31.704  19.056  1.00  0.00     0.199 C 
BRANCH   9  10
ATOM     10  C   UNL     1      28.720  32.695  17.902  1.00  0.00     0.179 C 
ATOM     11  C   UNL     1      30.557  33.371  16.676  1.00  0.00     0.282 C 
ATOM     12  O   UNL     1      29.989  33.180  17.936  1.00  0.00    -0.341 OA
ATOM     13  C   UNL     1      30.683  31.972  16.102  1.00  0.00     0.202 C 
ATOM     14  C   UNL     1      29.281  31.548  15.726  1.00  0.00     0.179 C 
ATOM     15  C   UNL     1      28.230  32.138  16.610  1.00  0.00     0.177 C 
BRANCH  11  16
ATOM     16  O   UNL     1      31.758  34.024  16.819  1.00  0.00    -0.341 OA
BRANCH  16  17
ATOM     17  C   UNL     1      31.560  35.403  16.699  1.00  0.00     0.184 C 
ATOM     18  C   UNL     1      32.390  35.951  15.566  1.00  0.00     0.178 C 
ATOM     19  O   UNL     1      33.727  36.076  15.843  1.00  0.00    -0.341 OA
ATOM     20  C   UNL     1      34.061  35.814  17.171  1.00  0.00     0.281 C 
ATOM     21  C   UNL     1      31.788  36.138  17.991  1.00  0.00     0.180 C 
ATOM     22  C   UNL     1      33.195  36.661  18.096  1.00  0.00     0.202 C 
BRANCH  18  23
ATOM     23  C   UNL     1      31.832  37.284  15.086  1.00  0.00     0.191 C 
BRANCH  23  24
ATOM     24  O   UNL     1      30.655  37.132  14.377  1.00  0.00    -0.394 OA
ATOM     25  H   UNL     1      30.722  37.430  13.456  1.00  0.00     0.210 HD
ENDBRANCH  23  24
ENDBRANCH  18  23
BRANCH  20  26
ATOM     26  O   UNL     1      35.399  36.169  17.308  1.00  0.00    -0.350 OA
BRANCH  26  27
ATOM     27  C   UNL     1      36.097  35.704  16.199  1.00  0.00     0.169 C 
BRANCH  27  28
ATOM     28  C   UNL     1      37.597  35.731  16.438  1.00  0.00     0.119 C 
BRANCH  28  29
ATOM     29  N   UNL     1      38.199  34.464  16.082  1.00  0.00    -0.092 NA
ATOM     30  N   UNL     1      38.097  34.058  14.913  1.00  0.00     0.001 N 
ATOM     31  N   UNL     1      37.837  33.720  13.750  1.00  0.00    -0.003 NA
ENDBRANCH  28  29
ENDBRANCH  27  28
ENDBRANCH  26  27
ENDBRANCH  20  26
BRANCH  21  32
ATOM     32  O   UNL     1      30.882  37.192  18.114  1.00  0.00    -0.387 OA
ATOM     33  H   UNL     1      30.866  37.560  19.030  1.00  0.00     0.211 HD
ENDBRANCH  21  32
BRANCH  22  34
ATOM     34  O   UNL     1      33.671  36.559  19.398  1.00  0.00    -0.385 OA
ATOM     35  H   UNL     1      33.078  37.044  20.029  1.00  0.00     0.211 HD
ENDBRANCH  22  34
ENDBRANCH  16  17
ENDBRANCH  11  16
BRANCH  13  36
ATOM     36  O   UNL     1      31.517  31.877  15.020  1.00  0.00    -0.385 OA
ATOM     37  H   UNL     1      32.140  32.613  14.909  1.00  0.00     0.211 HD
ENDBRANCH  13  36
BRANCH  14  38
ATOM     38  O   UNL     1      29.271  30.154  15.727  1.00  0.00    -0.387 OA
ATOM     39  H   UNL     1      28.934  29.799  14.858  1.00  0.00     0.211 HD
ENDBRANCH  14  38
BRANCH  15  40
ATOM     40  O   UNL     1      27.263  31.161  16.925  1.00  0.00    -0.387 OA
ATOM     41  H   UNL     1      26.841  31.297  17.785  1.00  0.00     0.211 HD
ENDBRANCH  15  40
ENDBRANCH   9  10
ENDBRANCH   8   9
ENDBRANCH   3   8
BRANCH   3  42
ATOM     42  C   UNL     1      28.850  30.382  21.222  1.00  0.00     0.364 C 
ATOM     43  O   UNL     1      28.592  31.220  22.126  1.00  0.00    -0.246 OA
BRANCH  42  44
ATOM     44  O   UNL     1      27.990  29.319  20.996  1.00  0.00    -0.477 OA
ATOM     45  H   UNL     1      26.982  29.462  20.927  1.00  0.00     0.296 HD
ENDBRANCH  42  44
ENDBRANCH   3  42
BRANCH   6  46
ATOM     46  O   UNL     1      32.925  32.316  21.759  1.00  0.00    -0.391 OA
ATOM     47  H   UNL     1      33.616  32.118  22.427  1.00  0.00     0.211 HD
ENDBRANCH   6  46
BRANCH   7  48
ATOM     48  N   UNL     1      33.821  29.807  22.060  1.00  0.00    -0.348 N 
ATOM     49  C   UNL     1      33.825  29.811  23.478  1.00  0.00     0.217 C 
ATOM     50  H   UNL     1      34.717  29.655  21.563  1.00  0.00     0.163 HD
ATOM     51  C   UNL     1      35.089  29.645  24.244  1.00  0.00     0.114 C 
ATOM     52  O   UNL     1      32.747  29.956  24.101  1.00  0.00    -0.275 OA
ENDBRANCH   7  48
ENDBRANCH   1   2
BRANCH   1  53
ATOM     53  O   UNL     1      32.016  27.374  19.927  1.00  0.00    -0.388 OA
ATOM     54  H   UNL     1      32.704  28.052  19.638  1.00  0.00     0.211 HD
ENDBRANCH   1  53
BRANCH   1  55
ATOM     55  C   UNL     1      30.696  26.598  21.632  1.00  0.00     0.165 C 
BRANCH  55  56
ATOM     56  O   UNL     1      29.764  26.641  20.624  1.00  0.00    -0.388 OA
ATOM     57  H   UNL     1      29.014  27.252  20.797  1.00  0.00     0.211 HD
ENDBRANCH  55  56
BRANCH  55  58
ATOM     58  C   UNL     1      29.968  26.994  22.912  1.00  0.00     0.154 C 
BRANCH  58  59
ATOM     59  N   UNL     1      28.561  27.177  22.751  1.00  0.00    -0.319 N 
ATOM     60  C   UNL     1      27.594  26.378  23.422  1.00  0.00     0.407 C 
ATOM     61  H   UNL     1      28.201  27.941  22.104  1.00  0.00     0.167 HD
ATOM     62  O   UNL     1      28.034  25.471  24.185  1.00  0.00    -0.225 OA
BRANCH  60  63
ATOM     63  O   UNL     1      26.250  26.603  23.230  1.00  0.00    -0.443 OA
BRANCH  63  64
ATOM     64  C   UNL     1      25.488  25.756  22.374  1.00  0.00     0.294 C 
BRANCH  64  65
ATOM     65  C   UNL     1      25.591  26.292  20.998  1.00  0.00     0.120 A 
ATOM     66  C   UNL     1      24.584  26.529  20.099  1.00  0.00     0.138 A 
ATOM     67  N   UNL     1      26.735  26.640  20.383  1.00  0.00    -0.132 NA
ATOM     68  N   UNL     1      25.153  27.011  18.966  1.00  0.00    -0.249 N 
ATOM     69  N   UNL     1      26.452  27.066  19.170  1.00  0.00    -0.067 NA
BRANCH  68  70
ATOM     70  C   UNL     1      24.453  27.398  17.733  1.00  0.00     0.115 C 
BRANCH  70  71
ATOM     71  C   UNL     1      23.207  26.586  17.618  1.00  0.00     0.063 C 
BRANCH  71  72
ATOM     72  C   UNL     1      22.827  26.467  16.138  1.00  0.00     0.139 CG0
ATOM     73  G   UNL     1      22.316  27.764  15.668  1.00  0.00     0.000 G0
BRANCH  72  74
ATOM     74  O   UNL     1      21.881  25.458  15.972  1.00  0.00    -0.389 OA
ATOM     75  H   UNL     1      20.980  25.888  15.927  1.00  0.00     0.211 HD
ENDBRANCH  72  74
ENDBRANCH  71  72
ENDBRANCH  70  71
BRANCH  70  76
ATOM     76  C   UNL     1      24.148  28.862  17.800  1.00  0.00     0.063 C 
BRANCH  76  77
ATOM     77  C   UNL     1      24.111  29.368  16.354  1.00  0.00     0.139 C 
BRANCH  77  78
ATOM     78  C   UNL     1      22.810  29.003  15.731  1.00  0.00     0.002 C 
ATOM     79  C   UNL     1      22.299  27.783  15.650  1.00  0.00     0.002 CG0
ATOM     80  G   UNL     1      22.841  26.501  16.129  1.00  0.00     0.000 G0
ENDBRANCH  77  78
BRANCH  77  81
ATOM     81  O   UNL     1      24.342  30.734  16.284  1.00  0.00    -0.389 OA
ATOM     82  H   UNL     1      25.313  30.881  16.459  1.00  0.00     0.211 HD
ENDBRANCH  77  81
ENDBRANCH  76  77
ENDBRANCH  70  76
ENDBRANCH  68  70
ENDBRANCH  64  65
ENDBRANCH  63  64
ENDBRANCH  60  63
ENDBRANCH  58  59
ENDBRANCH  55  58
ENDBRANCH   1  55
TORSDOF 32
BEGIN_RES LYS A 131
REMARK  4 active torsions:
REMARK  status: ('A' for Active; 'I' for Inactive)
REMARK    1  A    between atoms: CA   and  CB  
REMARK    2  A    between atoms: CB   and  CG  
REMARK    3  A    between atoms: CG   and  CD  
REMARK    4  A    between atoms: CD   and  CE  
ROOT
ATOM      1  CA  LYS A 131      29.867  25.555  16.977  1.00 20.52     0.186 C 
ENDROOT
BRANCH   1   2
ATOM      2  CB  LYS A 131      28.345  25.722  17.026  1.00 20.94     0.034 C 
BRANCH   2   3
ATOM      3  CG  LYS A 131      27.599  24.481  16.559  1.00 22.96     0.005 C 
BRANCH   3   4
ATOM      4  CD  LYS A 131      26.963  23.739  17.702  1.00 24.33     0.041 C 
BRANCH   4   5
ATOM      5  CE  LYS A 131      25.457  23.653  17.478  1.00 26.91     0.338 C 
ATOM      6  NZ  LYS A 131      24.980  22.265  17.685  1.00 27.40     0.618 N 
ENDBRANCH   4   5
ENDBRANCH   3   4
ENDBRANCH   2   3
ENDBRANCH   1   2
END_RES LYS A 131
BEGIN_RES LYS A 135
REMARK  4 active torsions:
REMARK  status: ('A' for Active; 'I' for Inactive)
REMARK    5  A    between atoms: CA   and  CB  
REMARK    6  A    between atoms: CB   and  CG  
REMARK    7  A    between atoms: CG   and  CD  
REMARK    8  A    between atoms: CD   and  CE  
ROOT
ATOM      7  CA  LYS A 135      33.193  34.663   9.290  1.00 25.02     0.186 C 
ENDROOT
BRANCH   7   8
ATOM      8  CB  LYS A 135      32.060  35.360  10.034  1.00 26.63     0.034 C 
BRANCH   8   9
ATOM      9  CG  LYS A 135      30.699  34.790   9.730  1.00 29.45     0.005 C 
BRANCH   9  10
ATOM     10  CD  LYS A 135      30.558  34.501   8.243  1.00 32.00     0.041 C 
BRANCH  10  11
ATOM     11  CE  LYS A 135      29.172  34.877   7.756  1.00 34.25     0.338 C 
ATOM     12  NZ  LYS A 135      28.144  34.601   8.798  1.00 35.99     0.618 N 
ENDBRANCH  10  11
ENDBRANCH   9  10
ENDBRANCH   8   9
ENDBRANCH   7   8
END_RES LYS A 135
