REMARK VINA RESULT:    -4.281      3.849      7.391
REMARK INTER + INTRA:         -22.101
REMARK INTER:                 -11.037
REMARK INTRA:                 -11.064
REMARK UNBOUND:               -11.064
REMARK SMILES CC(=O)N[C@@H]1[C@@H](O)C[C@](OC[C@H]2O[C@@H](O[C@H]3[C@H](O)[C@@H](O)[C@H](OCCN=[N+]=[N-])O[C@@H]3CO)[C@H](O)[C@@H](O)[C@H]2O)(C(=O)O)O[C@H]1C(O)[C@H](O)CNC(=O)OCc1cn(CC(=O)Nc2ncccn2)nn1
REMARK SMILES IDX 9 1 8 2 6 3 5 4 42 5 41 6 10 7 11 8 12 9 14 10 13 11 32 12
REMARK SMILES IDX 34 13 36 14 15 15 16 16 29 17 28 18 21 19 17 20 19 21 30 22
REMARK SMILES IDX 31 23 22 25 23 26 24 27 25 28 26 29 27 30 18 31 20 33 33 35
REMARK SMILES IDX 35 37 37 39 38 41 39 42 40 43 7 45 43 47 44 48 45 50 46 51
REMARK SMILES IDX 47 53 48 54 49 55 50 57 51 58 52 59 53 60 54 61 67 62 55 63
REMARK SMILES IDX 66 64 56 65 57 66 58 67 59 68 60 70 61 71 65 72 62 73 64 74
REMARK SMILES IDX 63 75 4 76 2 77 1 79 3 80
REMARK H PARENT 31 24 18 32 20 34 33 36 35 38 37 40 40 44 7 46 44 49 46 52
REMARK H PARENT 48 56 59 69 4 78
REMARK Flexibility Score: inf
ROOT
ATOM      1  C   UNL     1      26.451  37.433   7.393  1.00  0.00     0.272 C 
ATOM      2  C   UNL     1      27.409  36.329   6.977  1.00  0.00     0.113 C 
ATOM      3  C   UNL     1      28.742  36.879   6.667  1.00  0.00     0.145 C 
ATOM      4  C   UNL     1      29.284  37.893   7.662  1.00  0.00     0.142 C 
ATOM      5  C   UNL     1      28.242  38.627   8.378  1.00  0.00     0.178 C 
ATOM      6  O   UNL     1      27.105  37.865   8.608  1.00  0.00    -0.332 OA
ENDROOT
BRANCH   1   7
ATOM      7  O   UNL     1      25.303  36.885   7.770  1.00  0.00    -0.338 OA
BRANCH   7   8
ATOM      8  C   UNL     1      24.823  36.169   8.704  1.00  0.00     0.199 C 
BRANCH   8   9
ATOM      9  C   UNL     1      23.779  36.528   9.708  1.00  0.00     0.179 C 
ATOM     10  C   UNL     1      23.687  37.368  11.885  1.00  0.00     0.282 C 
ATOM     11  O   UNL     1      24.515  36.893  10.916  1.00  0.00    -0.341 OA
ATOM     12  C   UNL     1      23.321  38.856  11.572  1.00  0.00     0.202 C 
ATOM     13  C   UNL     1      23.647  38.961  10.095  1.00  0.00     0.179 C 
ATOM     14  C   UNL     1      22.955  37.736   9.456  1.00  0.00     0.177 C 
BRANCH  10  15
ATOM     15  O   UNL     1      24.358  37.368  13.115  1.00  0.00    -0.341 OA
BRANCH  15  16
ATOM     16  C   UNL     1      25.683  36.967  13.004  1.00  0.00     0.184 C 
ATOM     17  C   UNL     1      25.884  35.767  13.939  1.00  0.00     0.178 C 
ATOM     18  O   UNL     1      26.969  35.964  14.779  1.00  0.00    -0.341 OA
ATOM     19  C   UNL     1      26.757  37.057  15.632  1.00  0.00     0.281 C 
ATOM     20  C   UNL     1      26.592  38.090  13.336  1.00  0.00     0.180 C 
ATOM     21  C   UNL     1      26.907  38.290  14.788  1.00  0.00     0.202 C 
BRANCH  17  22
ATOM     22  C   UNL     1      26.179  34.524  13.117  1.00  0.00     0.191 C 
BRANCH  22  23
ATOM     23  O   UNL     1      25.221  34.346  12.118  1.00  0.00    -0.394 OA
ATOM     24  H   UNL     1      24.430  34.938  12.248  1.00  0.00     0.210 HD
ENDBRANCH  22  23
ENDBRANCH  17  22
BRANCH  19  25
ATOM     25  O   UNL     1      27.756  36.991  16.585  1.00  0.00    -0.350 OA
BRANCH  25  26
ATOM     26  C   UNL     1      28.791  36.144  16.250  1.00  0.00     0.169 C 
BRANCH  26  27
ATOM     27  C   UNL     1      29.553  35.596  17.437  1.00  0.00     0.119 C 
BRANCH  27  28
ATOM     28  N   UNL     1      28.765  34.626  18.181  1.00  0.00    -0.092 NA
ATOM     29  N   UNL     1      28.527  34.765  19.385  1.00  0.00     0.001 N 
ATOM     30  N   UNL     1      28.511  35.000  20.589  1.00  0.00    -0.003 NA
ENDBRANCH  27  28
ENDBRANCH  26  27
ENDBRANCH  25  26
ENDBRANCH  19  25
BRANCH  20  31
ATOM     31  O   UNL     1      27.846  37.865  12.704  1.00  0.00    -0.387 OA
ATOM     32  H   UNL     1      28.409  38.688  12.790  1.00  0.00     0.211 HD
ENDBRANCH  20  31
BRANCH  21  33
ATOM     33  O   UNL     1      26.089  39.299  15.287  1.00  0.00    -0.385 OA
ATOM     34  H   UNL     1      26.412  39.578  16.176  1.00  0.00     0.211 HD
ENDBRANCH  21  33
ENDBRANCH  15  16
ENDBRANCH  10  15
BRANCH  12  35
ATOM     35  O   UNL     1      21.930  38.979  11.664  1.00  0.00    -0.385 OA
ATOM     36  H   UNL     1      21.704  38.852  12.625  1.00  0.00     0.211 HD
ENDBRANCH  12  35
BRANCH  13  37
ATOM     37  O   UNL     1      24.988  39.019   9.828  1.00  0.00    -0.387 OA
ATOM     38  H   UNL     1      25.438  39.797  10.212  1.00  0.00     0.211 HD
ENDBRANCH  13  37
BRANCH  14  39
ATOM     39  O   UNL     1      22.587  38.072   8.202  1.00  0.00    -0.387 OA
ATOM     40  H   UNL     1      22.068  37.359   7.756  1.00  0.00     0.211 HD
ENDBRANCH  14  39
ENDBRANCH   8   9
ENDBRANCH   7   8
ENDBRANCH   1   7
BRANCH   1  41
ATOM     41  C   UNL     1      26.358  38.566   6.497  1.00  0.00     0.364 C 
ATOM     42  O   UNL     1      25.667  39.588   6.831  1.00  0.00    -0.246 OA
BRANCH  41  43
ATOM     43  O   UNL     1      26.956  38.661   5.263  1.00  0.00    -0.477 OA
ATOM     44  H   UNL     1      26.508  38.920   4.417  1.00  0.00     0.296 HD
ENDBRANCH  41  43
ENDBRANCH   1  41
BRANCH   3  45
ATOM     45  O   UNL     1      29.632  35.778   6.590  1.00  0.00    -0.391 OA
ATOM     46  H   UNL     1      30.120  35.699   7.465  1.00  0.00     0.211 HD
ENDBRANCH   3  45
BRANCH   5  47
ATOM     47  C   UNL     1      28.645  39.116   9.793  1.00  0.00     0.176 C 
BRANCH  47  48
ATOM     48  O   UNL     1      29.572  38.376  10.420  1.00  0.00    -0.388 OA
ATOM     49  H   UNL     1      29.520  38.374  11.417  1.00  0.00     0.211 HD
ENDBRANCH  47  48
BRANCH  47  50
ATOM     50  C   UNL     1      28.548  40.544  10.025  1.00  0.00     0.165 C 
BRANCH  50  51
ATOM     51  O   UNL     1      29.756  41.090   9.327  1.00  0.00    -0.388 OA
ATOM     52  H   UNL     1      30.258  41.612   9.972  1.00  0.00     0.211 HD
ENDBRANCH  50  51
BRANCH  50  53
ATOM     53  C   UNL     1      28.496  41.215  11.308  1.00  0.00     0.154 C 
BRANCH  53  54
ATOM     54  N   UNL     1      29.276  40.992  12.435  1.00  0.00    -0.319 N 
ATOM     55  C   UNL     1      29.075  41.132  13.824  1.00  0.00     0.407 C 
ATOM     56  H   UNL     1      30.300  40.618  12.186  1.00  0.00     0.167 HD
ATOM     57  O   UNL     1      27.996  41.550  14.280  1.00  0.00    -0.225 OA
BRANCH  55  58
ATOM     58  O   UNL     1      30.057  40.806  14.725  1.00  0.00    -0.443 OA
BRANCH  58  59
ATOM     59  C   UNL     1      30.349  39.617  15.306  1.00  0.00     0.294 C 
BRANCH  59  60
ATOM     60  C   UNL     1      30.888  38.598  14.376  1.00  0.00     0.120 A 
ATOM     61  C   UNL     1      31.606  37.447  14.729  1.00  0.00     0.138 A 
ATOM     62  N   UNL     1      30.880  38.562  13.015  1.00  0.00    -0.132 NA
ATOM     63  N   UNL     1      31.993  36.786  13.633  1.00  0.00    -0.243 N 
ATOM     64  N   UNL     1      31.533  37.494  12.616  1.00  0.00    -0.067 NA
BRANCH  63  65
ATOM     65  C   UNL     1      32.751  35.556  13.514  1.00  0.00     0.246 C 
BRANCH  65  66
ATOM     66  C   UNL     1      32.181  34.571  14.512  1.00  0.00     0.248 C 
ATOM     67  O   UNL     1      32.683  34.420  15.653  1.00  0.00    -0.272 OA
ATOM     68  N   UNL     1      31.050  33.790  14.169  1.00  0.00    -0.293 N 
ATOM     69  H   UNL     1      30.672  33.957  13.203  1.00  0.00     0.173 HD
BRANCH  68  70
ATOM     70  C   UNL     1      30.405  32.846  14.996  1.00  0.00     0.229 A 
ATOM     71  N   UNL     1      31.041  31.932  15.751  1.00  0.00    -0.221 NA
ATOM     72  N   UNL     1      29.057  32.853  15.030  1.00  0.00    -0.221 NA
ATOM     73  C   UNL     1      30.377  31.029  16.530  1.00  0.00     0.117 A 
ATOM     74  C   UNL     1      28.359  31.995  15.775  1.00  0.00     0.117 A 
ATOM     75  C   UNL     1      29.000  31.061  16.543  1.00  0.00     0.040 A 
ENDBRANCH  68  70
ENDBRANCH  65  66
ENDBRANCH  63  65
ENDBRANCH  59  60
ENDBRANCH  58  59
ENDBRANCH  55  58
ENDBRANCH  53  54
ENDBRANCH  50  53
ENDBRANCH  47  50
ENDBRANCH   5  47
BRANCH   4  76
ATOM     76  N   UNL     1      30.264  38.655   6.949  1.00  0.00    -0.348 N 
ATOM     77  C   UNL     1      31.516  39.034   7.564  1.00  0.00     0.217 C 
ATOM     78  H   UNL     1      30.115  38.968   5.953  1.00  0.00     0.163 HD
ATOM     79  C   UNL     1      32.485  39.816   6.768  1.00  0.00     0.114 C 
ATOM     80  O   UNL     1      31.759  38.703   8.743  1.00  0.00    -0.275 OA
ENDBRANCH   4  76
TORSDOF 32
BEGIN_RES LYS A 131
REMARK  4 active torsions:
REMARK  status: ('A' for Active; 'I' for Inactive)
REMARK    1  A    between atoms: CA   and  CB  
REMARK    2  A    between atoms: CB   and  CG  
REMARK    3  A    between atoms: CG   and  CD  
REMARK    4  A    between atoms: CD   and  CE  
ROOT
ATOM      1  CA  LYS A 131      29.867  25.555  16.977  1.00 20.52     0.186 C 
ENDROOT
BRANCH   1   2
ATOM      2  CB  LYS A 131      28.345  25.722  17.026  1.00 20.94     0.034 C 
BRANCH   2   3
ATOM      3  CG  LYS A 131      27.602  24.399  16.919  1.00 22.96     0.005 C 
BRANCH   3   4
ATOM      4  CD  LYS A 131      26.173  24.514  17.373  1.00 24.33     0.041 C 
BRANCH   4   5
ATOM      5  CE  LYS A 131      25.846  23.364  18.320  1.00 26.91     0.338 C 
ATOM      6  NZ  LYS A 131      24.988  22.362  17.643  1.00 27.40     0.618 N 
ENDBRANCH   4   5
ENDBRANCH   3   4
ENDBRANCH   2   3
ENDBRANCH   1   2
END_RES LYS A 131
BEGIN_RES LYS A 135
REMARK  4 active torsions:
REMARK  status: ('A' for Active; 'I' for Inactive)
REMARK    5  A    between atoms: CA   and  CB  
REMARK    6  A    between atoms: CB   and  CG  
REMARK    7  A    between atoms: CG   and  CD  
REMARK    8  A    between atoms: CD   and  CE  
ROOT
ATOM      7  CA  LYS A 135      33.193  34.663   9.290  1.00 25.02     0.186 C 
ENDROOT
BRANCH   7   8
ATOM      8  CB  LYS A 135      32.060  35.360  10.034  1.00 26.63     0.034 C 
BRANCH   8   9
ATOM      9  CG  LYS A 135      30.688  34.947   9.567  1.00 29.45     0.005 C 
BRANCH   9  10
ATOM     10  CD  LYS A 135      29.720  34.878  10.738  1.00 32.00     0.041 C 
BRANCH  10  11
ATOM     11  CE  LYS A 135      28.292  35.058  10.259  1.00 34.25     0.338 C 
ATOM     12  NZ  LYS A 135      27.733  33.776   9.747  1.00 35.99     0.618 N 
ENDBRANCH  10  11
ENDBRANCH   9  10
ENDBRANCH   8   9
ENDBRANCH   7   8
END_RES LYS A 135
