REMARK VINA RESULT:    -5.246      3.078      7.932
REMARK INTER + INTRA:         -21.020
REMARK INTER:                 -10.879
REMARK INTRA:                 -10.141
REMARK UNBOUND:                -8.107
REMARK SMILES CC(=O)N[C@@H]1[C@@H](O)C[C@](OC[C@H]2O[C@@H](O[C@H]3[C@H](O)[C@@H](O)[C@H](OCCN=[N+]=[N-])O[C@@H]3CO)[C@H](O)[C@@H](O)[C@H]2O)(C(=O)O)O[C@H]1C(O)[C@H](O)CNC(=O)OCc1cn(C2CCN(C)CC2)nn1
REMARK SMILES IDX 9 1 8 2 6 3 5 4 42 5 41 6 10 7 11 8 12 9 14 10 13 11 32 12
REMARK SMILES IDX 34 13 36 14 15 15 16 16 29 17 28 18 21 19 17 20 19 21 30 22
REMARK SMILES IDX 31 23 22 25 23 26 24 27 25 28 26 29 27 30 18 31 20 33 33 35
REMARK SMILES IDX 35 37 37 39 38 41 39 42 40 43 7 45 43 47 44 48 45 50 46 51
REMARK SMILES IDX 47 53 48 54 49 55 50 57 51 58 52 59 53 60 54 61 64 62 55 63
REMARK SMILES IDX 63 64 56 65 57 66 62 67 58 68 61 69 59 70 60 71 4 72 2 73
REMARK SMILES IDX 1 75 3 76
REMARK H PARENT 31 24 18 32 20 34 33 36 35 38 37 40 40 44 7 46 44 49 46 52
REMARK H PARENT 48 56 4 74
REMARK Flexibility Score: inf
ROOT
ATOM      1  C   UNL     1      26.572  38.358   7.745  1.00  0.00     0.272 C 
ATOM      2  C   UNL     1      26.790  37.928   6.306  1.00  0.00     0.113 C 
ATOM      3  C   UNL     1      27.702  38.760   5.506  1.00  0.00     0.145 C 
ATOM      4  C   UNL     1      28.916  39.270   6.250  1.00  0.00     0.142 C 
ATOM      5  C   UNL     1      28.743  39.286   7.720  1.00  0.00     0.178 C 
ATOM      6  O   UNL     1      27.882  38.470   8.315  1.00  0.00    -0.332 OA
ENDROOT
BRANCH   1   7
ATOM      7  O   UNL     1      26.053  37.322   8.422  1.00  0.00    -0.338 OA
BRANCH   7   8
ATOM      8  C   UNL     1      25.183  36.417   8.130  1.00  0.00     0.199 C 
BRANCH   8   9
ATOM      9  C   UNL     1      23.906  36.198   8.881  1.00  0.00     0.179 C 
ATOM     10  C   UNL     1      23.861  37.729  10.713  1.00  0.00     0.282 C 
ATOM     11  O   UNL     1      24.161  36.519  10.186  1.00  0.00    -0.341 OA
ATOM     12  C   UNL     1      23.302  38.694   9.760  1.00  0.00     0.202 C 
ATOM     13  C   UNL     1      22.121  37.976   9.085  1.00  0.00     0.179 C 
ATOM     14  C   UNL     1      22.720  36.877   8.283  1.00  0.00     0.177 C 
BRANCH  10  15
ATOM     15  O   UNL     1      25.004  38.089  11.415  1.00  0.00    -0.341 OA
BRANCH  15  16
ATOM     16  C   UNL     1      25.571  37.168  12.195  1.00  0.00     0.184 C 
ATOM     17  C   UNL     1      25.482  37.541  13.634  1.00  0.00     0.178 C 
ATOM     18  O   UNL     1      25.691  36.392  14.406  1.00  0.00    -0.341 OA
ATOM     19  C   UNL     1      26.993  35.969  14.270  1.00  0.00     0.281 C 
ATOM     20  C   UNL     1      27.078  36.989  11.955  1.00  0.00     0.180 C 
ATOM     21  C   UNL     1      27.468  35.817  12.850  1.00  0.00     0.202 C 
BRANCH  17  22
ATOM     22  C   UNL     1      24.247  38.275  14.028  1.00  0.00     0.191 C 
BRANCH  22  23
ATOM     23  O   UNL     1      24.412  39.621  13.730  1.00  0.00    -0.394 OA
ATOM     24  H   UNL     1      23.905  39.888  12.921  1.00  0.00     0.210 HD
ENDBRANCH  22  23
ENDBRANCH  17  22
BRANCH  19  25
ATOM     25  O   UNL     1      27.053  34.688  14.835  1.00  0.00    -0.350 OA
BRANCH  25  26
ATOM     26  C   UNL     1      26.178  33.788  14.282  1.00  0.00     0.169 C 
BRANCH  26  27
ATOM     27  C   UNL     1      25.514  32.883  15.300  1.00  0.00     0.119 C 
BRANCH  27  28
ATOM     28  N   UNL     1      24.095  32.750  15.030  1.00  0.00    -0.092 NA
ATOM     29  N   UNL     1      23.689  32.036  14.115  1.00  0.00     0.001 N 
ATOM     30  N   UNL     1      23.187  31.764  13.022  1.00  0.00    -0.003 NA
ENDBRANCH  27  28
ENDBRANCH  26  27
ENDBRANCH  25  26
ENDBRANCH  19  25
BRANCH  20  31
ATOM     31  O   UNL     1      27.381  36.621  10.672  1.00  0.00    -0.387 OA
ATOM     32  H   UNL     1      26.736  35.944  10.372  1.00  0.00     0.211 HD
ENDBRANCH  20  31
BRANCH  21  33
ATOM     33  O   UNL     1      28.830  35.654  12.817  1.00  0.00    -0.385 OA
ATOM     34  H   UNL     1      29.262  36.182  12.126  1.00  0.00     0.211 HD
ENDBRANCH  21  33
ENDBRANCH  15  16
ENDBRANCH  10  15
BRANCH  12  35
ATOM     35  O   UNL     1      22.705  39.814  10.335  1.00  0.00    -0.385 OA
ATOM     36  H   UNL     1      22.323  39.584  11.218  1.00  0.00     0.211 HD
ENDBRANCH  12  35
BRANCH  13  37
ATOM     37  O   UNL     1      21.346  38.825   8.336  1.00  0.00    -0.387 OA
ATOM     38  H   UNL     1      20.736  38.271   7.785  1.00  0.00     0.211 HD
ENDBRANCH  13  37
BRANCH  14  39
ATOM     39  O   UNL     1      23.073  37.385   7.035  1.00  0.00    -0.387 OA
ATOM     40  H   UNL     1      23.694  38.148   7.088  1.00  0.00     0.211 HD
ENDBRANCH  14  39
ENDBRANCH   8   9
ENDBRANCH   7   8
ENDBRANCH   1   7
BRANCH   1  41
ATOM     41  C   UNL     1      25.951  39.674   7.758  1.00  0.00     0.364 C 
ATOM     42  O   UNL     1      24.954  39.859   6.949  1.00  0.00    -0.246 OA
BRANCH  41  43
ATOM     43  O   UNL     1      26.240  40.794   8.492  1.00  0.00    -0.477 OA
ATOM     44  H   UNL     1      25.538  41.404   8.911  1.00  0.00     0.296 HD
ENDBRANCH  41  43
ENDBRANCH   1  41
BRANCH   3  45
ATOM     45  O   UNL     1      28.149  38.000   4.384  1.00  0.00    -0.391 OA
ATOM     46  H   UNL     1      28.523  37.140   4.670  1.00  0.00     0.211 HD
ENDBRANCH   3  45
BRANCH   5  47
ATOM     47  C   UNL     1      30.110  39.102   8.436  1.00  0.00     0.176 C 
BRANCH  47  48
ATOM     48  O   UNL     1      30.874  38.185   7.726  1.00  0.00    -0.388 OA
ATOM     49  H   UNL     1      31.693  38.573   7.354  1.00  0.00     0.211 HD
ENDBRANCH  47  48
BRANCH  47  50
ATOM     50  C   UNL     1      29.916  38.693   9.824  1.00  0.00     0.165 C 
BRANCH  50  51
ATOM     51  O   UNL     1      29.200  39.779  10.463  1.00  0.00    -0.388 OA
ATOM     52  H   UNL     1      29.200  39.630  11.439  1.00  0.00     0.211 HD
ENDBRANCH  50  51
BRANCH  50  53
ATOM     53  C   UNL     1      31.060  38.369  10.685  1.00  0.00     0.154 C 
BRANCH  53  54
ATOM     54  N   UNL     1      30.929  37.973  12.023  1.00  0.00    -0.319 N 
ATOM     55  C   UNL     1      30.826  38.810  13.162  1.00  0.00     0.407 C 
ATOM     56  H   UNL     1      30.906  36.915  12.221  1.00  0.00     0.167 HD
ATOM     57  O   UNL     1      30.804  40.051  13.057  1.00  0.00    -0.225 OA
BRANCH  55  58
ATOM     58  O   UNL     1      30.749  38.203  14.435  1.00  0.00    -0.443 OA
BRANCH  58  59
ATOM     59  C   UNL     1      31.873  37.520  14.929  1.00  0.00     0.294 C 
BRANCH  59  60
ATOM     60  C   UNL     1      31.650  36.062  14.770  1.00  0.00     0.120 A 
ATOM     61  C   UNL     1      31.541  35.128  15.815  1.00  0.00     0.138 A 
ATOM     62  N   UNL     1      31.498  35.321  13.663  1.00  0.00    -0.132 NA
ATOM     63  N   UNL     1      31.333  33.902  15.307  1.00  0.00    -0.249 N 
ATOM     64  N   UNL     1      31.311  34.047  14.008  1.00  0.00    -0.067 NA
BRANCH  63  65
ATOM     65  C   UNL     1      31.167  32.679  16.057  1.00  0.00     0.111 C 
ATOM     66  C   UNL     1      30.869  33.055  17.481  1.00  0.00     0.043 C 
ATOM     67  C   UNL     1      30.047  31.829  15.523  1.00  0.00     0.043 C 
ATOM     68  C   UNL     1      29.392  32.874  17.746  1.00  0.00     0.086 C 
ATOM     69  C   UNL     1      29.543  30.820  16.519  1.00  0.00     0.086 C 
ATOM     70  N   UNL     1      29.118  31.438  17.758  1.00  0.00    -0.306 NA
ATOM     71  C   UNL     1      29.866  30.857  18.859  1.00  0.00     0.105 C 
ENDBRANCH  63  65
ENDBRANCH  59  60
ENDBRANCH  58  59
ENDBRANCH  55  58
ENDBRANCH  53  54
ENDBRANCH  50  53
ENDBRANCH  47  50
ENDBRANCH   5  47
BRANCH   4  72
ATOM     72  N   UNL     1      29.344  40.563   5.752  1.00  0.00    -0.348 N 
ATOM     73  C   UNL     1      30.655  40.710   5.246  1.00  0.00     0.217 C 
ATOM     74  H   UNL     1      28.711  41.401   5.753  1.00  0.00     0.163 HD
ATOM     75  C   UNL     1      31.147  42.025   4.722  1.00  0.00     0.114 C 
ATOM     76  O   UNL     1      31.444  39.712   5.230  1.00  0.00    -0.275 OA
ENDBRANCH   4  72
TORSDOF 30
BEGIN_RES LYS A 131
REMARK  4 active torsions:
REMARK  status: ('A' for Active; 'I' for Inactive)
REMARK    1  A    between atoms: CA   and  CB  
REMARK    2  A    between atoms: CB   and  CG  
REMARK    3  A    between atoms: CG   and  CD  
REMARK    4  A    between atoms: CD   and  CE  
ROOT
ATOM      1  CA  LYS A 131      29.867  25.555  16.977  1.00 20.52     0.186 C 
ENDROOT
BRANCH   1   2
ATOM      2  CB  LYS A 131      28.345  25.722  17.026  1.00 20.94     0.034 C 
BRANCH   2   3
ATOM      3  CG  LYS A 131      27.601  24.403  16.881  1.00 22.96     0.005 C 
BRANCH   3   4
ATOM      4  CD  LYS A 131      26.261  24.431  17.563  1.00 24.33     0.041 C 
BRANCH   4   5
ATOM      5  CE  LYS A 131      26.033  25.806  18.181  1.00 26.91     0.338 C 
ATOM      6  NZ  LYS A 131      24.759  26.388  17.695  1.00 27.40     0.618 N 
ENDBRANCH   4   5
ENDBRANCH   3   4
ENDBRANCH   2   3
ENDBRANCH   1   2
END_RES LYS A 131
BEGIN_RES LYS A 135
REMARK  4 active torsions:
REMARK  status: ('A' for Active; 'I' for Inactive)
REMARK    5  A    between atoms: CA   and  CB  
REMARK    6  A    between atoms: CB   and  CG  
REMARK    7  A    between atoms: CG   and  CD  
REMARK    8  A    between atoms: CD   and  CE  
ROOT
ATOM      7  CA  LYS A 135      33.193  34.663   9.290  1.00 25.02     0.186 C 
ENDROOT
BRANCH   7   8
ATOM      8  CB  LYS A 135      32.060  35.360  10.034  1.00 26.63     0.034 C 
BRANCH   8   9
ATOM      9  CG  LYS A 135      30.713  34.720   9.817  1.00 29.45     0.005 C 
BRANCH   9  10
ATOM     10  CD  LYS A 135      30.453  34.506   8.334  1.00 32.00     0.041 C 
BRANCH  10  11
ATOM     11  CE  LYS A 135      29.073  35.011   7.957  1.00 34.25     0.338 C 
ATOM     12  NZ  LYS A 135      29.035  35.458   6.537  1.00 35.99     0.618 N 
ENDBRANCH  10  11
ENDBRANCH   9  10
ENDBRANCH   8   9
ENDBRANCH   7   8
END_RES LYS A 135
