REMARK VINA RESULT:    -5.283      2.483      7.737
REMARK INTER + INTRA:         -22.431
REMARK INTER:                 -12.128
REMARK INTRA:                 -10.303
REMARK UNBOUND:                -9.428
REMARK SMILES CC(=O)N[C@@H]1[C@@H](O)C[C@](OC[C@H]2O[C@@H](O[C@H]3[C@H](O)[C@@H](O)[C@H](OCCN=[N+]=[N-])O[C@@H]3CO)[C@H](O)[C@@H](O)[C@H]2O)(C(=O)O)O[C@H]1C(O)[C@H](O)CNC(=O)OCc1cn(-c2ccc(C)cc2)nn1
REMARK SMILES IDX 9 1 8 2 6 3 5 4 42 5 41 6 10 7 11 8 12 9 14 10 13 11 32 12
REMARK SMILES IDX 34 13 36 14 15 15 16 16 29 17 28 18 21 19 17 20 19 21 30 22
REMARK SMILES IDX 31 23 22 25 23 26 24 27 25 28 26 29 27 30 18 31 20 33 33 35
REMARK SMILES IDX 35 37 37 39 38 41 39 42 40 43 7 45 43 47 44 48 45 50 46 51
REMARK SMILES IDX 47 53 48 54 49 55 50 57 51 58 52 59 53 60 54 61 64 62 55 63
REMARK SMILES IDX 63 64 56 65 57 66 62 67 58 68 61 69 59 70 60 71 4 72 2 73
REMARK SMILES IDX 1 75 3 76
REMARK H PARENT 31 24 18 32 20 34 33 36 35 38 37 40 40 44 7 46 44 49 46 52
REMARK H PARENT 48 56 4 74
REMARK Flexibility Score: inf
ROOT
ATOM      1  C   UNL     1      23.990  36.640   9.953  1.00  0.00     0.272 C 
ATOM      2  C   UNL     1      23.356  35.909   8.775  1.00  0.00     0.113 C 
ATOM      3  C   UNL     1      21.985  36.395   8.494  1.00  0.00     0.145 C 
ATOM      4  C   UNL     1      21.743  37.834   8.782  1.00  0.00     0.142 C 
ATOM      5  C   UNL     1      22.968  38.654   9.174  1.00  0.00     0.178 C 
ATOM      6  O   UNL     1      23.820  37.941   9.948  1.00  0.00    -0.332 OA
ENDROOT
BRANCH   1   7
ATOM      7  O   UNL     1      25.387  36.389   9.790  1.00  0.00    -0.338 OA
BRANCH   7   8
ATOM      8  C   UNL     1      25.546  35.479   8.743  1.00  0.00     0.199 C 
BRANCH   8   9
ATOM      9  C   UNL     1      26.959  35.078   8.548  1.00  0.00     0.179 C 
ATOM     10  C   UNL     1      29.061  35.836   8.038  1.00  0.00     0.282 C 
ATOM     11  O   UNL     1      27.784  36.201   8.451  1.00  0.00    -0.341 OA
ATOM     12  C   UNL     1      29.758  35.093   9.114  1.00  0.00     0.202 C 
ATOM     13  C   UNL     1      28.781  34.648  10.167  1.00  0.00     0.179 C 
ATOM     14  C   UNL     1      27.477  34.133   9.597  1.00  0.00     0.177 C 
BRANCH  10  15
ATOM     15  O   UNL     1      29.785  36.983   7.721  1.00  0.00    -0.341 OA
BRANCH  15  16
ATOM     16  C   UNL     1      28.964  37.974   7.182  1.00  0.00     0.184 C 
ATOM     17  C   UNL     1      29.134  38.186   5.704  1.00  0.00     0.178 C 
ATOM     18  O   UNL     1      29.602  39.480   5.450  1.00  0.00    -0.341 OA
ATOM     19  C   UNL     1      30.868  39.619   5.989  1.00  0.00     0.281 C 
ATOM     20  C   UNL     1      29.357  39.257   7.883  1.00  0.00     0.180 C 
ATOM     21  C   UNL     1      30.824  39.501   7.499  1.00  0.00     0.202 C 
BRANCH  17  22
ATOM     22  C   UNL     1      27.768  38.131   5.000  1.00  0.00     0.191 C 
BRANCH  22  23
ATOM     23  O   UNL     1      26.993  37.098   5.520  1.00  0.00    -0.394 OA
ATOM     24  H   UNL     1      27.568  36.276   5.512  1.00  0.00     0.210 HD
ENDBRANCH  22  23
ENDBRANCH  17  22
BRANCH  19  25
ATOM     25  O   UNL     1      31.477  40.810   5.624  1.00  0.00    -0.350 OA
BRANCH  25  26
ATOM     26  C   UNL     1      30.722  41.579   4.775  1.00  0.00     0.169 C 
BRANCH  26  27
ATOM     27  C   UNL     1      30.225  42.873   5.354  1.00  0.00     0.119 C 
BRANCH  27  28
ATOM     28  N   UNL     1      28.823  42.810   5.691  1.00  0.00    -0.092 NA
ATOM     29  N   UNL     1      28.013  42.421   4.868  1.00  0.00     0.001 N 
ATOM     30  N   UNL     1      27.194  41.943   4.081  1.00  0.00    -0.003 NA
ENDBRANCH  27  28
ENDBRANCH  26  27
ENDBRANCH  25  26
ENDBRANCH  19  25
BRANCH  20  31
ATOM     31  O   UNL     1      28.582  40.342   7.499  1.00  0.00    -0.387 OA
ATOM     32  H   UNL     1      27.966  40.537   8.246  1.00  0.00     0.211 HD
ENDBRANCH  20  31
BRANCH  21  33
ATOM     33  O   UNL     1      31.485  38.302   7.834  1.00  0.00    -0.385 OA
ATOM     34  H   UNL     1      31.357  37.599   7.157  1.00  0.00     0.211 HD
ENDBRANCH  21  33
ENDBRANCH  15  16
ENDBRANCH  10  15
BRANCH  12  35
ATOM     35  O   UNL     1      30.484  33.995   8.616  1.00  0.00    -0.385 OA
ATOM     36  H   UNL     1      31.386  34.068   9.070  1.00  0.00     0.211 HD
ENDBRANCH  12  35
BRANCH  13  37
ATOM     37  O   UNL     1      28.633  35.644  11.101  1.00  0.00    -0.387 OA
ATOM     38  H   UNL     1      27.672  35.876  11.307  1.00  0.00     0.211 HD
ENDBRANCH  13  37
BRANCH  14  39
ATOM     39  O   UNL     1      26.541  34.061  10.611  1.00  0.00    -0.387 OA
ATOM     40  H   UNL     1      25.660  34.423  10.386  1.00  0.00     0.211 HD
ENDBRANCH  14  39
ENDBRANCH   8   9
ENDBRANCH   7   8
ENDBRANCH   1   7
BRANCH   1  41
ATOM     41  C   UNL     1      23.491  35.942  11.154  1.00  0.00     0.364 C 
ATOM     42  O   UNL     1      22.312  36.031  11.568  1.00  0.00    -0.246 OA
BRANCH  41  43
ATOM     43  O   UNL     1      24.400  35.131  11.859  1.00  0.00    -0.477 OA
ATOM     44  H   UNL     1      24.063  34.250  12.251  1.00  0.00     0.296 HD
ENDBRANCH  41  43
ENDBRANCH   1  41
BRANCH   3  45
ATOM     45  O   UNL     1      21.582  36.025   7.191  1.00  0.00    -0.391 OA
ATOM     46  H   UNL     1      22.433  36.044   6.644  1.00  0.00     0.211 HD
ENDBRANCH   3  45
BRANCH   5  47
ATOM     47  C   UNL     1      23.606  39.208   7.916  1.00  0.00     0.176 C 
BRANCH  47  48
ATOM     48  O   UNL     1      22.762  40.005   7.157  1.00  0.00    -0.388 OA
ATOM     49  H   UNL     1      22.761  39.605   6.247  1.00  0.00     0.211 HD
ENDBRANCH  47  48
BRANCH  47  50
ATOM     50  C   UNL     1      24.978  39.689   7.944  1.00  0.00     0.165 C 
BRANCH  50  51
ATOM     51  O   UNL     1      25.984  38.701   7.949  1.00  0.00    -0.388 OA
ATOM     52  H   UNL     1      25.721  37.945   7.360  1.00  0.00     0.211 HD
ENDBRANCH  50  51
BRANCH  50  53
ATOM     53  C   UNL     1      25.416  40.767   8.871  1.00  0.00     0.154 C 
BRANCH  53  54
ATOM     54  N   UNL     1      25.928  40.302  10.134  1.00  0.00    -0.319 N 
ATOM     55  C   UNL     1      25.301  40.665  11.362  1.00  0.00     0.407 C 
ATOM     56  H   UNL     1      26.773  39.688  10.165  1.00  0.00     0.167 HD
ATOM     57  O   UNL     1      24.277  41.390  11.330  1.00  0.00    -0.225 OA
BRANCH  55  58
ATOM     58  O   UNL     1      25.827  40.224  12.557  1.00  0.00    -0.443 OA
BRANCH  58  59
ATOM     59  C   UNL     1      27.137  39.796  12.712  1.00  0.00     0.294 C 
BRANCH  59  60
ATOM     60  C   UNL     1      27.204  38.374  13.054  1.00  0.00     0.121 A 
ATOM     61  C   UNL     1      28.175  37.758  13.867  1.00  0.00     0.144 A 
ATOM     62  N   UNL     1      26.399  37.386  12.687  1.00  0.00    -0.131 NA
ATOM     63  N   UNL     1      27.897  36.457  13.937  1.00  0.00    -0.220 N 
ATOM     64  N   UNL     1      26.816  36.251  13.214  1.00  0.00    -0.062 NA
BRANCH  63  65
ATOM     65  C   UNL     1      28.681  35.506  14.680  1.00  0.00     0.066 A 
ATOM     66  C   UNL     1      29.447  35.927  15.744  1.00  0.00     0.029 A 
ATOM     67  C   UNL     1      28.685  34.162  14.372  1.00  0.00     0.029 A 
ATOM     68  C   UNL     1      30.201  35.010  16.482  1.00  0.00     0.005 A 
ATOM     69  C   UNL     1      29.439  33.242  15.110  1.00  0.00     0.005 A 
ATOM     70  C   UNL     1      30.202  33.668  16.172  1.00  0.00    -0.051 A 
ATOM     71  C   UNL     1      31.001  32.682  16.970  1.00  0.00     0.044 C 
ENDBRANCH  63  65
ENDBRANCH  59  60
ENDBRANCH  58  59
ENDBRANCH  55  58
ENDBRANCH  53  54
ENDBRANCH  50  53
ENDBRANCH  47  50
ENDBRANCH   5  47
BRANCH   4  72
ATOM     72  N   UNL     1      20.624  38.048   9.678  1.00  0.00    -0.348 N 
ATOM     73  C   UNL     1      19.650  39.077   9.500  1.00  0.00     0.217 C 
ATOM     74  H   UNL     1      20.488  37.445  10.514  1.00  0.00     0.163 HD
ATOM     75  C   UNL     1      18.519  39.260  10.462  1.00  0.00     0.114 C 
ATOM     76  O   UNL     1      19.814  39.803   8.489  1.00  0.00    -0.275 OA
ENDBRANCH   4  72
TORSDOF 30
BEGIN_RES LYS A 131
REMARK  4 active torsions:
REMARK  status: ('A' for Active; 'I' for Inactive)
REMARK    1  A    between atoms: CA   and  CB  
REMARK    2  A    between atoms: CB   and  CG  
REMARK    3  A    between atoms: CG   and  CD  
REMARK    4  A    between atoms: CD   and  CE  
ROOT
ATOM      1  CA  LYS A 131      29.867  25.555  16.977  1.00 20.52     0.186 C 
ENDROOT
BRANCH   1   2
ATOM      2  CB  LYS A 131      28.345  25.722  17.026  1.00 20.94     0.034 C 
BRANCH   2   3
ATOM      3  CG  LYS A 131      27.601  24.402  16.895  1.00 22.96     0.005 C 
BRANCH   3   4
ATOM      4  CD  LYS A 131      26.500  24.269  17.910  1.00 24.33     0.041 C 
BRANCH   4   5
ATOM      5  CE  LYS A 131      25.149  24.429  17.219  1.00 26.91     0.338 C 
ATOM      6  NZ  LYS A 131      24.189  25.119  18.113  1.00 27.40     0.618 N 
ENDBRANCH   4   5
ENDBRANCH   3   4
ENDBRANCH   2   3
ENDBRANCH   1   2
END_RES LYS A 131
BEGIN_RES LYS A 135
REMARK  4 active torsions:
REMARK  status: ('A' for Active; 'I' for Inactive)
REMARK    5  A    between atoms: CA   and  CB  
REMARK    6  A    between atoms: CB   and  CG  
REMARK    7  A    between atoms: CG   and  CD  
REMARK    8  A    between atoms: CD   and  CE  
ROOT
ATOM      7  CA  LYS A 135      33.193  34.663   9.290  1.00 25.02     0.186 C 
ENDROOT
BRANCH   7   8
ATOM      8  CB  LYS A 135      32.060  35.360  10.034  1.00 26.63     0.034 C 
BRANCH   8   9
ATOM      9  CG  LYS A 135      32.531  36.442  10.971  1.00 29.45     0.005 C 
BRANCH   9  10
ATOM     10  CD  LYS A 135      31.711  36.437  12.252  1.00 32.00     0.041 C 
BRANCH  10  11
ATOM     11  CE  LYS A 135      31.939  35.151  13.024  1.00 34.25     0.338 C 
ATOM     12  NZ  LYS A 135      33.321  35.095  13.577  1.00 35.99     0.618 N 
ENDBRANCH  10  11
ENDBRANCH   9  10
ENDBRANCH   8   9
ENDBRANCH   7   8
END_RES LYS A 135
