REMARK VINA RESULT:    -3.589      2.564      8.665
REMARK INTER + INTRA:         -21.508
REMARK INTER:                  -9.439
REMARK INTRA:                 -12.069
REMARK UNBOUND:               -12.359
REMARK SMILES CC(=O)N[C@@H]1[C@@H](O)C[C@](OC[C@H]2O[C@@H](O[C@H]3[C@H](O)[C@@H](O)[C@H](OCCN=[N+]=[N-])O[C@@H]3CO)[C@H](O)[C@@H](O)[C@H]2O)(C(=O)O)O[C@H]1C(O)[C@H](O)CNC(=O)OCc1cn(CC(=O)O)nn1
REMARK SMILES IDX 9 1 8 2 6 3 5 4 42 5 41 6 10 7 11 8 12 9 14 10 13 11 32 12
REMARK SMILES IDX 34 13 36 14 15 15 16 16 29 17 28 18 21 19 17 20 19 21 30 22
REMARK SMILES IDX 31 23 22 25 23 26 24 27 25 28 26 29 27 30 18 31 20 33 33 35
REMARK SMILES IDX 35 37 37 39 38 41 39 42 40 43 7 45 43 47 44 48 45 50 46 51
REMARK SMILES IDX 47 53 48 54 49 55 50 57 51 58 52 59 53 60 54 61 61 62 55 63
REMARK SMILES IDX 60 64 56 65 57 66 58 67 59 68 4 70 2 71 1 73 3 74
REMARK H PARENT 31 24 18 32 20 34 33 36 35 38 37 40 40 44 7 46 44 49 46 52
REMARK H PARENT 48 56 59 69 4 72
REMARK Flexibility Score: inf
ROOT
ATOM      1  C   UNL     1      22.868  37.898   9.985  1.00  0.00     0.272 C 
ATOM      2  C   UNL     1      23.246  36.493   9.612  1.00  0.00     0.113 C 
ATOM      3  C   UNL     1      24.471  36.327   8.814  1.00  0.00     0.145 C 
ATOM      4  C   UNL     1      24.995  37.578   8.120  1.00  0.00     0.142 C 
ATOM      5  C   UNL     1      23.826  38.502   7.980  1.00  0.00     0.178 C 
ATOM      6  O   UNL     1      23.556  38.868   9.326  1.00  0.00    -0.332 OA
ENDROOT
BRANCH   1   7
ATOM      7  O   UNL     1      23.001  38.122  11.373  1.00  0.00    -0.338 OA
BRANCH   7   8
ATOM      8  C   UNL     1      23.735  39.218  11.708  1.00  0.00     0.199 C 
BRANCH   8   9
ATOM      9  C   UNL     1      25.053  38.771  12.362  1.00  0.00     0.179 C 
ATOM     10  C   UNL     1      27.106  38.252  11.449  1.00  0.00     0.282 C 
ATOM     11  O   UNL     1      25.738  37.860  11.600  1.00  0.00    -0.341 OA
ATOM     12  C   UNL     1      27.051  39.499  10.646  1.00  0.00     0.202 C 
ATOM     13  C   UNL     1      26.612  40.607  11.619  1.00  0.00     0.179 C 
ATOM     14  C   UNL     1      25.865  39.985  12.767  1.00  0.00     0.177 C 
BRANCH  10  15
ATOM     15  O   UNL     1      27.782  37.191  10.923  1.00  0.00    -0.341 OA
BRANCH  15  16
ATOM     16  C   UNL     1      28.720  36.630  11.791  1.00  0.00     0.184 C 
ATOM     17  C   UNL     1      28.025  36.282  13.075  1.00  0.00     0.178 C 
ATOM     18  O   UNL     1      28.881  36.356  14.140  1.00  0.00    -0.341 OA
ATOM     19  C   UNL     1      30.175  35.953  13.929  1.00  0.00     0.281 C 
ATOM     20  C   UNL     1      29.833  37.608  12.102  1.00  0.00     0.180 C 
ATOM     21  C   UNL     1      30.878  36.835  12.911  1.00  0.00     0.202 C 
BRANCH  17  22
ATOM     22  C   UNL     1      27.461  34.877  12.973  1.00  0.00     0.191 C 
BRANCH  22  23
ATOM     23  O   UNL     1      26.298  34.983  12.205  1.00  0.00    -0.394 OA
ATOM     24  H   UNL     1      26.329  35.779  11.630  1.00  0.00     0.210 HD
ENDBRANCH  22  23
ENDBRANCH  17  22
BRANCH  19  25
ATOM     25  O   UNL     1      30.231  34.625  13.605  1.00  0.00    -0.350 OA
BRANCH  25  26
ATOM     26  C   UNL     1      30.975  33.859  14.466  1.00  0.00     0.169 C 
BRANCH  26  27
ATOM     27  C   UNL     1      31.370  34.551  15.744  1.00  0.00     0.119 C 
BRANCH  27  28
ATOM     28  N   UNL     1      31.576  33.584  16.825  1.00  0.00    -0.092 NA
ATOM     29  N   UNL     1      31.558  34.058  17.979  1.00  0.00     0.001 N 
ATOM     30  N   UNL     1      31.952  34.217  19.150  1.00  0.00    -0.003 NA
ENDBRANCH  27  28
ENDBRANCH  26  27
ENDBRANCH  25  26
ENDBRANCH  19  25
BRANCH  20  31
ATOM     31  O   UNL     1      30.465  38.095  10.985  1.00  0.00    -0.387 OA
ATOM     32  H   UNL     1      31.417  37.919  10.929  1.00  0.00     0.211 HD
ENDBRANCH  20  31
BRANCH  21  33
ATOM     33  O   UNL     1      31.744  37.693  13.561  1.00  0.00    -0.385 OA
ATOM     34  H   UNL     1      31.475  38.641  13.450  1.00  0.00     0.211 HD
ENDBRANCH  21  33
ENDBRANCH  15  16
ENDBRANCH  10  15
BRANCH  12  35
ATOM     35  O   UNL     1      28.165  39.837   9.934  1.00  0.00    -0.385 OA
ATOM     36  H   UNL     1      28.764  39.077   9.854  1.00  0.00     0.211 HD
ENDBRANCH  12  35
BRANCH  13  37
ATOM     37  O   UNL     1      25.795  41.469  10.904  1.00  0.00    -0.387 OA
ATOM     38  H   UNL     1      26.234  41.826  10.082  1.00  0.00     0.211 HD
ENDBRANCH  13  37
BRANCH  14  39
ATOM     39  O   UNL     1      24.979  40.957  13.231  1.00  0.00    -0.387 OA
ATOM     40  H   UNL     1      24.988  41.037  14.214  1.00  0.00     0.211 HD
ENDBRANCH  14  39
ENDBRANCH   8   9
ENDBRANCH   7   8
ENDBRANCH   1   7
BRANCH   1  41
ATOM     41  C   UNL     1      21.424  38.073   9.709  1.00  0.00     0.364 C 
ATOM     42  O   UNL     1      20.808  37.312   8.939  1.00  0.00    -0.246 OA
BRANCH  41  43
ATOM     43  O   UNL     1      20.689  39.090  10.295  1.00  0.00    -0.477 OA
ATOM     44  H   UNL     1      20.642  40.040   9.905  1.00  0.00     0.296 HD
ENDBRANCH  41  43
ENDBRANCH   1  41
BRANCH   3  45
ATOM     45  O   UNL     1      25.494  35.630   9.466  1.00  0.00    -0.391 OA
ATOM     46  H   UNL     1      26.233  36.192   9.752  1.00  0.00     0.211 HD
ENDBRANCH   3  45
BRANCH   5  47
ATOM     47  C   UNL     1      24.022  39.743   7.177  1.00  0.00     0.176 C 
BRANCH  47  48
ATOM     48  O   UNL     1      25.316  40.220   7.572  1.00  0.00    -0.388 OA
ATOM     49  H   UNL     1      26.018  39.692   7.095  1.00  0.00     0.211 HD
ENDBRANCH  47  48
BRANCH  47  50
ATOM     50  C   UNL     1      23.020  40.838   7.467  1.00  0.00     0.165 C 
BRANCH  50  51
ATOM     51  O   UNL     1      21.727  40.259   7.565  1.00  0.00    -0.388 OA
ATOM     52  H   UNL     1      21.792  39.521   8.209  1.00  0.00     0.211 HD
ENDBRANCH  50  51
BRANCH  50  53
ATOM     53  C   UNL     1      22.999  41.907   6.446  1.00  0.00     0.154 C 
BRANCH  53  54
ATOM     54  N   UNL     1      24.303  42.441   6.176  1.00  0.00    -0.319 N 
ATOM     55  C   UNL     1      24.940  43.517   6.834  1.00  0.00     0.407 C 
ATOM     56  H   UNL     1      24.915  42.011   5.393  1.00  0.00     0.167 HD
ATOM     57  O   UNL     1      24.388  44.135   7.748  1.00  0.00    -0.225 OA
BRANCH  55  58
ATOM     58  O   UNL     1      26.226  43.944   6.486  1.00  0.00    -0.443 OA
BRANCH  58  59
ATOM     59  C   UNL     1      26.972  43.273   5.485  1.00  0.00     0.294 C 
BRANCH  59  60
ATOM     60  C   UNL     1      27.906  42.281   6.103  1.00  0.00     0.120 A 
ATOM     61  C   UNL     1      28.817  41.474   5.435  1.00  0.00     0.139 A 
ATOM     62  N   UNL     1      28.046  41.980   7.402  1.00  0.00    -0.132 NA
ATOM     63  N   UNL     1      29.462  40.727   6.349  1.00  0.00    -0.241 N 
ATOM     64  N   UNL     1      28.976  41.051   7.537  1.00  0.00    -0.066 NA
BRANCH  63  65
ATOM     65  C   UNL     1      30.513  39.732   6.112  1.00  0.00     0.268 C 
BRANCH  65  66
ATOM     66  C   UNL     1      31.133  39.406   7.409  1.00  0.00     0.325 C 
ATOM     67  O   UNL     1      32.291  39.773   7.659  1.00  0.00    -0.250 OA
BRANCH  66  68
ATOM     68  O   UNL     1      30.420  38.689   8.347  1.00  0.00    -0.480 OA
ATOM     69  H   UNL     1      30.582  37.722   8.535  1.00  0.00     0.296 HD
ENDBRANCH  66  68
ENDBRANCH  65  66
ENDBRANCH  63  65
ENDBRANCH  59  60
ENDBRANCH  58  59
ENDBRANCH  55  58
ENDBRANCH  53  54
ENDBRANCH  50  53
ENDBRANCH  47  50
ENDBRANCH   5  47
BRANCH   4  70
ATOM     70  N   UNL     1      25.728  37.251   6.946  1.00  0.00    -0.348 N 
ATOM     71  C   UNL     1      27.136  37.509   6.819  1.00  0.00     0.217 C 
ATOM     72  H   UNL     1      25.265  36.793   6.136  1.00  0.00     0.163 HD
ATOM     73  C   UNL     1      27.819  37.133   5.559  1.00  0.00     0.114 C 
ATOM     74  O   UNL     1      27.782  38.041   7.752  1.00  0.00    -0.275 OA
ENDBRANCH   4  70
TORSDOF 32
BEGIN_RES LYS A 131
REMARK  4 active torsions:
REMARK  status: ('A' for Active; 'I' for Inactive)
REMARK    1  A    between atoms: CA   and  CB  
REMARK    2  A    between atoms: CB   and  CG  
REMARK    3  A    between atoms: CG   and  CD  
REMARK    4  A    between atoms: CD   and  CE  
ROOT
ATOM      1  CA  LYS A 131      29.867  25.555  16.977  1.00 20.52     0.186 C 
ENDROOT
BRANCH   1   2
ATOM      2  CB  LYS A 131      28.345  25.722  17.026  1.00 20.94     0.034 C 
BRANCH   2   3
ATOM      3  CG  LYS A 131      27.601  24.401  16.898  1.00 22.96     0.005 C 
BRANCH   3   4
ATOM      4  CD  LYS A 131      26.530  24.251  17.942  1.00 24.33     0.041 C 
BRANCH   4   5
ATOM      5  CE  LYS A 131      25.183  24.029  17.261  1.00 26.91     0.338 C 
ATOM      6  NZ  LYS A 131      24.742  22.625  17.430  1.00 27.40     0.618 N 
ENDBRANCH   4   5
ENDBRANCH   3   4
ENDBRANCH   2   3
ENDBRANCH   1   2
END_RES LYS A 131
BEGIN_RES LYS A 135
REMARK  4 active torsions:
REMARK  status: ('A' for Active; 'I' for Inactive)
REMARK    5  A    between atoms: CA   and  CB  
REMARK    6  A    between atoms: CB   and  CG  
REMARK    7  A    between atoms: CG   and  CD  
REMARK    8  A    between atoms: CD   and  CE  
ROOT
ATOM      7  CA  LYS A 135      33.193  34.663   9.290  1.00 25.02     0.186 C 
ENDROOT
BRANCH   7   8
ATOM      8  CB  LYS A 135      32.060  35.360  10.034  1.00 26.63     0.034 C 
BRANCH   8   9
ATOM      9  CG  LYS A 135      30.717  34.707   9.834  1.00 29.45     0.005 C 
BRANCH   9  10
ATOM     10  CD  LYS A 135      30.071  35.192   8.545  1.00 32.00     0.041 C 
BRANCH  10  11
ATOM     11  CE  LYS A 135      28.731  34.515   8.332  1.00 34.25     0.338 C 
ATOM     12  NZ  LYS A 135      28.305  33.773   9.552  1.00 35.99     0.618 N 
ENDBRANCH  10  11
ENDBRANCH   9  10
ENDBRANCH   8   9
ENDBRANCH   7   8
END_RES LYS A 135
