REMARK VINA RESULT:    -4.002      3.160      8.686
REMARK INTER + INTRA:         -22.472
REMARK INTER:                 -10.902
REMARK INTRA:                 -11.570
REMARK UNBOUND:               -12.270
REMARK SMILES CC(=O)N[C@@H]1[C@@H](O)C[C@](OC[C@H]2O[C@@H](O[C@H]3[C@H](O)[C@@H](O)[C@H](OCCN=[N+]=[N-])O[C@@H]3CO)[C@H](O)[C@@H](O)[C@H]2O)(C(=O)O)O[C@H]1C(O)[C@H](O)CNC(=O)OCc1cn(-c2ccc(S(N)(=O)=O)cc2)nn1
REMARK SMILES IDX 9 1 8 2 6 3 5 4 42 5 41 6 10 7 11 8 12 9 14 10 13 11 32 12
REMARK SMILES IDX 34 13 36 14 15 15 16 16 29 17 28 18 21 19 17 20 19 21 30 22
REMARK SMILES IDX 31 23 22 25 23 26 24 27 25 28 26 29 27 30 18 31 20 33 33 35
REMARK SMILES IDX 35 37 37 39 38 41 39 42 40 43 7 45 43 47 44 48 45 50 46 51
REMARK SMILES IDX 47 53 48 54 49 55 50 57 51 58 52 59 53 60 54 61 67 62 55 63
REMARK SMILES IDX 66 64 56 65 57 66 65 67 58 68 64 69 59 70 60 71 62 72 63 73
REMARK SMILES IDX 61 74 4 77 2 78 1 80 3 81
REMARK H PARENT 31 24 18 32 20 34 33 36 35 38 37 40 40 44 7 46 44 49 46 52
REMARK H PARENT 48 56 61 75 61 76 4 79
REMARK Flexibility Score: inf
ROOT
ATOM      1  C   UNL     1      26.615  33.001  15.471  1.00  0.00     0.272 C 
ATOM      2  C   UNL     1      25.929  33.527  16.742  1.00  0.00     0.113 C 
ATOM      3  C   UNL     1      26.012  32.556  17.867  1.00  0.00     0.145 C 
ATOM      4  C   UNL     1      25.814  31.161  17.332  1.00  0.00     0.142 C 
ATOM      5  C   UNL     1      25.082  31.343  15.997  1.00  0.00     0.178 C 
ATOM      6  O   UNL     1      26.048  31.804  15.104  1.00  0.00    -0.332 OA
ENDROOT
BRANCH   1   7
ATOM      7  O   UNL     1      27.967  32.925  15.784  1.00  0.00    -0.338 OA
BRANCH   7   8
ATOM      8  C   UNL     1      28.630  31.887  15.193  1.00  0.00     0.199 C 
BRANCH   8   9
ATOM      9  C   UNL     1      30.049  31.848  15.788  1.00  0.00     0.179 C 
ATOM     10  C   UNL     1      31.477  33.358  16.859  1.00  0.00     0.282 C 
ATOM     11  O   UNL     1      30.475  33.135  15.865  1.00  0.00    -0.341 OA
ATOM     12  C   UNL     1      30.748  33.114  18.149  1.00  0.00     0.202 C 
ATOM     13  C   UNL     1      30.430  31.630  18.286  1.00  0.00     0.179 C 
ATOM     14  C   UNL     1      30.156  30.984  16.978  1.00  0.00     0.177 C 
BRANCH  10  15
ATOM     15  O   UNL     1      31.875  34.644  16.741  1.00  0.00    -0.341 OA
BRANCH  15  16
ATOM     16  C   UNL     1      31.223  35.383  15.720  1.00  0.00     0.184 C 
ATOM     17  C   UNL     1      32.246  36.003  14.883  1.00  0.00     0.178 C 
ATOM     18  O   UNL     1      32.011  37.295  14.457  1.00  0.00    -0.341 OA
ATOM     19  C   UNL     1      30.706  37.693  14.388  1.00  0.00     0.281 C 
ATOM     20  C   UNL     1      30.223  36.325  16.350  1.00  0.00     0.180 C 
ATOM     21  C   UNL     1      30.157  37.691  15.789  1.00  0.00     0.202 C 
BRANCH  17  22
ATOM     22  C   UNL     1      32.605  35.207  13.646  1.00  0.00     0.191 C 
BRANCH  22  23
ATOM     23  O   UNL     1      31.541  34.407  13.253  1.00  0.00    -0.394 OA
ATOM     24  H   UNL     1      30.694  34.916  13.198  1.00  0.00     0.210 HD
ENDBRANCH  22  23
ENDBRANCH  17  22
BRANCH  19  25
ATOM     25  O   UNL     1      29.910  37.010  13.502  1.00  0.00    -0.350 OA
BRANCH  25  26
ATOM     26  C   UNL     1      29.018  37.880  12.886  1.00  0.00     0.169 C 
BRANCH  26  27
ATOM     27  C   UNL     1      29.007  37.560  11.394  1.00  0.00     0.119 C 
BRANCH  27  28
ATOM     28  N   UNL     1      27.720  37.015  11.062  1.00  0.00    -0.092 NA
ATOM     29  N   UNL     1      27.437  35.813  11.262  1.00  0.00     0.001 N 
ATOM     30  N   UNL     1      27.291  34.636  10.889  1.00  0.00    -0.003 NA
ENDBRANCH  27  28
ENDBRANCH  26  27
ENDBRANCH  25  26
ENDBRANCH  19  25
BRANCH  20  31
ATOM     31  O   UNL     1      28.934  35.786  16.314  1.00  0.00    -0.387 OA
ATOM     32  H   UNL     1      28.694  35.583  15.381  1.00  0.00     0.211 HD
ENDBRANCH  20  31
BRANCH  21  33
ATOM     33  O   UNL     1      30.809  38.654  16.551  1.00  0.00    -0.385 OA
ATOM     34  H   UNL     1      30.428  39.533  16.226  1.00  0.00     0.211 HD
ENDBRANCH  21  33
ENDBRANCH  15  16
ENDBRANCH  10  15
BRANCH  12  35
ATOM     35  O   UNL     1      31.328  33.644  19.263  1.00  0.00    -0.385 OA
ATOM     36  H   UNL     1      31.843  33.019  19.809  1.00  0.00     0.211 HD
ENDBRANCH  12  35
BRANCH  13  37
ATOM     37  O   UNL     1      29.479  31.404  19.267  1.00  0.00    -0.387 OA
ATOM     38  H   UNL     1      28.679  31.967  19.215  1.00  0.00     0.211 HD
ENDBRANCH  13  37
BRANCH  14  39
ATOM     39  O   UNL     1      28.930  30.288  17.107  1.00  0.00    -0.387 OA
ATOM     40  H   UNL     1      28.393  30.563  16.308  1.00  0.00     0.211 HD
ENDBRANCH  14  39
ENDBRANCH   8   9
ENDBRANCH   7   8
ENDBRANCH   1   7
BRANCH   1  41
ATOM     41  C   UNL     1      26.369  34.088  14.452  1.00  0.00     0.364 C 
ATOM     42  O   UNL     1      26.831  35.244  14.615  1.00  0.00    -0.246 OA
BRANCH  41  43
ATOM     43  O   UNL     1      25.631  33.847  13.310  1.00  0.00    -0.477 OA
ATOM     44  H   UNL     1      25.767  32.969  12.833  1.00  0.00     0.296 HD
ENDBRANCH  41  43
ENDBRANCH   1  41
BRANCH   3  45
ATOM     45  O   UNL     1      27.231  32.731  18.517  1.00  0.00    -0.391 OA
ATOM     46  H   UNL     1      27.322  33.675  18.786  1.00  0.00     0.211 HD
ENDBRANCH   3  45
BRANCH   5  47
ATOM     47  C   UNL     1      24.539  30.030  15.499  1.00  0.00     0.176 C 
BRANCH  47  48
ATOM     48  O   UNL     1      23.687  29.400  16.382  1.00  0.00    -0.388 OA
ATOM     49  H   UNL     1      23.675  29.822  17.277  1.00  0.00     0.211 HD
ENDBRANCH  47  48
BRANCH  47  50
ATOM     50  C   UNL     1      23.848  30.219  14.168  1.00  0.00     0.165 C 
BRANCH  50  51
ATOM     51  O   UNL     1      24.761  30.711  13.210  1.00  0.00    -0.388 OA
ATOM     52  H   UNL     1      25.302  31.454  13.603  1.00  0.00     0.211 HD
ENDBRANCH  50  51
BRANCH  50  53
ATOM     53  C   UNL     1      22.667  31.150  14.272  1.00  0.00     0.154 C 
BRANCH  53  54
ATOM     54  N   UNL     1      23.018  32.508  13.929  1.00  0.00    -0.319 N 
ATOM     55  C   UNL     1      22.669  33.568  14.805  1.00  0.00     0.407 C 
ATOM     56  H   UNL     1      23.522  32.748  13.053  1.00  0.00     0.167 HD
ATOM     57  O   UNL     1      22.051  33.292  15.875  1.00  0.00    -0.225 OA
BRANCH  55  58
ATOM     58  O   UNL     1      22.962  34.900  14.570  1.00  0.00    -0.443 OA
BRANCH  58  59
ATOM     59  C   UNL     1      22.164  35.719  13.750  1.00  0.00     0.294 C 
BRANCH  59  60
ATOM     60  C   UNL     1      22.688  35.669  12.359  1.00  0.00     0.121 A 
ATOM     61  C   UNL     1      23.471  36.651  11.740  1.00  0.00     0.144 A 
ATOM     62  N   UNL     1      22.540  34.723  11.415  1.00  0.00    -0.131 NA
ATOM     63  N   UNL     1      23.754  36.260  10.474  1.00  0.00    -0.220 N 
ATOM     64  N   UNL     1      23.187  35.103  10.304  1.00  0.00    -0.062 NA
BRANCH  63  65
ATOM     65  C   UNL     1      24.527  36.983   9.508  1.00  0.00     0.066 A 
ATOM     66  C   UNL     1      25.159  36.335   8.471  1.00  0.00     0.030 A 
ATOM     67  C   UNL     1      24.660  38.351   9.587  1.00  0.00     0.030 A 
ATOM     68  C   UNL     1      25.908  37.043   7.532  1.00  0.00     0.024 A 
ATOM     69  C   UNL     1      25.406  39.068   8.654  1.00  0.00     0.024 A 
ATOM     70  C   UNL     1      26.039  38.414   7.615  1.00  0.00     0.082 A 
BRANCH  70  71
ATOM     71  S   UNL     1      26.992  39.280   6.410  1.00  0.00     0.238 S 
ATOM     72  O   UNL     1      27.597  38.324   5.412  1.00  0.00    -0.207 OA
ATOM     73  O   UNL     1      26.126  40.232   5.644  1.00  0.00    -0.207 OA
BRANCH  71  74
ATOM     74  N   UNL     1      28.267  40.186   7.165  1.00  0.00    -0.225 NA
ATOM     75  H   UNL     1      27.941  41.193   7.229  1.00  0.00     0.137 HD
ATOM     76  H   UNL     1      29.165  40.126   6.630  1.00  0.00     0.137 HD
ENDBRANCH  71  74
ENDBRANCH  70  71
ENDBRANCH  63  65
ENDBRANCH  59  60
ENDBRANCH  58  59
ENDBRANCH  55  58
ENDBRANCH  53  54
ENDBRANCH  50  53
ENDBRANCH  47  50
ENDBRANCH   5  47
BRANCH   4  77
ATOM     77  N   UNL     1      25.077  30.288  18.206  1.00  0.00    -0.348 N 
ATOM     78  C   UNL     1      25.742  29.574  19.225  1.00  0.00     0.217 C 
ATOM     79  H   UNL     1      24.052  30.172  18.104  1.00  0.00     0.163 HD
ATOM     80  C   UNL     1      24.947  28.683  20.105  1.00  0.00     0.114 C 
ATOM     81  O   UNL     1      26.977  29.659  19.419  1.00  0.00    -0.275 OA
ENDBRANCH   4  77
TORSDOF 32
BEGIN_RES LYS A 131
REMARK  4 active torsions:
REMARK  status: ('A' for Active; 'I' for Inactive)
REMARK    1  A    between atoms: CA   and  CB  
REMARK    2  A    between atoms: CB   and  CG  
REMARK    3  A    between atoms: CG   and  CD  
REMARK    4  A    between atoms: CD   and  CE  
ROOT
ATOM      1  CA  LYS A 131      29.867  25.555  16.977  1.00 20.52     0.186 C 
ENDROOT
BRANCH   1   2
ATOM      2  CB  LYS A 131      28.345  25.722  17.026  1.00 20.94     0.034 C 
BRANCH   2   3
ATOM      3  CG  LYS A 131      27.601  24.403  16.888  1.00 22.96     0.005 C 
BRANCH   3   4
ATOM      4  CD  LYS A 131      26.235  24.454  17.515  1.00 24.33     0.041 C 
BRANCH   4   5
ATOM      5  CE  LYS A 131      26.240  25.456  18.665  1.00 26.91     0.338 C 
ATOM      6  NZ  LYS A 131      25.477  24.926  19.819  1.00 27.40     0.618 N 
ENDBRANCH   4   5
ENDBRANCH   3   4
ENDBRANCH   2   3
ENDBRANCH   1   2
END_RES LYS A 131
BEGIN_RES LYS A 135
REMARK  4 active torsions:
REMARK  status: ('A' for Active; 'I' for Inactive)
REMARK    5  A    between atoms: CA   and  CB  
REMARK    6  A    between atoms: CB   and  CG  
REMARK    7  A    between atoms: CG   and  CD  
REMARK    8  A    between atoms: CD   and  CE  
ROOT
ATOM      7  CA  LYS A 135      33.193  34.663   9.290  1.00 25.02     0.186 C 
ENDROOT
BRANCH   7   8
ATOM      8  CB  LYS A 135      32.060  35.360  10.034  1.00 26.63     0.034 C 
BRANCH   8   9
ATOM      9  CG  LYS A 135      30.708  34.740   9.790  1.00 29.45     0.005 C 
BRANCH   9  10
ATOM     10  CD  LYS A 135      30.488  34.499   8.305  1.00 32.00     0.041 C 
BRANCH  10  11
ATOM     11  CE  LYS A 135      29.239  35.214   7.828  1.00 34.25     0.338 C 
ATOM     12  NZ  LYS A 135      29.403  36.692   7.906  1.00 35.99     0.618 N 
ENDBRANCH  10  11
ENDBRANCH   9  10
ENDBRANCH   8   9
ENDBRANCH   7   8
END_RES LYS A 135
