REMARK VINA RESULT:    -3.831      4.281      8.611
REMARK INTER + INTRA:         -22.407
REMARK INTER:                 -12.179
REMARK INTRA:                 -10.228
REMARK UNBOUND:               -11.857
REMARK SMILES CC[N+](C)(CC)CCCn1cc(COC(=O)NC[C@@H](O)C(O)[C@@H]2O[C@@](OC[C@H]3O[C@@H](O[C@H]4[C@H](O)[C@@H](O)[C@H](OCCN=[N+]=[N-])O[C@@H]4CO)[C@H](O)[C@@H](O)[C@H]3O)(C(=O)O)C[C@H](O)[C@H]2NC(C)=O)nn1
REMARK SMILES IDX 21 1 23 2 25 3 57 4 24 5 58 6 60 7 26 8 27 9 28 10 30 11
REMARK SMILES IDX 29 12 48 13 50 14 52 15 31 16 32 17 45 18 44 19 37 20 33 21
REMARK SMILES IDX 35 22 46 23 47 24 38 26 39 27 40 28 41 29 42 30 43 31 34 32
REMARK SMILES IDX 36 34 49 36 51 38 53 40 54 42 55 43 56 44 59 46 61 48 62 49
REMARK SMILES IDX 63 51 64 52 22 53 19 55 20 56 18 58 17 59 15 60 16 62 14 63
REMARK SMILES IDX 13 64 12 65 11 66 65 67 10 68 66 69 9 70 8 71 7 72 3 73 4 74
REMARK SMILES IDX 2 75 1 76 5 77 6 78
REMARK H PARENT 47 25 34 33 36 35 49 37 51 39 53 41 56 45 59 47 61 50 22 54
REMARK H PARENT 20 57 17 61
REMARK Flexibility Score: inf
ROOT
ATOM      1  C   UNL     1      31.910  37.060  13.046  1.00  0.00     0.176 C 
ENDROOT
BRANCH   1   2
ATOM      2  C   UNL     1      30.750  36.902  14.025  1.00  0.00     0.178 C 
ATOM      3  C   UNL     1      28.442  36.416  14.013  1.00  0.00     0.272 C 
ATOM      4  C   UNL     1      28.413  37.318  15.201  1.00  0.00     0.113 C 
ATOM      5  O   UNL     1      29.600  36.791  13.276  1.00  0.00    -0.332 OA
ATOM      6  C   UNL     1      29.280  38.537  15.025  1.00  0.00     0.145 C 
ATOM      7  C   UNL     1      30.732  38.072  14.955  1.00  0.00     0.142 C 
BRANCH   3   8
ATOM      8  O   UNL     1      27.421  36.637  13.113  1.00  0.00    -0.338 OA
BRANCH   8   9
ATOM      9  C   UNL     1      27.695  36.959  11.838  1.00  0.00     0.199 C 
BRANCH   9  10
ATOM     10  C   UNL     1      26.869  38.190  11.384  1.00  0.00     0.179 C 
ATOM     11  C   UNL     1      27.075  38.076   9.037  1.00  0.00     0.282 C 
ATOM     12  O   UNL     1      27.307  38.732  10.239  1.00  0.00    -0.341 OA
ATOM     13  C   UNL     1      25.811  37.304   9.004  1.00  0.00     0.202 C 
ATOM     14  C   UNL     1      24.854  38.066   9.947  1.00  0.00     0.179 C 
ATOM     15  C   UNL     1      25.395  37.787  11.332  1.00  0.00     0.177 C 
BRANCH  11  16
ATOM     16  O   UNL     1      28.228  37.394   8.622  1.00  0.00    -0.341 OA
BRANCH  16  17
ATOM     17  C   UNL     1      28.992  38.125   7.761  1.00  0.00     0.184 C 
ATOM     18  C   UNL     1      29.212  37.657   6.388  1.00  0.00     0.178 C 
ATOM     19  O   UNL     1      29.764  38.677   5.635  1.00  0.00    -0.341 OA
ATOM     20  C   UNL     1      30.387  39.700   6.253  1.00  0.00     0.281 C 
ATOM     21  C   UNL     1      30.406  38.343   8.350  1.00  0.00     0.180 C 
ATOM     22  C   UNL     1      31.112  39.397   7.540  1.00  0.00     0.202 C 
BRANCH  18  23
ATOM     23  C   UNL     1      27.992  37.150   5.645  1.00  0.00     0.191 C 
BRANCH  23  24
ATOM     24  O   UNL     1      26.950  38.067   5.602  1.00  0.00    -0.394 OA
ATOM     25  H   UNL     1      27.331  38.937   5.949  1.00  0.00     0.210 HD
ENDBRANCH  23  24
ENDBRANCH  18  23
BRANCH  20  26
ATOM     26  O   UNL     1      29.560  40.804   6.358  1.00  0.00    -0.350 OA
BRANCH  26  27
ATOM     27  C   UNL     1      28.976  41.224   5.209  1.00  0.00     0.169 C 
BRANCH  27  28
ATOM     28  C   UNL     1      27.510  41.573   5.359  1.00  0.00     0.119 C 
BRANCH  28  29
ATOM     29  N   UNL     1      27.004  41.008   6.599  1.00  0.00    -0.092 NA
ATOM     30  N   UNL     1      25.862  40.572   6.720  1.00  0.00     0.001 N 
ATOM     31  N   UNL     1      24.728  40.107   6.856  1.00  0.00    -0.003 NA
ENDBRANCH  28  29
ENDBRANCH  27  28
ENDBRANCH  26  27
ENDBRANCH  20  26
BRANCH  21  32
ATOM     32  O   UNL     1      30.238  38.637   9.683  1.00  0.00    -0.387 OA
ATOM     33  H   UNL     1      31.033  38.569  10.234  1.00  0.00     0.211 HD
ENDBRANCH  21  32
BRANCH  22  34
ATOM     34  O   UNL     1      32.426  39.003   7.342  1.00  0.00    -0.385 OA
ATOM     35  H   UNL     1      33.085  39.509   7.886  1.00  0.00     0.211 HD
ENDBRANCH  22  34
ENDBRANCH  16  17
ENDBRANCH  11  16
BRANCH  13  36
ATOM     36  O   UNL     1      25.182  37.300   7.749  1.00  0.00    -0.385 OA
ATOM     37  H   UNL     1      24.243  37.057   7.900  1.00  0.00     0.211 HD
ENDBRANCH  13  36
BRANCH  14  38
ATOM     38  O   UNL     1      23.565  37.553   9.812  1.00  0.00    -0.387 OA
ATOM     39  H   UNL     1      23.542  36.709  10.308  1.00  0.00     0.211 HD
ENDBRANCH  14  38
BRANCH  15  40
ATOM     40  O   UNL     1      25.349  36.403  11.489  1.00  0.00    -0.387 OA
ATOM     41  H   UNL     1      25.363  35.890  10.667  1.00  0.00     0.211 HD
ENDBRANCH  15  40
ENDBRANCH   9  10
ENDBRANCH   8   9
ENDBRANCH   3   8
BRANCH   3  42
ATOM     42  C   UNL     1      28.519  34.980  14.331  1.00  0.00     0.364 C 
ATOM     43  O   UNL     1      28.106  34.521  15.419  1.00  0.00    -0.246 OA
BRANCH  42  44
ATOM     44  O   UNL     1      29.055  34.086  13.436  1.00  0.00    -0.477 OA
ATOM     45  H   UNL     1      29.574  33.255  13.716  1.00  0.00     0.296 HD
ENDBRANCH  42  44
ENDBRANCH   3  42
BRANCH   6  46
ATOM     46  O   UNL     1      28.979  39.267  13.900  1.00  0.00    -0.391 OA
ATOM     47  H   UNL     1      28.948  40.254  14.089  1.00  0.00     0.211 HD
ENDBRANCH   6  46
BRANCH   7  48
ATOM     48  N   UNL     1      31.034  37.597  16.316  1.00  0.00    -0.348 N 
ATOM     49  C   UNL     1      31.850  38.355  17.202  1.00  0.00     0.217 C 
ATOM     50  H   UNL     1      30.680  36.696  16.698  1.00  0.00     0.163 HD
ATOM     51  C   UNL     1      32.177  37.917  18.582  1.00  0.00     0.114 C 
ATOM     52  O   UNL     1      32.307  39.438  16.799  1.00  0.00    -0.275 OA
ENDBRANCH   7  48
ENDBRANCH   1   2
BRANCH   1  53
ATOM     53  O   UNL     1      31.363  37.289  11.737  1.00  0.00    -0.388 OA
ATOM     54  H   UNL     1      30.499  36.800  11.710  1.00  0.00     0.211 HD
ENDBRANCH   1  53
BRANCH   1  55
ATOM     55  C   UNL     1      32.708  35.801  12.951  1.00  0.00     0.165 C 
BRANCH  55  56
ATOM     56  O   UNL     1      31.743  34.848  12.420  1.00  0.00    -0.388 OA
ATOM     57  H   UNL     1      31.857  33.999  12.948  1.00  0.00     0.211 HD
ENDBRANCH  55  56
BRANCH  55  58
ATOM     58  C   UNL     1      33.247  35.226  14.208  1.00  0.00     0.154 C 
BRANCH  58  59
ATOM     59  N   UNL     1      32.761  34.048  14.770  1.00  0.00    -0.319 N 
ATOM     60  C   UNL     1      31.948  33.888  15.917  1.00  0.00     0.407 C 
ATOM     61  H   UNL     1      33.040  33.106  14.271  1.00  0.00     0.167 HD
ATOM     62  O   UNL     1      31.537  34.833  16.608  1.00  0.00    -0.225 OA
BRANCH  60  63
ATOM     63  O   UNL     1      31.570  32.589  16.335  1.00  0.00    -0.443 OA
BRANCH  63  64
ATOM     64  C   UNL     1      30.739  31.835  15.432  1.00  0.00     0.294 C 
BRANCH  64  65
ATOM     65  C   UNL     1      29.641  31.323  16.333  1.00  0.00     0.120 A 
ATOM     66  C   UNL     1      28.379  30.930  15.954  1.00  0.00     0.138 A 
ATOM     67  N   UNL     1      29.684  31.100  17.651  1.00  0.00    -0.132 NA
ATOM     68  N   UNL     1      27.704  30.480  17.060  1.00  0.00    -0.252 N 
ATOM     69  N   UNL     1      28.540  30.604  18.075  1.00  0.00    -0.067 NA
BRANCH  68  70
ATOM     70  C   UNL     1      26.358  29.936  17.067  1.00  0.00     0.152 C 
BRANCH  70  71
ATOM     71  C   UNL     1      25.449  30.650  16.162  1.00  0.00     0.085 C 
BRANCH  71  72
ATOM     72  C   UNL     1      24.764  29.937  15.071  1.00  0.00     0.265 C 
BRANCH  72  73
ATOM     73  N   UNL     1      23.424  29.495  15.269  1.00  0.00    -0.326 N 
ATOM     74  C   UNL     1      22.596  30.589  15.699  1.00  0.00     0.334 C 
BRANCH  73  75
ATOM     75  C   UNL     1      23.264  28.357  16.129  1.00  0.00     0.260 C 
ATOM     76  C   UNL     1      21.824  27.927  16.280  1.00  0.00     0.071 C 
ENDBRANCH  73  75
BRANCH  73  77
ATOM     77  C   UNL     1      22.919  29.129  13.935  1.00  0.00     0.260 C 
ATOM     78  C   UNL     1      23.763  29.619  12.813  1.00  0.00     0.071 C 
ENDBRANCH  73  77
ENDBRANCH  72  73
ENDBRANCH  71  72
ENDBRANCH  70  71
ENDBRANCH  68  70
ENDBRANCH  64  65
ENDBRANCH  63  64
ENDBRANCH  60  63
ENDBRANCH  58  59
ENDBRANCH  55  58
ENDBRANCH   1  55
TORSDOF 35
BEGIN_RES LYS A 131
REMARK  4 active torsions:
REMARK  status: ('A' for Active; 'I' for Inactive)
REMARK    1  A    between atoms: CA   and  CB  
REMARK    2  A    between atoms: CB   and  CG  
REMARK    3  A    between atoms: CG   and  CD  
REMARK    4  A    between atoms: CD   and  CE  
ROOT
ATOM      1  CA  LYS A 131      29.867  25.555  16.977  1.00 20.52     0.186 C 
ENDROOT
BRANCH   1   2
ATOM      2  CB  LYS A 131      28.345  25.722  17.026  1.00 20.94     0.034 C 
BRANCH   2   3
ATOM      3  CG  LYS A 131      27.601  24.402  16.894  1.00 22.96     0.005 C 
BRANCH   3   4
ATOM      4  CD  LYS A 131      26.156  24.524  17.289  1.00 24.33     0.041 C 
BRANCH   4   5
ATOM      5  CE  LYS A 131      26.061  25.014  18.730  1.00 26.91     0.338 C 
ATOM      6  NZ  LYS A 131      25.482  23.962  19.599  1.00 27.40     0.618 N 
ENDBRANCH   4   5
ENDBRANCH   3   4
ENDBRANCH   2   3
ENDBRANCH   1   2
END_RES LYS A 131
BEGIN_RES LYS A 135
REMARK  4 active torsions:
REMARK  status: ('A' for Active; 'I' for Inactive)
REMARK    5  A    between atoms: CA   and  CB  
REMARK    6  A    between atoms: CB   and  CG  
REMARK    7  A    between atoms: CG   and  CD  
REMARK    8  A    between atoms: CD   and  CE  
ROOT
ATOM      7  CA  LYS A 135      33.193  34.663   9.290  1.00 25.02     0.186 C 
ENDROOT
BRANCH   7   8
ATOM      8  CB  LYS A 135      32.060  35.360  10.034  1.00 26.63     0.034 C 
BRANCH   8   9
ATOM      9  CG  LYS A 135      30.720  34.697   9.849  1.00 29.45     0.005 C 
BRANCH   9  10
ATOM     10  CD  LYS A 135      30.398  34.541   8.370  1.00 32.00     0.041 C 
BRANCH  10  11
ATOM     11  CE  LYS A 135      28.900  34.421   8.161  1.00 34.25     0.338 C 
ATOM     12  NZ  LYS A 135      28.226  33.912   9.387  1.00 35.99     0.618 N 
ENDBRANCH  10  11
ENDBRANCH   9  10
ENDBRANCH   8   9
ENDBRANCH   7   8
END_RES LYS A 135
