REMARK VINA RESULT:    -5.910      3.225      9.023
REMARK INTER + INTRA:         -24.655
REMARK INTER:                 -13.508
REMARK INTRA:                 -11.147
REMARK UNBOUND:                -9.416
REMARK SMILES CC(=O)N[C@@H]1[C@@H](O)C[C@](OC[C@H]2O[C@@H](O[C@H]3[C@H](O)[C@@H](O)[C@H](OCCN=[N+]=[N-])O[C@@H]3CO)[C@H](O)[C@@H](O)[C@H]2O)(C(=O)O)O[C@H]1C(O)[C@H](O)CNC(=O)OCc1cn(C(C)(C)C(=O)c2c[nH]c3ccccc23)nn1
REMARK SMILES IDX 9 1 8 2 6 3 5 4 42 5 41 6 10 7 11 8 12 9 14 10 13 11 32 12
REMARK SMILES IDX 34 13 36 14 15 15 16 16 29 17 28 18 21 19 17 20 19 21 30 22
REMARK SMILES IDX 31 23 22 25 23 26 24 27 25 28 26 29 27 30 18 31 20 33 33 35
REMARK SMILES IDX 35 37 37 39 38 41 39 42 40 43 7 45 43 47 44 48 45 50 46 51
REMARK SMILES IDX 47 53 48 54 49 55 50 57 51 58 52 59 53 60 54 61 71 62 55 63
REMARK SMILES IDX 70 64 56 65 57 66 58 67 59 68 60 69 61 70 62 71 69 72 63 73
REMARK SMILES IDX 64 74 68 75 65 77 67 78 66 79 4 80 2 81 1 83 3 84
REMARK H PARENT 31 24 18 32 20 34 33 36 35 38 37 40 40 44 7 46 44 49 46 52
REMARK H PARENT 48 56 63 76 4 82
REMARK Flexibility Score: inf
ROOT
ATOM      1  C   UNL     1      26.148  40.321   8.474  1.00  0.00     0.272 C 
ATOM      2  C   UNL     1      26.331  41.233   7.272  1.00  0.00     0.113 C 
ATOM      3  C   UNL     1      26.877  40.486   6.081  1.00  0.00     0.145 C 
ATOM      4  C   UNL     1      28.350  40.057   6.404  1.00  0.00     0.142 C 
ATOM      5  C   UNL     1      28.343  39.718   7.859  1.00  0.00     0.178 C 
ATOM      6  O   UNL     1      27.090  39.311   8.266  1.00  0.00    -0.332 OA
ENDROOT
BRANCH   1   7
ATOM      7  O   UNL     1      24.924  39.838   8.699  1.00  0.00    -0.338 OA
BRANCH   7   8
ATOM      8  C   UNL     1      24.437  38.729   9.145  1.00  0.00     0.199 C 
BRANCH   8   9
ATOM      9  C   UNL     1      24.304  37.615   8.104  1.00  0.00     0.179 C 
ATOM     10  C   UNL     1      23.464  35.857   9.458  1.00  0.00     0.282 C 
ATOM     11  O   UNL     1      24.424  36.393   8.675  1.00  0.00    -0.341 OA
ATOM     12  C   UNL     1      22.068  36.026   8.924  1.00  0.00     0.202 C 
ATOM     13  C   UNL     1      22.121  36.577   7.504  1.00  0.00     0.179 C 
ATOM     14  C   UNL     1      22.987  37.773   7.395  1.00  0.00     0.177 C 
BRANCH  10  15
ATOM     15  O   UNL     1      23.521  36.389  10.734  1.00  0.00    -0.341 OA
BRANCH  15  16
ATOM     16  C   UNL     1      24.073  35.548  11.657  1.00  0.00     0.184 C 
ATOM     17  C   UNL     1      23.265  35.213  12.857  1.00  0.00     0.178 C 
ATOM     18  O   UNL     1      23.821  34.036  13.398  1.00  0.00    -0.341 OA
ATOM     19  C   UNL     1      25.110  34.179  13.821  1.00  0.00     0.281 C 
ATOM     20  C   UNL     1      25.433  36.008  12.144  1.00  0.00     0.180 C 
ATOM     21  C   UNL     1      26.052  34.799  12.812  1.00  0.00     0.202 C 
BRANCH  17  22
ATOM     22  C   UNL     1      21.817  34.877  12.567  1.00  0.00     0.191 C 
BRANCH  22  23
ATOM     23  O   UNL     1      21.813  33.803  11.669  1.00  0.00    -0.394 OA
ATOM     24  H   UNL     1      22.358  33.044  11.981  1.00  0.00     0.210 HD
ENDBRANCH  22  23
ENDBRANCH  17  22
BRANCH  19  25
ATOM     25  O   UNL     1      25.617  32.901  14.078  1.00  0.00    -0.350 OA
BRANCH  25  26
ATOM     26  C   UNL     1      25.493  32.645  15.431  1.00  0.00     0.169 C 
BRANCH  26  27
ATOM     27  C   UNL     1      26.594  31.763  15.956  1.00  0.00     0.119 C 
BRANCH  27  28
ATOM     28  N   UNL     1      26.712  31.786  17.397  1.00  0.00    -0.092 NA
ATOM     29  N   UNL     1      27.105  32.810  17.992  1.00  0.00     0.001 N 
ATOM     30  N   UNL     1      27.016  33.921  18.520  1.00  0.00    -0.003 NA
ENDBRANCH  27  28
ENDBRANCH  26  27
ENDBRANCH  25  26
ENDBRANCH  19  25
BRANCH  20  31
ATOM     31  O   UNL     1      26.250  36.449  11.130  1.00  0.00    -0.387 OA
ATOM     32  H   UNL     1      26.317  37.426  11.191  1.00  0.00     0.211 HD
ENDBRANCH  20  31
BRANCH  21  33
ATOM     33  O   UNL     1      27.177  35.231  13.512  1.00  0.00    -0.385 OA
ATOM     34  H   UNL     1      26.954  35.937  14.178  1.00  0.00     0.211 HD
ENDBRANCH  21  33
ENDBRANCH  15  16
ENDBRANCH  10  15
BRANCH  12  35
ATOM     35  O   UNL     1      21.304  34.860   8.966  1.00  0.00    -0.385 OA
ATOM     36  H   UNL     1      21.892  34.082   8.864  1.00  0.00     0.211 HD
ENDBRANCH  12  35
BRANCH  13  37
ATOM     37  O   UNL     1      20.777  36.885   7.186  1.00  0.00    -0.387 OA
ATOM     38  H   UNL     1      20.646  37.863   7.122  1.00  0.00     0.211 HD
ENDBRANCH  13  37
BRANCH  14  39
ATOM     39  O   UNL     1      22.347  38.903   7.964  1.00  0.00    -0.387 OA
ATOM     40  H   UNL     1      21.599  38.597   8.541  1.00  0.00     0.211 HD
ENDBRANCH  14  39
ENDBRANCH   8   9
ENDBRANCH   7   8
ENDBRANCH   1   7
BRANCH   1  41
ATOM     41  C   UNL     1      26.526  41.093   9.679  1.00  0.00     0.364 C 
ATOM     42  O   UNL     1      26.636  42.343   9.587  1.00  0.00    -0.246 OA
BRANCH  41  43
ATOM     43  O   UNL     1      26.770  40.533  10.892  1.00  0.00    -0.477 OA
ATOM     44  H   UNL     1      26.224  39.810  11.355  1.00  0.00     0.296 HD
ENDBRANCH  41  43
ENDBRANCH   1  41
BRANCH   3  45
ATOM     45  O   UNL     1      26.255  39.295   5.789  1.00  0.00    -0.391 OA
ATOM     46  H   UNL     1      26.512  38.920   4.899  1.00  0.00     0.211 HD
ENDBRANCH   3  45
BRANCH   5  47
ATOM     47  C   UNL     1      29.300  38.686   8.328  1.00  0.00     0.176 C 
BRANCH  47  48
ATOM     48  O   UNL     1      30.393  38.531   7.506  1.00  0.00    -0.388 OA
ATOM     49  H   UNL     1      31.256  38.372   7.982  1.00  0.00     0.211 HD
ENDBRANCH  47  48
BRANCH  47  50
ATOM     50  C   UNL     1      29.630  38.681   9.805  1.00  0.00     0.165 C 
BRANCH  50  51
ATOM     51  O   UNL     1      28.627  38.204  10.583  1.00  0.00    -0.388 OA
ATOM     52  H   UNL     1      28.713  38.456  11.514  1.00  0.00     0.211 HD
ENDBRANCH  50  51
BRANCH  50  53
ATOM     53  C   UNL     1      30.201  40.013  10.164  1.00  0.00     0.154 C 
BRANCH  53  54
ATOM     54  N   UNL     1      30.810  40.145  11.434  1.00  0.00    -0.319 N 
ATOM     55  C   UNL     1      30.158  40.723  12.579  1.00  0.00     0.407 C 
ATOM     56  H   UNL     1      31.808  39.808  11.590  1.00  0.00     0.167 HD
ATOM     57  O   UNL     1      28.996  41.171  12.511  1.00  0.00    -0.225 OA
BRANCH  55  58
ATOM     58  O   UNL     1      30.806  40.799  13.797  1.00  0.00    -0.443 OA
BRANCH  58  59
ATOM     59  C   UNL     1      30.350  40.113  14.928  1.00  0.00     0.294 C 
BRANCH  59  60
ATOM     60  C   UNL     1      30.220  38.665  14.573  1.00  0.00     0.120 A 
ATOM     61  C   UNL     1      31.285  37.828  14.190  1.00  0.00     0.139 A 
ATOM     62  N   UNL     1      29.143  37.873  14.508  1.00  0.00    -0.132 NA
ATOM     63  N   UNL     1      30.817  36.604  13.917  1.00  0.00    -0.239 N 
ATOM     64  N   UNL     1      29.521  36.643  14.113  1.00  0.00    -0.066 NA
BRANCH  63  65
ATOM     65  C   UNL     1      31.626  35.481  13.492  1.00  0.00     0.122 C 
ATOM     66  C   UNL     1      32.652  36.052  12.452  1.00  0.00     0.046 C 
ATOM     67  C   UNL     1      30.861  34.451  12.695  1.00  0.00     0.046 C 
BRANCH  65  68
ATOM     68  C   UNL     1      32.409  34.921  14.577  1.00  0.00     0.192 C 
ATOM     69  O   UNL     1      33.678  34.772  14.299  1.00  0.00    -0.291 OA
BRANCH  68  70
ATOM     70  C   UNL     1      32.031  34.506  15.892  1.00  0.00     0.045 A 
ATOM     71  C   UNL     1      32.260  35.271  17.042  1.00  0.00     0.095 A 
ATOM     72  C   UNL     1      31.424  33.340  16.315  1.00  0.00     0.010 A 
ATOM     73  N   UNL     1      31.812  34.590  18.079  1.00  0.00    -0.360 N 
ATOM     74  C   UNL     1      31.298  33.418  17.705  1.00  0.00     0.046 A 
ATOM     75  C   UNL     1      30.959  32.213  15.695  1.00  0.00     0.011 A 
ATOM     76  H   UNL     1      31.869  34.953  19.073  1.00  0.00     0.166 HD
ATOM     77  C   UNL     1      30.723  32.391  18.433  1.00  0.00     0.027 A 
ATOM     78  C   UNL     1      30.382  31.180  16.433  1.00  0.00     0.001 A 
ATOM     79  C   UNL     1      30.269  31.277  17.788  1.00  0.00     0.002 A 
ENDBRANCH  68  70
ENDBRANCH  65  68
ENDBRANCH  63  65
ENDBRANCH  59  60
ENDBRANCH  58  59
ENDBRANCH  55  58
ENDBRANCH  53  54
ENDBRANCH  50  53
ENDBRANCH  47  50
ENDBRANCH   5  47
BRANCH   4  80
ATOM     80  N   UNL     1      29.097  41.288   6.161  1.00  0.00    -0.348 N 
ATOM     81  C   UNL     1      30.394  41.329   5.591  1.00  0.00     0.217 C 
ATOM     82  H   UNL     1      28.653  42.210   6.424  1.00  0.00     0.163 HD
ATOM     83  C   UNL     1      31.152  42.585   5.349  1.00  0.00     0.114 C 
ATOM     84  O   UNL     1      30.911  40.201   5.282  1.00  0.00    -0.275 OA
ENDBRANCH   4  80
TORSDOF 32
BEGIN_RES LYS A 131
REMARK  4 active torsions:
REMARK  status: ('A' for Active; 'I' for Inactive)
REMARK    1  A    between atoms: CA   and  CB  
REMARK    2  A    between atoms: CB   and  CG  
REMARK    3  A    between atoms: CG   and  CD  
REMARK    4  A    between atoms: CD   and  CE  
ROOT
ATOM      1  CA  LYS A 131      29.867  25.555  16.977  1.00 20.52     0.186 C 
ENDROOT
BRANCH   1   2
ATOM      2  CB  LYS A 131      28.345  25.722  17.026  1.00 20.94     0.034 C 
BRANCH   2   3
ATOM      3  CG  LYS A 131      27.601  24.401  16.901  1.00 22.96     0.005 C 
BRANCH   3   4
ATOM      4  CD  LYS A 131      26.147  24.534  17.259  1.00 24.33     0.041 C 
BRANCH   4   5
ATOM      5  CE  LYS A 131      25.938  24.102  18.707  1.00 26.91     0.338 C 
ATOM      6  NZ  LYS A 131      25.736  25.285  19.577  1.00 27.40     0.618 N 
ENDBRANCH   4   5
ENDBRANCH   3   4
ENDBRANCH   2   3
ENDBRANCH   1   2
END_RES LYS A 131
BEGIN_RES LYS A 135
REMARK  4 active torsions:
REMARK  status: ('A' for Active; 'I' for Inactive)
REMARK    5  A    between atoms: CA   and  CB  
REMARK    6  A    between atoms: CB   and  CG  
REMARK    7  A    between atoms: CG   and  CD  
REMARK    8  A    between atoms: CD   and  CE  
ROOT
ATOM      7  CA  LYS A 135      33.193  34.663   9.290  1.00 25.02     0.186 C 
ENDROOT
BRANCH   7   8
ATOM      8  CB  LYS A 135      32.060  35.360  10.034  1.00 26.63     0.034 C 
BRANCH   8   9
ATOM      9  CG  LYS A 135      30.795  35.486   9.224  1.00 29.45     0.005 C 
BRANCH   9  10
ATOM     10  CD  LYS A 135      30.146  34.124   9.029  1.00 32.00     0.041 C 
BRANCH  10  11
ATOM     11  CE  LYS A 135      28.730  34.127   9.573  1.00 34.25     0.338 C 
ATOM     12  NZ  LYS A 135      27.751  34.514   8.520  1.00 35.99     0.618 N 
ENDBRANCH  10  11
ENDBRANCH   9  10
ENDBRANCH   8   9
ENDBRANCH   7   8
END_RES LYS A 135
