REMARK VINA RESULT:    -4.818      0.000      0.000
REMARK INTER + INTRA:         -23.414
REMARK INTER:                 -12.371
REMARK INTRA:                 -11.043
REMARK UNBOUND:               -10.427
REMARK SMILES CCN(CC)CCn1cc(COC(=O)NC[C@@H](O)C(O)[C@@H]2O[C@@](OC[C@H]3O[C@@H](O[C@H]4[C@H](O)[C@@H](O)[C@H](OCCN=[N+]=[N-])O[C@@H]4CO)[C@H](O)[C@@H](O)[C@H]3O)(C(=O)O)C[C@H](O)[C@H]2NC(C)=O)nn1
REMARK SMILES IDX 19 1 21 2 23 3 55 4 22 5 56 6 58 7 24 8 25 9 26 10 28 11
REMARK SMILES IDX 27 12 46 13 48 14 50 15 29 16 30 17 43 18 42 19 35 20 31 21
REMARK SMILES IDX 33 22 44 23 45 24 36 26 37 27 38 28 39 29 40 30 41 31 32 32
REMARK SMILES IDX 34 34 47 36 49 38 51 40 52 42 53 43 54 44 57 46 59 48 60 49
REMARK SMILES IDX 61 51 62 52 20 53 17 55 18 56 16 58 15 59 13 60 14 62 12 63
REMARK SMILES IDX 11 64 10 65 9 66 63 67 8 68 64 69 7 70 6 71 3 72 2 73 1 74
REMARK SMILES IDX 4 75 5 76
REMARK H PARENT 45 25 32 33 34 35 47 37 49 39 51 41 54 45 57 47 59 50 20 54
REMARK H PARENT 18 57 15 61
REMARK Flexibility Score: inf
ROOT
ATOM      1  C   UNL     1      30.925  38.470  15.068  1.00  0.00     0.176 C 
ENDROOT
BRANCH   1   2
ATOM      2  C   UNL     1      31.836  37.323  15.418  1.00  0.00     0.178 C 
ATOM      3  C   UNL     1      32.540  35.237  14.747  1.00  0.00     0.272 C 
ATOM      4  C   UNL     1      33.500  35.529  15.911  1.00  0.00     0.113 C 
ATOM      5  O   UNL     1      31.765  36.339  14.461  1.00  0.00    -0.332 OA
ATOM      6  C   UNL     1      32.807  35.966  17.161  1.00  0.00     0.145 C 
ATOM      7  C   UNL     1      31.508  36.672  16.743  1.00  0.00     0.142 C 
BRANCH   3   8
ATOM      8  O   UNL     1      31.833  34.113  15.097  1.00  0.00    -0.338 OA
BRANCH   8   9
ATOM      9  C   UNL     1      30.738  33.819  14.322  1.00  0.00     0.199 C 
BRANCH   9  10
ATOM     10  C   UNL     1      29.999  32.576  14.851  1.00  0.00     0.179 C 
ATOM     11  C   UNL     1      30.311  31.316  16.812  1.00  0.00     0.282 C 
ATOM     12  O   UNL     1      30.843  31.973  15.713  1.00  0.00    -0.341 OA
ATOM     13  C   UNL     1      28.933  30.842  16.577  1.00  0.00     0.202 C 
ATOM     14  C   UNL     1      27.981  31.919  16.136  1.00  0.00     0.179 C 
ATOM     15  C   UNL     1      28.758  33.068  15.532  1.00  0.00     0.177 C 
BRANCH  11  16
ATOM     16  O   UNL     1      30.532  32.176  17.879  1.00  0.00    -0.341 OA
BRANCH  16  17
ATOM     17  C   UNL     1      30.037  31.752  19.062  1.00  0.00     0.184 C 
ATOM     18  C   UNL     1      30.113  32.800  20.142  1.00  0.00     0.178 C 
ATOM     19  O   UNL     1      29.465  32.278  21.299  1.00  0.00    -0.341 OA
ATOM     20  C   UNL     1      30.350  31.439  21.940  1.00  0.00     0.281 C 
ATOM     21  C   UNL     1      30.743  30.515  19.607  1.00  0.00     0.180 C 
ATOM     22  C   UNL     1      31.200  30.676  21.022  1.00  0.00     0.202 C 
BRANCH  18  23
ATOM     23  C   UNL     1      29.587  34.142  19.785  1.00  0.00     0.191 C 
BRANCH  23  24
ATOM     24  O   UNL     1      28.356  33.969  19.163  1.00  0.00    -0.394 OA
ATOM     25  H   UNL     1      27.787  33.280  19.589  1.00  0.00     0.210 HD
ENDBRANCH  23  24
ENDBRANCH  18  23
BRANCH  20  26
ATOM     26  O   UNL     1      29.725  30.679  22.924  1.00  0.00    -0.350 OA
BRANCH  26  27
ATOM     27  C   UNL     1      30.321  29.485  23.195  1.00  0.00     0.169 C 
BRANCH  27  28
ATOM     28  C   UNL     1      29.348  28.320  23.186  1.00  0.00     0.119 C 
BRANCH  28  29
ATOM     29  N   UNL     1      29.441  27.566  21.951  1.00  0.00    -0.092 NA
ATOM     30  N   UNL     1      30.501  27.072  21.546  1.00  0.00     0.001 N 
ATOM     31  N   UNL     1      31.574  27.002  20.945  1.00  0.00    -0.003 NA
ENDBRANCH  28  29
ENDBRANCH  27  28
ENDBRANCH  26  27
ENDBRANCH  20  26
BRANCH  21  32
ATOM     32  O   UNL     1      29.871  29.446  19.525  1.00  0.00    -0.387 OA
ATOM     33  H   UNL     1      29.243  29.379  20.273  1.00  0.00     0.211 HD
ENDBRANCH  21  32
BRANCH  22  34
ATOM     34  O   UNL     1      32.523  31.182  21.076  1.00  0.00    -0.385 OA
ATOM     35  H   UNL     1      33.068  30.573  20.512  1.00  0.00     0.211 HD
ENDBRANCH  22  34
ENDBRANCH  16  17
ENDBRANCH  11  16
BRANCH  13  36
ATOM     36  O   UNL     1      28.969  29.880  15.525  1.00  0.00    -0.385 OA
ATOM     37  H   UNL     1      29.416  30.239  14.738  1.00  0.00     0.211 HD
ENDBRANCH  13  36
BRANCH  14  38
ATOM     38  O   UNL     1      27.114  32.349  17.128  1.00  0.00    -0.387 OA
ATOM     39  H   UNL     1      26.808  33.262  17.005  1.00  0.00     0.211 HD
ENDBRANCH  14  38
BRANCH  15  40
ATOM     40  O   UNL     1      29.123  33.922  16.563  1.00  0.00    -0.387 OA
ATOM     41  H   UNL     1      30.119  33.947  16.654  1.00  0.00     0.211 HD
ENDBRANCH  15  40
ENDBRANCH   9  10
ENDBRANCH   8   9
ENDBRANCH   3   8
BRANCH   3  42
ATOM     42  C   UNL     1      33.436  34.966  13.594  1.00  0.00     0.364 C 
ATOM     43  O   UNL     1      33.243  35.544  12.471  1.00  0.00    -0.246 OA
BRANCH  42  44
ATOM     44  O   UNL     1      34.511  34.102  13.625  1.00  0.00    -0.477 OA
ATOM     45  H   UNL     1      34.355  33.100  13.669  1.00  0.00     0.296 HD
ENDBRANCH  42  44
ENDBRANCH   3  42
BRANCH   6  46
ATOM     46  O   UNL     1      32.605  34.980  18.095  1.00  0.00    -0.391 OA
ATOM     47  H   UNL     1      33.381  34.365  18.048  1.00  0.00     0.211 HD
ENDBRANCH   6  46
BRANCH   7  48
ATOM     48  N   UNL     1      31.048  37.565  17.752  1.00  0.00    -0.348 N 
ATOM     49  C   UNL     1      29.670  37.474  18.166  1.00  0.00     0.217 C 
ATOM     50  H   UNL     1      31.617  38.286  18.231  1.00  0.00     0.163 HD
ATOM     51  C   UNL     1      29.120  38.373  19.211  1.00  0.00     0.114 C 
ATOM     52  O   UNL     1      28.886  36.630  17.656  1.00  0.00    -0.275 OA
ENDBRANCH   7  48
ENDBRANCH   1   2
BRANCH   1  53
ATOM     53  O   UNL     1      31.530  39.650  15.482  1.00  0.00    -0.388 OA
ATOM     54  H   UNL     1      30.827  40.262  15.868  1.00  0.00     0.211 HD
ENDBRANCH   1  53
BRANCH   1  55
ATOM     55  C   UNL     1      30.800  38.484  13.566  1.00  0.00     0.165 C 
BRANCH  55  56
ATOM     56  O   UNL     1      31.333  39.680  13.073  1.00  0.00    -0.388 OA
ATOM     57  H   UNL     1      32.262  39.506  12.786  1.00  0.00     0.211 HD
ENDBRANCH  55  56
BRANCH  55  58
ATOM     58  C   UNL     1      29.427  38.295  13.035  1.00  0.00     0.154 C 
BRANCH  58  59
ATOM     59  N   UNL     1      28.849  37.030  13.335  1.00  0.00    -0.319 N 
ATOM     60  C   UNL     1      28.197  36.291  12.291  1.00  0.00     0.407 C 
ATOM     61  H   UNL     1      28.877  36.633  14.274  1.00  0.00     0.167 HD
ATOM     62  O   UNL     1      28.124  36.744  11.131  1.00  0.00    -0.225 OA
BRANCH  60  63
ATOM     63  O   UNL     1      27.646  35.059  12.606  1.00  0.00    -0.443 OA
BRANCH  63  64
ATOM     64  C   UNL     1      26.233  34.875  12.415  1.00  0.00     0.294 C 
BRANCH  64  65
ATOM     65  C   UNL     1      25.683  34.344  13.669  1.00  0.00     0.120 A 
ATOM     66  C   UNL     1      25.043  33.104  13.772  1.00  0.00     0.138 A 
ATOM     67  N   UNL     1      25.655  34.854  14.897  1.00  0.00    -0.132 NA
ATOM     68  N   UNL     1      24.662  32.921  15.048  1.00  0.00    -0.251 N 
ATOM     69  N   UNL     1      25.041  33.986  15.703  1.00  0.00    -0.067 NA
BRANCH  68  70
ATOM     70  C   UNL     1      23.967  31.776  15.606  1.00  0.00     0.161 C 
BRANCH  70  71
ATOM     71  C   UNL     1      24.762  30.538  15.251  1.00  0.00     0.108 C 
BRANCH  71  72
ATOM     72  N   UNL     1      23.996  29.551  14.547  1.00  0.00    -0.302 NA
BRANCH  72  73
ATOM     73  C   UNL     1      23.833  29.876  13.157  1.00  0.00     0.081 C 
ATOM     74  C   UNL     1      23.167  28.696  12.459  1.00  0.00     0.021 C 
ENDBRANCH  72  73
BRANCH  72  75
ATOM     75  C   UNL     1      22.769  29.217  15.201  1.00  0.00     0.081 C 
ATOM     76  C   UNL     1      22.953  28.033  16.129  1.00  0.00     0.021 C 
ENDBRANCH  72  75
ENDBRANCH  71  72
ENDBRANCH  70  71
ENDBRANCH  68  70
ENDBRANCH  64  65
ENDBRANCH  63  64
ENDBRANCH  60  63
ENDBRANCH  58  59
ENDBRANCH  55  58
ENDBRANCH   1  55
TORSDOF 34
BEGIN_RES LYS A 131
REMARK  4 active torsions:
REMARK  status: ('A' for Active; 'I' for Inactive)
REMARK    1  A    between atoms: CA   and  CB  
REMARK    2  A    between atoms: CB   and  CG  
REMARK    3  A    between atoms: CG   and  CD  
REMARK    4  A    between atoms: CD   and  CE  
ROOT
ATOM      1  CA  LYS A 131      29.867  25.555  16.977  1.00 20.52     0.186 C 
ENDROOT
BRANCH   1   2
ATOM      2  CB  LYS A 131      28.345  25.722  17.026  1.00 20.94     0.034 C 
BRANCH   2   3
ATOM      3  CG  LYS A 131      27.602  24.399  16.924  1.00 22.96     0.005 C 
BRANCH   3   4
ATOM      4  CD  LYS A 131      26.153  24.532  17.303  1.00 24.33     0.041 C 
BRANCH   4   5
ATOM      5  CE  LYS A 131      25.789  23.447  18.312  1.00 26.91     0.338 C 
ATOM      6  NZ  LYS A 131      24.574  22.719  17.875  1.00 27.40     0.618 N 
ENDBRANCH   4   5
ENDBRANCH   3   4
ENDBRANCH   2   3
ENDBRANCH   1   2
END_RES LYS A 131
BEGIN_RES LYS A 135
REMARK  4 active torsions:
REMARK  status: ('A' for Active; 'I' for Inactive)
REMARK    5  A    between atoms: CA   and  CB  
REMARK    6  A    between atoms: CB   and  CG  
REMARK    7  A    between atoms: CG   and  CD  
REMARK    8  A    between atoms: CD   and  CE  
ROOT
ATOM      7  CA  LYS A 135      33.193  34.663   9.290  1.00 25.02     0.186 C 
ENDROOT
BRANCH   7   8
ATOM      8  CB  LYS A 135      32.060  35.360  10.034  1.00 26.63     0.034 C 
BRANCH   8   9
ATOM      9  CG  LYS A 135      30.810  35.527   9.209  1.00 29.45     0.005 C 
BRANCH   9  10
ATOM     10  CD  LYS A 135      30.093  34.196   9.045  1.00 32.00     0.041 C 
BRANCH  10  11
ATOM     11  CE  LYS A 135      28.661  34.414   8.597  1.00 34.25     0.338 C 
ATOM     12  NZ  LYS A 135      27.710  33.643   9.447  1.00 35.99     0.618 N 
ENDBRANCH  10  11
ENDBRANCH   9  10
ENDBRANCH   8   9
ENDBRANCH   7   8
END_RES LYS A 135
