REMARK VINA RESULT:    -4.455      5.746     11.578
REMARK INTER + INTRA:         -22.894
REMARK INTER:                 -12.688
REMARK INTRA:                 -10.206
REMARK UNBOUND:               -11.408
REMARK SMILES CC(=O)N[C@@H]1[C@@H](O)C[C@](OC[C@H]2O[C@@H](O[C@H]3[C@H](O)[C@@H](O)[C@H](OCCN=[N+]=[N-])O[C@@H]3CO)[C@H](O)[C@@H](O)[C@H]2O)(C(=O)O)O[C@H]1C(O)[C@H](O)CNC(=O)OCc1cn(CS(=O)(=O)c2ccccc2)nn1
REMARK SMILES IDX 9 1 8 2 6 3 5 4 42 5 41 6 10 7 11 8 12 9 14 10 13 11 32 12
REMARK SMILES IDX 34 13 36 14 15 15 16 16 29 17 28 18 21 19 17 20 19 21 30 22
REMARK SMILES IDX 31 23 22 25 23 26 24 27 25 28 26 29 27 30 18 31 20 33 33 35
REMARK SMILES IDX 35 37 37 39 38 41 39 42 40 43 7 45 43 47 44 48 45 50 46 51
REMARK SMILES IDX 47 53 48 54 49 55 50 57 51 58 52 59 53 60 54 61 67 62 55 63
REMARK SMILES IDX 66 64 56 65 57 66 58 67 59 68 60 69 61 70 65 71 62 72 64 73
REMARK SMILES IDX 63 74 4 75 2 76 1 78 3 79
REMARK H PARENT 31 24 18 32 20 34 33 36 35 38 37 40 40 44 7 46 44 49 46 52
REMARK H PARENT 48 56 4 77
REMARK Flexibility Score: inf
ROOT
ATOM      1  C   UNL     1      25.994  36.053  11.441  1.00  0.00     0.272 C 
ATOM      2  C   UNL     1      25.843  37.415  11.985  1.00  0.00     0.113 C 
ATOM      3  C   UNL     1      26.899  38.407  11.539  1.00  0.00     0.145 C 
ATOM      4  C   UNL     1      28.219  37.760  11.775  1.00  0.00     0.142 C 
ATOM      5  C   UNL     1      28.313  36.370  11.212  1.00  0.00     0.178 C 
ATOM      6  O   UNL     1      27.279  35.535  11.438  1.00  0.00    -0.332 OA
ENDROOT
BRANCH   1   7
ATOM      7  O   UNL     1      25.340  35.860  10.243  1.00  0.00    -0.338 OA
BRANCH   7   8
ATOM      8  C   UNL     1      24.095  36.385  10.120  1.00  0.00     0.199 C 
BRANCH   8   9
ATOM      9  C   UNL     1      23.636  36.364   8.646  1.00  0.00     0.179 C 
ATOM     10  C   UNL     1      21.535  37.362   8.208  1.00  0.00     0.282 C 
ATOM     11  O   UNL     1      22.297  36.315   8.643  1.00  0.00    -0.341 OA
ATOM     12  C   UNL     1      22.191  38.668   8.452  1.00  0.00     0.202 C 
ATOM     13  C   UNL     1      23.588  38.708   7.911  1.00  0.00     0.179 C 
ATOM     14  C   UNL     1      24.256  37.398   7.801  1.00  0.00     0.177 C 
BRANCH  10  15
ATOM     15  O   UNL     1      20.317  37.231   8.895  1.00  0.00    -0.341 OA
BRANCH  15  16
ATOM     16  C   UNL     1      20.244  36.242   9.816  1.00  0.00     0.184 C 
ATOM     17  C   UNL     1      19.134  35.271   9.542  1.00  0.00     0.178 C 
ATOM     18  O   UNL     1      19.419  34.109  10.252  1.00  0.00    -0.341 OA
ATOM     19  C   UNL     1      19.779  34.297  11.557  1.00  0.00     0.281 C 
ATOM     20  C   UNL     1      19.885  36.802  11.215  1.00  0.00     0.180 C 
ATOM     21  C   UNL     1      19.580  35.658  12.100  1.00  0.00     0.202 C 
BRANCH  17  22
ATOM     22  C   UNL     1      18.912  34.919   8.114  1.00  0.00     0.191 C 
BRANCH  22  23
ATOM     23  O   UNL     1      20.093  34.426   7.572  1.00  0.00    -0.394 OA
ATOM     24  H   UNL     1      20.223  34.787   6.665  1.00  0.00     0.210 HD
ENDBRANCH  22  23
ENDBRANCH  17  22
BRANCH  19  25
ATOM     25  O   UNL     1      21.128  33.964  11.651  1.00  0.00    -0.350 OA
BRANCH  25  26
ATOM     26  C   UNL     1      21.504  33.709  12.991  1.00  0.00     0.169 C 
BRANCH  26  27
ATOM     27  C   UNL     1      21.668  32.217  13.182  1.00  0.00     0.119 C 
BRANCH  27  28
ATOM     28  N   UNL     1      23.095  31.917  13.110  1.00  0.00    -0.092 NA
ATOM     29  N   UNL     1      23.425  30.758  12.784  1.00  0.00     0.001 N 
ATOM     30  N   UNL     1      23.680  29.542  12.715  1.00  0.00    -0.003 NA
ENDBRANCH  27  28
ENDBRANCH  26  27
ENDBRANCH  25  26
ENDBRANCH  19  25
BRANCH  20  31
ATOM     31  O   UNL     1      20.941  37.543  11.720  1.00  0.00    -0.387 OA
ATOM     32  H   UNL     1      21.366  38.025  10.965  1.00  0.00     0.211 HD
ENDBRANCH  20  31
BRANCH  21  33
ATOM     33  O   UNL     1      18.215  35.757  12.471  1.00  0.00    -0.385 OA
ATOM     34  H   UNL     1      18.060  35.482  13.399  1.00  0.00     0.211 HD
ENDBRANCH  21  33
ENDBRANCH  15  16
ENDBRANCH  10  15
BRANCH  12  35
ATOM     35  O   UNL     1      21.517  39.718   7.750  1.00  0.00    -0.385 OA
ATOM     36  H   UNL     1      21.885  40.551   8.131  1.00  0.00     0.211 HD
ENDBRANCH  12  35
BRANCH  13  37
ATOM     37  O   UNL     1      24.381  39.624   8.646  1.00  0.00    -0.387 OA
ATOM     38  H   UNL     1      24.952  39.118   9.293  1.00  0.00     0.211 HD
ENDBRANCH  13  37
BRANCH  14  39
ATOM     39  O   UNL     1      25.630  37.556   8.059  1.00  0.00    -0.387 OA
ATOM     40  H   UNL     1      26.092  37.632   7.185  1.00  0.00     0.211 HD
ENDBRANCH  14  39
ENDBRANCH   8   9
ENDBRANCH   7   8
ENDBRANCH   1   7
BRANCH   1  41
ATOM     41  C   UNL     1      25.307  35.147  12.450  1.00  0.00     0.364 C 
ATOM     42  O   UNL     1      24.773  35.676  13.438  1.00  0.00    -0.246 OA
BRANCH  41  43
ATOM     43  O   UNL     1      25.282  33.775  12.256  1.00  0.00    -0.477 OA
ATOM     44  H   UNL     1      26.121  33.286  11.912  1.00  0.00     0.296 HD
ENDBRANCH  41  43
ENDBRANCH   1  41
BRANCH   3  45
ATOM     45  O   UNL     1      26.651  38.770  10.244  1.00  0.00    -0.391 OA
ATOM     46  H   UNL     1      26.074  39.583  10.262  1.00  0.00     0.211 HD
ENDBRANCH   3  45
BRANCH   5  47
ATOM     47  C   UNL     1      28.818  36.350   9.788  1.00  0.00     0.176 C 
BRANCH  47  48
ATOM     48  O   UNL     1      29.948  37.138   9.584  1.00  0.00    -0.388 OA
ATOM     49  H   UNL     1      30.542  37.200  10.346  1.00  0.00     0.211 HD
ENDBRANCH  47  48
BRANCH  47  50
ATOM     50  C   UNL     1      29.088  34.942   9.278  1.00  0.00     0.165 C 
BRANCH  50  51
ATOM     51  O   UNL     1      30.368  34.781   8.800  1.00  0.00    -0.388 OA
ATOM     52  H   UNL     1      31.063  35.239   9.297  1.00  0.00     0.211 HD
ENDBRANCH  50  51
BRANCH  50  53
ATOM     53  C   UNL     1      28.069  34.424   8.335  1.00  0.00     0.154 C 
BRANCH  53  54
ATOM     54  N   UNL     1      27.487  35.354   7.416  1.00  0.00    -0.319 N 
ATOM     55  C   UNL     1      28.099  35.884   6.257  1.00  0.00     0.407 C 
ATOM     56  H   UNL     1      26.494  35.684   7.621  1.00  0.00     0.167 HD
ATOM     57  O   UNL     1      29.253  35.550   5.927  1.00  0.00    -0.225 OA
BRANCH  55  58
ATOM     58  O   UNL     1      27.388  36.789   5.486  1.00  0.00    -0.443 OA
BRANCH  58  59
ATOM     59  C   UNL     1      27.882  38.021   5.050  1.00  0.00     0.294 C 
BRANCH  59  60
ATOM     60  C   UNL     1      28.444  38.764   6.194  1.00  0.00     0.120 A 
ATOM     61  C   UNL     1      29.522  39.627   6.102  1.00  0.00     0.139 A 
ATOM     62  N   UNL     1      28.078  38.790   7.485  1.00  0.00    -0.132 NA
ATOM     63  N   UNL     1      29.777  40.145   7.317  1.00  0.00    -0.237 N 
ATOM     64  N   UNL     1      28.877  39.610   8.136  1.00  0.00    -0.066 NA
BRANCH  63  65
ATOM     65  C   UNL     1      30.807  41.087   7.656  1.00  0.00     0.287 C 
BRANCH  65  66
ATOM     66  S   UNL     1      32.316  40.143   7.871  1.00  0.00     0.198 S 
ATOM     67  O   UNL     1      32.847  39.694   6.563  1.00  0.00    -0.222 OA
ATOM     68  O   UNL     1      31.970  38.966   8.768  1.00  0.00    -0.222 OA
BRANCH  66  69
ATOM     69  C   UNL     1      33.461  41.174   8.689  1.00  0.00     0.069 A 
ATOM     70  C   UNL     1      34.780  41.255   8.300  1.00  0.00     0.020 A 
ATOM     71  C   UNL     1      33.076  41.949   9.761  1.00  0.00     0.020 A 
ATOM     72  C   UNL     1      35.681  42.064   8.943  1.00  0.00     0.001 A 
ATOM     73  C   UNL     1      33.965  42.763  10.415  1.00  0.00     0.001 A 
ATOM     74  C   UNL     1      35.273  42.819  10.001  1.00  0.00     0.000 A 
ENDBRANCH  66  69
ENDBRANCH  65  66
ENDBRANCH  63  65
ENDBRANCH  59  60
ENDBRANCH  58  59
ENDBRANCH  55  58
ENDBRANCH  53  54
ENDBRANCH  50  53
ENDBRANCH  47  50
ENDBRANCH   5  47
BRANCH   4  75
ATOM     75  N   UNL     1      28.431  37.652  13.213  1.00  0.00    -0.348 N 
ATOM     76  C   UNL     1      29.554  38.249  13.851  1.00  0.00     0.217 C 
ATOM     77  H   UNL     1      27.759  37.121  13.848  1.00  0.00     0.163 HD
ATOM     78  C   UNL     1      29.726  38.107  15.341  1.00  0.00     0.114 C 
ATOM     79  O   UNL     1      30.408  38.899  13.182  1.00  0.00    -0.275 OA
ENDBRANCH   4  75
TORSDOF 32
BEGIN_RES LYS A 131
REMARK  4 active torsions:
REMARK  status: ('A' for Active; 'I' for Inactive)
REMARK    1  A    between atoms: CA   and  CB  
REMARK    2  A    between atoms: CB   and  CG  
REMARK    3  A    between atoms: CG   and  CD  
REMARK    4  A    between atoms: CD   and  CE  
ROOT
ATOM      1  CA  LYS A 131      29.867  25.555  16.977  1.00 20.52     0.186 C 
ENDROOT
BRANCH   1   2
ATOM      2  CB  LYS A 131      28.345  25.722  17.026  1.00 20.94     0.034 C 
BRANCH   2   3
ATOM      3  CG  LYS A 131      27.601  24.402  16.892  1.00 22.96     0.005 C 
BRANCH   3   4
ATOM      4  CD  LYS A 131      26.509  24.261  17.916  1.00 24.33     0.041 C 
BRANCH   4   5
ATOM      5  CE  LYS A 131      25.184  24.718  17.314  1.00 26.91     0.338 C 
ATOM      6  NZ  LYS A 131      24.337  23.549  16.977  1.00 27.40     0.618 N 
ENDBRANCH   4   5
ENDBRANCH   3   4
ENDBRANCH   2   3
ENDBRANCH   1   2
END_RES LYS A 131
BEGIN_RES LYS A 135
REMARK  4 active torsions:
REMARK  status: ('A' for Active; 'I' for Inactive)
REMARK    5  A    between atoms: CA   and  CB  
REMARK    6  A    between atoms: CB   and  CG  
REMARK    7  A    between atoms: CG   and  CD  
REMARK    8  A    between atoms: CD   and  CE  
ROOT
ATOM      7  CA  LYS A 135      33.193  34.663   9.290  1.00 25.02     0.186 C 
ENDROOT
BRANCH   7   8
ATOM      8  CB  LYS A 135      32.060  35.360  10.034  1.00 26.63     0.034 C 
BRANCH   8   9
ATOM      9  CG  LYS A 135      32.536  36.341  11.074  1.00 29.45     0.005 C 
BRANCH   9  10
ATOM     10  CD  LYS A 135      32.098  35.905  12.464  1.00 32.00     0.041 C 
BRANCH  10  11
ATOM     11  CE  LYS A 135      31.071  34.792  12.373  1.00 34.25     0.338 C 
ATOM     12  NZ  LYS A 135      30.416  34.559  13.690  1.00 35.99     0.618 N 
ENDBRANCH  10  11
ENDBRANCH   9  10
ENDBRANCH   8   9
ENDBRANCH   7   8
END_RES LYS A 135
