REMARK VINA RESULT:    -4.851      2.457      5.138
REMARK INTER + INTRA:         -23.078
REMARK INTER:                 -10.934
REMARK INTRA:                 -12.143
REMARK UNBOUND:               -10.853
REMARK SMILES CC(=O)N[C@@H]1[C@@H](O)C[C@](OC[C@H]2O[C@@H](O[C@H]3[C@H](O)[C@@H](O)[C@H](OCCN=[N+]=[N-])O[C@@H]3CO)[C@H](O)[C@@H](O)[C@H]2O)(C(=O)O)O[C@H]1C(O)[C@H](O)CNC(=O)OCc1cn(-c2ncn3c2c(=O)n(C(C)C)c2ccccc23)nn1
REMARK SMILES IDX 9 1 8 2 6 3 5 4 42 5 41 6 10 7 11 8 12 9 14 10 13 11 32 12
REMARK SMILES IDX 34 13 36 14 15 15 16 16 29 17 28 18 21 19 17 20 19 21 30 22
REMARK SMILES IDX 31 23 22 25 23 26 24 27 25 28 26 29 27 30 18 31 20 33 33 35
REMARK SMILES IDX 35 37 37 39 38 41 39 42 40 43 7 45 43 47 44 48 45 50 46 51
REMARK SMILES IDX 47 53 48 54 49 55 50 57 51 58 52 59 53 60 54 61 74 62 55 63
REMARK SMILES IDX 73 64 56 65 57 66 60 67 58 68 59 69 61 70 72 71 63 72 62 73
REMARK SMILES IDX 71 74 67 75 70 76 68 77 69 78 64 79 65 80 66 81 4 82 2 83
REMARK SMILES IDX 1 85 3 86
REMARK H PARENT 31 24 18 32 20 34 33 36 35 38 37 40 40 44 7 46 44 49 46 52
REMARK H PARENT 48 56 4 84
REMARK Flexibility Score: inf
ROOT
ATOM      1  C   UNL     1      23.950  35.520  13.317  1.00  0.00     0.272 C 
ATOM      2  C   UNL     1      23.629  35.003  14.693  1.00  0.00     0.113 C 
ATOM      3  C   UNL     1      24.758  35.115  15.628  1.00  0.00     0.145 C 
ATOM      4  C   UNL     1      25.488  36.428  15.581  1.00  0.00     0.142 C 
ATOM      5  C   UNL     1      25.428  37.099  14.257  1.00  0.00     0.178 C 
ATOM      6  O   UNL     1      24.371  36.879  13.479  1.00  0.00    -0.332 OA
ENDROOT
BRANCH   1   7
ATOM      7  O   UNL     1      22.749  35.685  12.683  1.00  0.00    -0.338 OA
BRANCH   7   8
ATOM      8  C   UNL     1      22.498  35.540  11.413  1.00  0.00     0.199 C 
BRANCH   8   9
ATOM      9  C   UNL     1      22.500  36.616  10.382  1.00  0.00     0.179 C 
ATOM     10  C   UNL     1      24.007  37.473   8.827  1.00  0.00     0.282 C 
ATOM     11  O   UNL     1      23.815  36.544   9.816  1.00  0.00    -0.341 OA
ATOM     12  C   UNL     1      23.099  37.243   7.633  1.00  0.00     0.202 C 
ATOM     13  C   UNL     1      21.651  37.130   8.074  1.00  0.00     0.179 C 
ATOM     14  C   UNL     1      21.582  36.180   9.239  1.00  0.00     0.177 C 
BRANCH  10  15
ATOM     15  O   UNL     1      25.321  37.339   8.393  1.00  0.00    -0.341 OA
BRANCH  15  16
ATOM     16  C   UNL     1      25.874  38.558   8.100  1.00  0.00     0.184 C 
ATOM     17  C   UNL     1      27.052  38.399   7.211  1.00  0.00     0.178 C 
ATOM     18  O   UNL     1      28.281  38.416   7.820  1.00  0.00    -0.341 OA
ATOM     19  C   UNL     1      28.310  38.030   9.135  1.00  0.00     0.281 C 
ATOM     20  C   UNL     1      26.185  39.375   9.338  1.00  0.00     0.180 C 
ATOM     21  C   UNL     1      27.396  38.848  10.014  1.00  0.00     0.202 C 
BRANCH  17  22
ATOM     22  C   UNL     1      27.023  39.426   6.099  1.00  0.00     0.191 C 
BRANCH  22  23
ATOM     23  O   UNL     1      25.667  39.816   5.984  1.00  0.00    -0.394 OA
ATOM     24  H   UNL     1      25.669  40.800   5.952  1.00  0.00     0.210 HD
ENDBRANCH  22  23
ENDBRANCH  17  22
BRANCH  19  25
ATOM     25  O   UNL     1      29.611  38.272   9.610  1.00  0.00    -0.350 OA
BRANCH  25  26
ATOM     26  C   UNL     1      30.571  38.278   8.635  1.00  0.00     0.169 C 
BRANCH  26  27
ATOM     27  C   UNL     1      31.607  39.351   8.743  1.00  0.00     0.119 C 
BRANCH  27  28
ATOM     28  N   UNL     1      32.184  39.492   7.397  1.00  0.00    -0.092 NA
ATOM     29  N   UNL     1      33.086  40.256   7.127  1.00  0.00     0.001 N 
ATOM     30  N   UNL     1      33.786  41.178   6.696  1.00  0.00    -0.003 NA
ENDBRANCH  27  28
ENDBRANCH  26  27
ENDBRANCH  25  26
ENDBRANCH  19  25
BRANCH  20  31
ATOM     31  O   UNL     1      26.287  40.723   8.972  1.00  0.00    -0.387 OA
ATOM     32  H   UNL     1      25.461  40.906   8.435  1.00  0.00     0.211 HD
ENDBRANCH  20  31
BRANCH  21  33
ATOM     33  O   UNL     1      26.963  38.023  11.068  1.00  0.00    -0.385 OA
ATOM     34  H   UNL     1      27.025  38.485  11.944  1.00  0.00     0.211 HD
ENDBRANCH  21  33
ENDBRANCH  15  16
ENDBRANCH  10  15
BRANCH  12  35
ATOM     35  O   UNL     1      23.171  38.380   6.831  1.00  0.00    -0.385 OA
ATOM     36  H   UNL     1      22.285  38.668   6.508  1.00  0.00     0.211 HD
ENDBRANCH  12  35
BRANCH  13  37
ATOM     37  O   UNL     1      20.962  36.509   7.016  1.00  0.00    -0.387 OA
ATOM     38  H   UNL     1      20.168  36.019   7.366  1.00  0.00     0.211 HD
ENDBRANCH  13  37
BRANCH  14  39
ATOM     39  O   UNL     1      22.069  34.938   8.754  1.00  0.00    -0.387 OA
ATOM     40  H   UNL     1      22.935  35.068   8.298  1.00  0.00     0.211 HD
ENDBRANCH  14  39
ENDBRANCH   8   9
ENDBRANCH   7   8
ENDBRANCH   1   7
BRANCH   1  41
ATOM     41  C   UNL     1      25.023  34.815  12.631  1.00  0.00     0.364 C 
ATOM     42  O   UNL     1      25.340  33.645  12.842  1.00  0.00    -0.246 OA
BRANCH  41  43
ATOM     43  O   UNL     1      25.786  35.469  11.645  1.00  0.00    -0.477 OA
ATOM     44  H   UNL     1      25.421  36.305  11.207  1.00  0.00     0.296 HD
ENDBRANCH  41  43
ENDBRANCH   1  41
BRANCH   3  45
ATOM     45  O   UNL     1      24.229  34.927  16.932  1.00  0.00    -0.391 OA
ATOM     46  H   UNL     1      24.590  34.107  17.339  1.00  0.00     0.211 HD
ENDBRANCH   3  45
BRANCH   5  47
ATOM     47  C   UNL     1      25.661  38.596  14.361  1.00  0.00     0.176 C 
BRANCH  47  48
ATOM     48  O   UNL     1      25.720  38.968  15.685  1.00  0.00    -0.388 OA
ATOM     49  H   UNL     1      24.931  39.485  15.988  1.00  0.00     0.211 HD
ENDBRANCH  47  48
BRANCH  47  50
ATOM     50  C   UNL     1      24.676  39.430  13.619  1.00  0.00     0.165 C 
BRANCH  50  51
ATOM     51  O   UNL     1      24.602  39.233  12.266  1.00  0.00    -0.388 OA
ATOM     52  H   UNL     1      23.688  39.108  11.922  1.00  0.00     0.211 HD
ENDBRANCH  50  51
BRANCH  50  53
ATOM     53  C   UNL     1      24.768  40.893  13.928  1.00  0.00     0.154 C 
BRANCH  53  54
ATOM     54  N   UNL     1      26.143  41.374  13.747  1.00  0.00    -0.319 N 
ATOM     55  C   UNL     1      26.608  41.903  12.532  1.00  0.00     0.407 C 
ATOM     56  H   UNL     1      26.824  41.325  14.564  1.00  0.00     0.167 HD
ATOM     57  O   UNL     1      25.858  41.976  11.525  1.00  0.00    -0.225 OA
BRANCH  55  58
ATOM     58  O   UNL     1      27.936  42.349  12.470  1.00  0.00    -0.443 OA
BRANCH  58  59
ATOM     59  C   UNL     1      28.866  41.955  13.440  1.00  0.00     0.294 C 
BRANCH  59  60
ATOM     60  C   UNL     1      29.448  40.589  13.159  1.00  0.00     0.121 A 
ATOM     61  C   UNL     1      28.943  39.384  13.592  1.00  0.00     0.146 A 
ATOM     62  N   UNL     1      30.542  40.285  12.442  1.00  0.00    -0.131 NA
ATOM     63  N   UNL     1      29.737  38.371  13.133  1.00  0.00    -0.200 N 
ATOM     64  N   UNL     1      30.692  38.963  12.443  1.00  0.00    -0.060 NA
BRANCH  63  65
ATOM     65  C   UNL     1      29.530  36.979  13.373  1.00  0.00     0.186 A 
ATOM     66  N   UNL     1      28.643  36.210  12.719  1.00  0.00    -0.216 NA
ATOM     67  C   UNL     1      30.130  36.136  14.275  1.00  0.00     0.158 A 
ATOM     68  C   UNL     1      28.692  34.951  13.195  1.00  0.00     0.207 A 
ATOM     69  N   UNL     1      29.620  34.883  14.175  1.00  0.00    -0.291 N 
ATOM     70  C   UNL     1      31.110  36.395  15.199  1.00  0.00     0.279 A 
ATOM     71  C   UNL     1      30.052  33.882  14.962  1.00  0.00     0.071 A 
ATOM     72  N   UNL     1      31.567  35.405  16.008  1.00  0.00    -0.302 N 
ATOM     73  O   UNL     1      31.606  37.558  15.314  1.00  0.00    -0.267 OA
ATOM     74  C   UNL     1      29.535  32.619  14.866  1.00  0.00     0.029 A 
ATOM     75  C   UNL     1      31.037  34.168  15.882  1.00  0.00     0.068 A 
ATOM     76  C   UNL     1      29.983  31.576  15.692  1.00  0.00     0.002 A 
ATOM     77  C   UNL     1      31.474  33.138  16.693  1.00  0.00     0.028 A 
ATOM     78  C   UNL     1      30.965  31.848  16.615  1.00  0.00     0.002 A 
BRANCH  72  79
ATOM     79  C   UNL     1      32.619  35.678  16.988  1.00  0.00     0.085 C 
ATOM     80  C   UNL     1      33.947  35.975  16.372  1.00  0.00     0.031 C 
ATOM     81  C   UNL     1      32.179  36.669  18.036  1.00  0.00     0.031 C 
ENDBRANCH  72  79
ENDBRANCH  63  65
ENDBRANCH  59  60
ENDBRANCH  58  59
ENDBRANCH  55  58
ENDBRANCH  53  54
ENDBRANCH  50  53
ENDBRANCH  47  50
ENDBRANCH   5  47
BRANCH   4  82
ATOM     82  N   UNL     1      26.843  36.213  16.043  1.00  0.00    -0.348 N 
ATOM     83  C   UNL     1      27.238  36.362  17.391  1.00  0.00     0.217 C 
ATOM     84  H   UNL     1      27.586  35.933  15.358  1.00  0.00     0.163 HD
ATOM     85  C   UNL     1      28.640  36.139  17.854  1.00  0.00     0.114 C 
ATOM     86  O   UNL     1      26.352  36.701  18.230  1.00  0.00    -0.275 OA
ENDBRANCH   4  82
TORSDOF 31
BEGIN_RES LYS A 131
REMARK  4 active torsions:
REMARK  status: ('A' for Active; 'I' for Inactive)
REMARK    1  A    between atoms: CA   and  CB  
REMARK    2  A    between atoms: CB   and  CG  
REMARK    3  A    between atoms: CG   and  CD  
REMARK    4  A    between atoms: CD   and  CE  
ROOT
ATOM      1  CA  LYS A 131      29.867  25.555  16.977  1.00 20.52     0.186 C 
ENDROOT
BRANCH   1   2
ATOM      2  CB  LYS A 131      28.345  25.722  17.026  1.00 20.94     0.034 C 
BRANCH   2   3
ATOM      3  CG  LYS A 131      27.601  24.403  16.887  1.00 22.96     0.005 C 
BRANCH   3   4
ATOM      4  CD  LYS A 131      26.687  24.143  18.052  1.00 24.33     0.041 C 
BRANCH   4   5
ATOM      5  CE  LYS A 131      26.059  25.455  18.509  1.00 26.91     0.338 C 
ATOM      6  NZ  LYS A 131      24.868  25.775  17.687  1.00 27.40     0.618 N 
ENDBRANCH   4   5
ENDBRANCH   3   4
ENDBRANCH   2   3
ENDBRANCH   1   2
END_RES LYS A 131
BEGIN_RES LYS A 135
REMARK  4 active torsions:
REMARK  status: ('A' for Active; 'I' for Inactive)
REMARK    5  A    between atoms: CA   and  CB  
REMARK    6  A    between atoms: CB   and  CG  
REMARK    7  A    between atoms: CG   and  CD  
REMARK    8  A    between atoms: CD   and  CE  
ROOT
ATOM      7  CA  LYS A 135      33.193  34.663   9.290  1.00 25.02     0.186 C 
ENDROOT
BRANCH   7   8
ATOM      8  CB  LYS A 135      32.060  35.360  10.034  1.00 26.63     0.034 C 
BRANCH   8   9
ATOM      9  CG  LYS A 135      30.729  34.667   9.891  1.00 29.45     0.005 C 
BRANCH   9  10
ATOM     10  CD  LYS A 135      30.359  34.515   8.423  1.00 32.00     0.041 C 
BRANCH  10  11
ATOM     11  CE  LYS A 135      28.853  34.549   8.248  1.00 34.25     0.338 C 
ATOM     12  NZ  LYS A 135      28.477  35.221   6.973  1.00 35.99     0.618 N 
ENDBRANCH  10  11
ENDBRANCH   9  10
ENDBRANCH   8   9
ENDBRANCH   7   8
END_RES LYS A 135
