REMARK VINA RESULT:    -4.151      2.984      6.724
REMARK INTER + INTRA:         -21.708
REMARK INTER:                 -10.583
REMARK INTRA:                 -11.125
REMARK UNBOUND:               -11.125
REMARK SMILES CC(=O)N[C@@H]1[C@@H](O)C[C@](OC[C@H]2O[C@@H](O[C@H]3[C@H](O)[C@@H](O)[C@H](OCCN=[N+]=[N-])O[C@@H]3CO)[C@H](O)[C@@H](O)[C@H]2O)(C(=O)O)O[C@H]1C(O)[C@H](O)CNC(=O)OCc1cn([C@@H](C)C(=O)O)nn1
REMARK SMILES IDX 9 1 8 2 6 3 5 4 42 5 41 6 10 7 11 8 12 9 14 10 13 11 32 12
REMARK SMILES IDX 34 13 36 14 15 15 16 16 29 17 28 18 21 19 17 20 19 21 30 22
REMARK SMILES IDX 31 23 22 25 23 26 24 27 25 28 26 29 27 30 18 31 20 33 33 35
REMARK SMILES IDX 35 37 37 39 38 41 39 42 40 43 7 45 43 47 44 48 45 50 46 51
REMARK SMILES IDX 47 53 48 54 49 55 50 57 51 58 52 59 53 60 54 61 62 62 55 63
REMARK SMILES IDX 61 64 56 65 57 66 58 67 59 68 60 69 4 71 2 72 1 74 3 75
REMARK H PARENT 31 24 18 32 20 34 33 36 35 38 37 40 40 44 7 46 44 49 46 52
REMARK H PARENT 48 56 60 70 4 73
REMARK Flexibility Score: inf
ROOT
ATOM      1  C   UNL     1      27.749  33.831  17.224  1.00  0.00     0.272 C 
ATOM      2  C   UNL     1      26.325  33.435  17.270  1.00  0.00     0.113 C 
ATOM      3  C   UNL     1      26.273  32.022  17.804  1.00  0.00     0.145 C 
ATOM      4  C   UNL     1      26.809  31.179  16.592  1.00  0.00     0.142 C 
ATOM      5  C   UNL     1      27.963  31.823  15.990  1.00  0.00     0.178 C 
ATOM      6  O   UNL     1      28.570  32.836  16.683  1.00  0.00    -0.332 OA
ENDROOT
BRANCH   1   7
ATOM      7  O   UNL     1      28.222  34.252  18.429  1.00  0.00    -0.338 OA
BRANCH   7   8
ATOM      8  C   UNL     1      29.539  34.476  18.583  1.00  0.00     0.199 C 
BRANCH   8   9
ATOM      9  C   UNL     1      30.042  33.922  19.940  1.00  0.00     0.179 C 
ATOM     10  C   UNL     1      30.348  31.900  21.008  1.00  0.00     0.282 C 
ATOM     11  O   UNL     1      30.076  32.559  19.814  1.00  0.00    -0.341 OA
ATOM     12  C   UNL     1      30.766  32.834  22.105  1.00  0.00     0.202 C 
ATOM     13  C   UNL     1      31.796  33.827  21.602  1.00  0.00     0.179 C 
ATOM     14  C   UNL     1      31.383  34.470  20.289  1.00  0.00     0.177 C 
BRANCH  10  15
ATOM     15  O   UNL     1      31.358  30.937  20.880  1.00  0.00    -0.341 OA
BRANCH  15  16
ATOM     16  C   UNL     1      30.860  29.726  20.423  1.00  0.00     0.184 C 
ATOM     17  C   UNL     1      29.604  29.374  21.156  1.00  0.00     0.178 C 
ATOM     18  O   UNL     1      29.776  28.284  22.010  1.00  0.00    -0.341 OA
ATOM     19  C   UNL     1      30.877  28.470  22.852  1.00  0.00     0.281 C 
ATOM     20  C   UNL     1      31.920  28.675  20.651  1.00  0.00     0.180 C 
ATOM     21  C   UNL     1      32.176  28.381  22.103  1.00  0.00     0.202 C 
BRANCH  17  22
ATOM     22  C   UNL     1      28.470  29.047  20.214  1.00  0.00     0.191 C 
BRANCH  22  23
ATOM     23  O   UNL     1      28.774  29.374  18.895  1.00  0.00    -0.394 OA
ATOM     24  H   UNL     1      28.918  30.339  18.817  1.00  0.00     0.210 HD
ENDBRANCH  22  23
ENDBRANCH  17  22
BRANCH  19  25
ATOM     25  O   UNL     1      30.829  27.448  23.784  1.00  0.00    -0.350 OA
BRANCH  25  26
ATOM     26  C   UNL     1      30.307  26.316  23.195  1.00  0.00     0.169 C 
BRANCH  26  27
ATOM     27  C   UNL     1      29.601  25.456  24.223  1.00  0.00     0.119 C 
BRANCH  27  28
ATOM     28  N   UNL     1      28.165  25.712  24.128  1.00  0.00    -0.092 NA
ATOM     29  N   UNL     1      27.332  24.999  24.689  1.00  0.00     0.001 N 
ATOM     30  N   UNL     1      26.615  24.394  25.465  1.00  0.00    -0.003 NA
ENDBRANCH  27  28
ENDBRANCH  26  27
ENDBRANCH  25  26
ENDBRANCH  19  25
BRANCH  20  31
ATOM     31  O   UNL     1      31.632  27.486  19.983  1.00  0.00    -0.387 OA
ATOM     32  H   UNL     1      32.406  26.891  19.881  1.00  0.00     0.211 HD
ENDBRANCH  20  31
BRANCH  21  33
ATOM     33  O   UNL     1      33.054  29.322  22.636  1.00  0.00    -0.385 OA
ATOM     34  H   UNL     1      32.574  30.119  22.961  1.00  0.00     0.211 HD
ENDBRANCH  21  33
ENDBRANCH  15  16
ENDBRANCH  10  15
BRANCH  12  35
ATOM     35  O   UNL     1      29.723  33.427  22.777  1.00  0.00    -0.385 OA
ATOM     36  H   UNL     1      30.049  33.812  23.648  1.00  0.00     0.211 HD
ENDBRANCH  12  35
BRANCH  13  37
ATOM     37  O   UNL     1      32.989  33.100  21.396  1.00  0.00    -0.387 OA
ATOM     38  H   UNL     1      33.692  33.386  22.037  1.00  0.00     0.211 HD
ENDBRANCH  13  37
BRANCH  14  39
ATOM     39  O   UNL     1      32.320  34.204  19.290  1.00  0.00    -0.387 OA
ATOM     40  H   UNL     1      33.233  34.380  19.636  1.00  0.00     0.211 HD
ENDBRANCH  14  39
ENDBRANCH   8   9
ENDBRANCH   7   8
ENDBRANCH   1   7
BRANCH   1  41
ATOM     41  C   UNL     1      27.874  34.936  16.237  1.00  0.00     0.364 C 
ATOM     42  O   UNL     1      26.996  35.808  16.164  1.00  0.00    -0.246 OA
BRANCH  41  43
ATOM     43  O   UNL     1      28.964  35.018  15.382  1.00  0.00    -0.477 OA
ATOM     44  H   UNL     1      29.525  34.182  15.160  1.00  0.00     0.296 HD
ENDBRANCH  41  43
ENDBRANCH   1  41
BRANCH   3  45
ATOM     45  O   UNL     1      27.254  31.899  18.781  1.00  0.00    -0.391 OA
ATOM     46  H   UNL     1      27.003  32.287  19.636  1.00  0.00     0.211 HD
ENDBRANCH   3  45
BRANCH   5  47
ATOM     47  C   UNL     1      29.073  30.907  15.498  1.00  0.00     0.176 C 
BRANCH  47  48
ATOM     48  O   UNL     1      28.738  29.581  15.954  1.00  0.00    -0.388 OA
ATOM     49  H   UNL     1      29.554  29.107  16.184  1.00  0.00     0.211 HD
ENDBRANCH  47  48
BRANCH  47  50
ATOM     50  C   UNL     1      30.414  31.156  16.159  1.00  0.00     0.165 C 
BRANCH  50  51
ATOM     51  O   UNL     1      30.403  31.224  17.518  1.00  0.00    -0.388 OA
ATOM     52  H   UNL     1      30.103  32.066  17.926  1.00  0.00     0.211 HD
ENDBRANCH  50  51
BRANCH  50  53
ATOM     53  C   UNL     1      31.207  32.204  15.455  1.00  0.00     0.154 C 
BRANCH  53  54
ATOM     54  N   UNL     1      31.520  33.380  16.178  1.00  0.00    -0.319 N 
ATOM     55  C   UNL     1      32.402  34.421  15.789  1.00  0.00     0.407 C 
ATOM     56  H   UNL     1      31.036  33.495  17.122  1.00  0.00     0.167 HD
ATOM     57  O   UNL     1      32.983  34.345  14.699  1.00  0.00    -0.225 OA
BRANCH  55  58
ATOM     58  O   UNL     1      32.605  35.519  16.642  1.00  0.00    -0.443 OA
BRANCH  58  59
ATOM     59  C   UNL     1      32.759  36.813  16.123  1.00  0.00     0.294 C 
BRANCH  59  60
ATOM     60  C   UNL     1      31.552  37.326  15.465  1.00  0.00     0.120 A 
ATOM     61  C   UNL     1      31.342  37.627  14.137  1.00  0.00     0.139 A 
ATOM     62  N   UNL     1      30.397  37.589  16.130  1.00  0.00    -0.132 NA
ATOM     63  N   UNL     1      30.083  38.057  14.034  1.00  0.00    -0.238 N 
ATOM     64  N   UNL     1      29.509  38.036  15.231  1.00  0.00    -0.066 NA
BRANCH  63  65
ATOM     65  C   UNL     1      29.434  38.485  12.812  1.00  0.00     0.215 C 
ATOM     66  C   UNL     1      30.350  38.263  11.649  1.00  0.00     0.046 C 
BRANCH  65  67
ATOM     67  C   UNL     1      28.155  37.767  12.600  1.00  0.00     0.328 C 
ATOM     68  O   UNL     1      27.298  38.280  11.842  1.00  0.00    -0.250 OA
BRANCH  67  69
ATOM     69  O   UNL     1      27.875  36.552  13.209  1.00  0.00    -0.480 OA
ATOM     70  H   UNL     1      28.610  35.949  13.560  1.00  0.00     0.296 HD
ENDBRANCH  67  69
ENDBRANCH  65  67
ENDBRANCH  63  65
ENDBRANCH  59  60
ENDBRANCH  58  59
ENDBRANCH  55  58
ENDBRANCH  53  54
ENDBRANCH  50  53
ENDBRANCH  47  50
ENDBRANCH   5  47
BRANCH   4  71
ATOM     71  N   UNL     1      25.681  30.927  15.715  1.00  0.00    -0.348 N 
ATOM     72  C   UNL     1      24.818  29.833  15.751  1.00  0.00     0.217 C 
ATOM     73  H   UNL     1      25.506  31.663  14.972  1.00  0.00     0.163 HD
ATOM     74  C   UNL     1      23.696  29.686  14.792  1.00  0.00     0.114 C 
ATOM     75  O   UNL     1      24.994  28.950  16.611  1.00  0.00    -0.275 OA
ENDBRANCH   4  71
TORSDOF 32
BEGIN_RES LYS A 131
REMARK  4 active torsions:
REMARK  status: ('A' for Active; 'I' for Inactive)
REMARK    1  A    between atoms: CA   and  CB  
REMARK    2  A    between atoms: CB   and  CG  
REMARK    3  A    between atoms: CG   and  CD  
REMARK    4  A    between atoms: CD   and  CE  
ROOT
ATOM      1  CA  LYS A 131      29.867  25.555  16.977  1.00 20.52     0.186 C 
ENDROOT
BRANCH   1   2
ATOM      2  CB  LYS A 131      28.345  25.722  17.026  1.00 20.94     0.034 C 
BRANCH   2   3
ATOM      3  CG  LYS A 131      27.599  24.426  16.748  1.00 22.96     0.005 C 
BRANCH   3   4
ATOM      4  CD  LYS A 131      27.012  23.831  17.998  1.00 24.33     0.041 C 
BRANCH   4   5
ATOM      5  CE  LYS A 131      25.907  24.741  18.524  1.00 26.91     0.338 C 
ATOM      6  NZ  LYS A 131      24.580  24.107  18.337  1.00 27.40     0.618 N 
ENDBRANCH   4   5
ENDBRANCH   3   4
ENDBRANCH   2   3
ENDBRANCH   1   2
END_RES LYS A 131
BEGIN_RES LYS A 135
REMARK  4 active torsions:
REMARK  status: ('A' for Active; 'I' for Inactive)
REMARK    5  A    between atoms: CA   and  CB  
REMARK    6  A    between atoms: CB   and  CG  
REMARK    7  A    between atoms: CG   and  CD  
REMARK    8  A    between atoms: CD   and  CE  
ROOT
ATOM      7  CA  LYS A 135      33.193  34.663   9.290  1.00 25.02     0.186 C 
ENDROOT
BRANCH   7   8
ATOM      8  CB  LYS A 135      32.060  35.360  10.034  1.00 26.63     0.034 C 
BRANCH   8   9
ATOM      9  CG  LYS A 135      30.788  35.466   9.233  1.00 29.45     0.005 C 
BRANCH   9  10
ATOM     10  CD  LYS A 135      30.200  34.087   8.975  1.00 32.00     0.041 C 
BRANCH  10  11
ATOM     11  CE  LYS A 135      28.742  34.044   9.391  1.00 34.25     0.338 C 
ATOM     12  NZ  LYS A 135      28.252  35.398   9.769  1.00 35.99     0.618 N 
ENDBRANCH  10  11
ENDBRANCH   9  10
ENDBRANCH   8   9
ENDBRANCH   7   8
END_RES LYS A 135
