REMARK VINA RESULT:    -3.450      3.284      9.618
REMARK INTER + INTRA:         -22.196
REMARK INTER:                  -9.096
REMARK INTRA:                 -13.100
REMARK UNBOUND:               -13.100
REMARK SMILES CC(=O)N[C@@H]1[C@@H](O)C[C@](OC[C@H]2O[C@@H](O[C@H]3[C@H](O)[C@@H](O)[C@H](OCCN=[N+]=[N-])O[C@@H]3CO)[C@H](O)[C@@H](O)[C@H]2O)(C(=O)O)O[C@H]1C(O)[C@H](O)CNC(=O)OCc1cn(CCNS(C)(=O)=O)nn1
REMARK SMILES IDX 43 1 42 2 9 3 8 4 41 5 6 6 5 7 10 8 11 9 12 10 14 11 13 12
REMARK SMILES IDX 32 13 34 14 36 15 15 16 16 17 29 18 28 19 21 20 17 21 19 22
REMARK SMILES IDX 30 23 31 24 22 26 23 27 24 28 25 29 26 30 27 31 18 32 20 34
REMARK SMILES IDX 33 36 35 38 37 40 38 42 39 43 40 44 7 46 4 48 2 49 1 51 3 52
REMARK SMILES IDX 44 53 45 55 46 56 47 58 48 59 49 60 50 62 51 63 52 64 53 65
REMARK SMILES IDX 54 66 64 67 55 68 63 69 56 70 57 71 58 72 59 74 61 75 62 76
REMARK SMILES IDX 60 77
REMARK H PARENT 31 25 18 33 20 35 33 37 35 39 37 41 40 45 7 47 4 50 44 54
REMARK H PARENT 46 57 48 61 58 73
REMARK Flexibility Score: inf
ROOT
ATOM      1  C   UNL     1      28.887  36.225  13.324  1.00  0.00     0.176 C 
ENDROOT
BRANCH   1   2
ATOM      2  C   UNL     1      27.536  36.448  12.620  1.00  0.00     0.178 C 
ATOM      3  C   UNL     1      25.352  35.626  12.804  1.00  0.00     0.272 C 
ATOM      4  C   UNL     1      25.327  35.022  11.457  1.00  0.00     0.113 C 
ATOM      5  O   UNL     1      26.640  35.712  13.317  1.00  0.00    -0.332 OA
ATOM      6  C   UNL     1      26.608  35.123  10.677  1.00  0.00     0.145 C 
ATOM      7  C   UNL     1      27.636  36.069  11.195  1.00  0.00     0.142 C 
BRANCH   3   8
ATOM      8  O   UNL     1      24.637  34.946  13.796  1.00  0.00    -0.338 OA
BRANCH   8   9
ATOM      9  C   UNL     1      25.407  34.007  14.460  1.00  0.00     0.199 C 
BRANCH   9  10
ATOM     10  C   UNL     1      24.968  32.631  14.100  1.00  0.00     0.179 C 
ATOM     11  C   UNL     1      24.947  30.409  14.718  1.00  0.00     0.282 C 
ATOM     12  O   UNL     1      25.147  31.734  15.139  1.00  0.00    -0.341 OA
ATOM     13  C   UNL     1      23.547  30.181  14.263  1.00  0.00     0.202 C 
ATOM     14  C   UNL     1      23.313  31.080  13.067  1.00  0.00     0.179 C 
ATOM     15  C   UNL     1      23.652  32.491  13.411  1.00  0.00     0.177 C 
BRANCH  11  16
ATOM     16  O   UNL     1      25.285  29.606  15.766  1.00  0.00    -0.341 OA
BRANCH  16  17
ATOM     17  C   UNL     1      26.258  30.060  16.588  1.00  0.00     0.184 C 
ATOM     18  C   UNL     1      27.565  29.376  16.658  1.00  0.00     0.178 C 
ATOM     19  O   UNL     1      28.133  29.637  17.906  1.00  0.00    -0.341 OA
ATOM     20  C   UNL     1      27.545  28.916  18.905  1.00  0.00     0.281 C 
ATOM     21  C   UNL     1      25.729  30.242  18.037  1.00  0.00     0.180 C 
ATOM     22  C   UNL     1      26.043  28.919  18.704  1.00  0.00     0.202 C 
BRANCH  18  23
ATOM     23  C   UNL     1      28.544  29.990  15.662  1.00  0.00     0.191 C 
BRANCH  23  24
ATOM     24  O   UNL     1      28.097  31.279  15.291  1.00  0.00    -0.394 OA
ATOM     25  H   UNL     1      27.129  31.294  15.127  1.00  0.00     0.210 HD
ENDBRANCH  23  24
ENDBRANCH  18  23
BRANCH  20  26
ATOM     26  O   UNL     1      27.886  29.415  20.171  1.00  0.00    -0.350 OA
BRANCH  26  27
ATOM     27  C   UNL     1      29.204  29.770  20.305  1.00  0.00     0.169 C 
BRANCH  27  28
ATOM     28  C   UNL     1      29.278  31.022  21.120  1.00  0.00     0.119 C 
BRANCH  28  29
ATOM     29  N   UNL     1      29.059  32.217  20.314  1.00  0.00    -0.092 NA
ATOM     30  N   UNL     1      28.303  33.061  20.825  1.00  0.00     0.001 N 
ATOM     31  N   UNL     1      27.570  34.022  21.030  1.00  0.00    -0.003 NA
ENDBRANCH  28  29
ENDBRANCH  27  28
ENDBRANCH  26  27
ENDBRANCH  20  26
BRANCH  21  32
ATOM     32  O   UNL     1      26.470  31.232  18.688  1.00  0.00    -0.387 OA
ATOM     33  H   UNL     1      27.259  31.462  18.130  1.00  0.00     0.211 HD
ENDBRANCH  21  32
BRANCH  22  34
ATOM     34  O   UNL     1      25.597  27.819  18.007  1.00  0.00    -0.385 OA
ATOM     35  H   UNL     1      26.040  27.686  17.130  1.00  0.00     0.211 HD
ENDBRANCH  22  34
ENDBRANCH  16  17
ENDBRANCH  11  16
BRANCH  13  36
ATOM     36  O   UNL     1      23.381  28.876  13.777  1.00  0.00    -0.385 OA
ATOM     37  H   UNL     1      23.830  28.744  12.903  1.00  0.00     0.211 HD
ENDBRANCH  13  36
BRANCH  14  38
ATOM     38  O   UNL     1      22.068  30.903  12.516  1.00  0.00    -0.387 OA
ATOM     39  H   UNL     1      21.329  31.087  13.176  1.00  0.00     0.211 HD
ENDBRANCH  14  38
BRANCH  15  40
ATOM     40  O   UNL     1      22.661  32.995  14.247  1.00  0.00    -0.387 OA
ATOM     41  H   UNL     1      21.756  32.656  14.026  1.00  0.00     0.211 HD
ENDBRANCH  15  40
ENDBRANCH   9  10
ENDBRANCH   8   9
ENDBRANCH   3   8
BRANCH   3  42
ATOM     42  C   UNL     1      24.756  36.983  12.793  1.00  0.00     0.364 C 
ATOM     43  O   UNL     1      24.333  37.542  13.858  1.00  0.00    -0.246 OA
BRANCH  42  44
ATOM     44  O   UNL     1      24.603  37.755  11.658  1.00  0.00    -0.477 OA
ATOM     45  H   UNL     1      24.820  37.423  10.722  1.00  0.00     0.296 HD
ENDBRANCH  42  44
ENDBRANCH   3  42
BRANCH   6  46
ATOM     46  O   UNL     1      27.178  33.873  10.484  1.00  0.00    -0.391 OA
ATOM     47  H   UNL     1      28.098  33.773  10.800  1.00  0.00     0.211 HD
ENDBRANCH   6  46
BRANCH   7  48
ATOM     48  N   UNL     1      27.594  37.279  10.357  1.00  0.00    -0.348 N 
ATOM     49  C   UNL     1      28.679  38.103  10.043  1.00  0.00     0.217 C 
ATOM     50  H   UNL     1      26.652  37.556   9.907  1.00  0.00     0.163 HD
ATOM     51  C   UNL     1      28.507  39.328   9.183  1.00  0.00     0.114 C 
ATOM     52  O   UNL     1      29.843  37.863  10.464  1.00  0.00    -0.275 OA
ENDBRANCH   7  48
ENDBRANCH   1   2
BRANCH   1  53
ATOM     53  O   UNL     1      28.748  36.585  14.677  1.00  0.00    -0.388 OA
ATOM     54  H   UNL     1      29.325  37.355  14.828  1.00  0.00     0.211 HD
ENDBRANCH   1  53
BRANCH   1  55
ATOM     55  C   UNL     1      29.270  34.792  13.258  1.00  0.00     0.165 C 
BRANCH  55  56
ATOM     56  O   UNL     1      28.615  33.951  14.123  1.00  0.00    -0.388 OA
ATOM     57  H   UNL     1      28.919  34.035  15.065  1.00  0.00     0.211 HD
ENDBRANCH  55  56
BRANCH  55  58
ATOM     58  C   UNL     1      30.741  34.515  13.234  1.00  0.00     0.154 C 
BRANCH  58  59
ATOM     59  N   UNL     1      31.200  33.902  14.452  1.00  0.00    -0.319 N 
ATOM     60  C   UNL     1      31.745  34.769  15.474  1.00  0.00     0.407 C 
ATOM     61  H   UNL     1      31.167  32.888  14.644  1.00  0.00     0.167 HD
ATOM     62  O   UNL     1      31.752  36.001  15.222  1.00  0.00    -0.225 OA
BRANCH  60  63
ATOM     63  O   UNL     1      32.227  34.256  16.650  1.00  0.00    -0.443 OA
BRANCH  63  64
ATOM     64  C   UNL     1      31.511  34.434  17.850  1.00  0.00     0.294 C 
BRANCH  64  65
ATOM     65  C   UNL     1      30.063  34.265  17.632  1.00  0.00     0.120 A 
ATOM     66  C   UNL     1      29.060  35.184  17.897  1.00  0.00     0.138 A 
ATOM     67  N   UNL     1      29.448  33.215  17.108  1.00  0.00    -0.132 NA
ATOM     68  N   UNL     1      27.882  34.676  17.531  1.00  0.00    -0.251 N 
ATOM     69  N   UNL     1      28.132  33.458  17.047  1.00  0.00    -0.067 NA
BRANCH  68  70
ATOM     70  C   UNL     1      26.585  35.321  17.650  1.00  0.00     0.162 C 
BRANCH  70  71
ATOM     71  C   UNL     1      26.754  36.836  17.563  1.00  0.00     0.122 C 
BRANCH  71  72
ATOM     72  N   UNL     1      26.407  37.313  16.255  1.00  0.00    -0.214 NA
ATOM     73  H   UNL     1      25.376  37.151  16.094  1.00  0.00     0.141 HD
BRANCH  72  74
ATOM     74  S   UNL     1      26.682  39.000  16.060  1.00  0.00     0.208 S 
ATOM     75  O   UNL     1      27.767  39.463  17.019  1.00  0.00    -0.213 OA
ATOM     76  O   UNL     1      27.186  39.187  14.642  1.00  0.00    -0.213 OA
ATOM     77  C   UNL     1      25.194  39.920  16.304  1.00  0.00     0.176 C 
ENDBRANCH  72  74
ENDBRANCH  71  72
ENDBRANCH  70  71
ENDBRANCH  68  70
ENDBRANCH  64  65
ENDBRANCH  63  64
ENDBRANCH  60  63
ENDBRANCH  58  59
ENDBRANCH  55  58
ENDBRANCH   1  55
TORSDOF 33
BEGIN_RES LYS A 131
REMARK  4 active torsions:
REMARK  status: ('A' for Active; 'I' for Inactive)
REMARK    1  A    between atoms: CA   and  CB  
REMARK    2  A    between atoms: CB   and  CG  
REMARK    3  A    between atoms: CG   and  CD  
REMARK    4  A    between atoms: CD   and  CE  
ROOT
ATOM      1  CA  LYS A 131      29.867  25.555  16.977  1.00 20.52     0.186 C 
ENDROOT
BRANCH   1   2
ATOM      2  CB  LYS A 131      28.345  25.722  17.026  1.00 20.94     0.034 C 
BRANCH   2   3
ATOM      3  CG  LYS A 131      27.599  24.431  16.724  1.00 22.96     0.005 C 
BRANCH   3   4
ATOM      4  CD  LYS A 131      27.057  23.786  17.969  1.00 24.33     0.041 C 
BRANCH   4   5
ATOM      5  CE  LYS A 131      25.609  24.219  18.178  1.00 26.91     0.338 C 
ATOM      6  NZ  LYS A 131      24.932  24.412  16.874  1.00 27.40     0.618 N 
ENDBRANCH   4   5
ENDBRANCH   3   4
ENDBRANCH   2   3
ENDBRANCH   1   2
END_RES LYS A 131
BEGIN_RES LYS A 135
REMARK  4 active torsions:
REMARK  status: ('A' for Active; 'I' for Inactive)
REMARK    5  A    between atoms: CA   and  CB  
REMARK    6  A    between atoms: CB   and  CG  
REMARK    7  A    between atoms: CG   and  CD  
REMARK    8  A    between atoms: CD   and  CE  
ROOT
ATOM      7  CA  LYS A 135      33.193  34.663   9.290  1.00 25.02     0.186 C 
ENDROOT
BRANCH   7   8
ATOM      8  CB  LYS A 135      32.060  35.360  10.034  1.00 26.63     0.034 C 
BRANCH   8   9
ATOM      9  CG  LYS A 135      30.696  34.812   9.704  1.00 29.45     0.005 C 
BRANCH   9  10
ATOM     10  CD  LYS A 135      30.513  34.700   8.198  1.00 32.00     0.041 C 
BRANCH  10  11
ATOM     11  CE  LYS A 135      29.061  34.927   7.819  1.00 34.25     0.338 C 
ATOM     12  NZ  LYS A 135      28.919  36.110   6.927  1.00 35.99     0.618 N 
ENDBRANCH  10  11
ENDBRANCH   9  10
ENDBRANCH   8   9
ENDBRANCH   7   8
END_RES LYS A 135
