REMARK VINA RESULT:    -4.821      2.784      6.467
REMARK INTER + INTRA:         -23.085
REMARK INTER:                 -12.531
REMARK INTRA:                 -10.554
REMARK UNBOUND:               -10.372
REMARK SMILES CC(=O)N[C@@H]1[C@@H](O)C[C@](OC[C@H]2O[C@@H](O[C@H]3[C@H](O)[C@@H](O)[C@H](OCCN=[N+]=[N-])O[C@@H]3CO)[C@H](O)[C@@H](O)[C@H]2O)(C(=O)O)O[C@H]1C(O)[C@H](O)CNC(=O)OCc1cn(CC(=O)NCc2cccs2)nn1
REMARK SMILES IDX 43 1 42 2 9 3 8 4 41 5 6 6 5 7 10 8 11 9 12 10 14 11 13 12
REMARK SMILES IDX 32 13 34 14 36 15 15 16 16 17 29 18 28 19 21 20 17 21 19 22
REMARK SMILES IDX 30 23 31 24 22 26 23 27 24 28 25 29 26 30 27 31 18 32 20 34
REMARK SMILES IDX 33 36 35 38 37 40 38 42 39 43 40 44 7 46 4 48 2 49 1 51 3 52
REMARK SMILES IDX 44 53 45 55 46 56 47 58 48 59 49 60 50 62 51 63 52 64 53 65
REMARK SMILES IDX 54 66 67 67 55 68 66 69 56 70 57 71 58 72 59 73 60 75 61 76
REMARK SMILES IDX 62 77 65 78 63 79 64 80
REMARK H PARENT 31 25 18 33 20 35 33 37 35 39 37 41 40 45 7 47 4 50 44 54
REMARK H PARENT 46 57 48 61 59 74
REMARK Flexibility Score: inf
ROOT
ATOM      1  C   UNL     1      29.184  35.406  13.348  1.00  0.00     0.176 C 
ENDROOT
BRANCH   1   2
ATOM      2  C   UNL     1      30.649  35.604  13.058  1.00  0.00     0.178 C 
ATOM      3  C   UNL     1      32.092  34.839  14.768  1.00  0.00     0.272 C 
ATOM      4  C   UNL     1      31.895  36.207  15.444  1.00  0.00     0.113 C 
ATOM      5  O   UNL     1      31.342  34.627  13.683  1.00  0.00    -0.332 OA
ATOM      6  C   UNL     1      31.976  37.257  14.411  1.00  0.00     0.145 C 
ATOM      7  C   UNL     1      31.154  36.989  13.179  1.00  0.00     0.142 C 
BRANCH   3   8
ATOM      8  O   UNL     1      31.804  33.934  15.763  1.00  0.00    -0.338 OA
BRANCH   8   9
ATOM      9  C   UNL     1      30.780  34.119  16.599  1.00  0.00     0.199 C 
BRANCH   9  10
ATOM     10  C   UNL     1      29.834  32.987  16.880  1.00  0.00     0.179 C 
ATOM     11  C   UNL     1      27.625  32.528  16.455  1.00  0.00     0.282 C 
ATOM     12  O   UNL     1      28.771  33.167  15.961  1.00  0.00    -0.341 OA
ATOM     13  C   UNL     1      27.934  31.167  16.983  1.00  0.00     0.202 C 
ATOM     14  C   UNL     1      29.274  30.625  16.612  1.00  0.00     0.179 C 
ATOM     15  C   UNL     1      30.386  31.620  16.538  1.00  0.00     0.177 C 
BRANCH  11  16
ATOM     16  O   UNL     1      26.612  32.477  15.539  1.00  0.00    -0.341 OA
BRANCH  16  17
ATOM     17  C   UNL     1      25.371  32.833  16.064  1.00  0.00     0.184 C 
ATOM     18  C   UNL     1      24.416  31.724  16.152  1.00  0.00     0.178 C 
ATOM     19  O   UNL     1      23.332  31.725  15.316  1.00  0.00    -0.341 OA
ATOM     20  C   UNL     1      23.304  32.626  14.301  1.00  0.00     0.281 C 
ATOM     21  C   UNL     1      24.920  34.072  15.345  1.00  0.00     0.180 C 
ATOM     22  C   UNL     1      23.471  34.020  14.933  1.00  0.00     0.202 C 
BRANCH  18  23
ATOM     23  C   UNL     1      23.819  31.651  17.572  1.00  0.00     0.191 C 
BRANCH  23  24
ATOM     24  O   UNL     1      22.469  31.928  17.587  1.00  0.00    -0.394 OA
ATOM     25  H   UNL     1      22.144  31.818  18.521  1.00  0.00     0.210 HD
ENDBRANCH  23  24
ENDBRANCH  18  23
BRANCH  20  26
ATOM     26  O   UNL     1      22.008  32.651  13.761  1.00  0.00    -0.350 OA
BRANCH  26  27
ATOM     27  C   UNL     1      21.341  31.461  13.970  1.00  0.00     0.169 C 
BRANCH  27  28
ATOM     28  C   UNL     1      20.709  31.057  12.634  1.00  0.00     0.119 C 
BRANCH  28  29
ATOM     29  N   UNL     1      21.332  29.828  12.163  1.00  0.00    -0.092 NA
ATOM     30  N   UNL     1      22.499  29.586  12.464  1.00  0.00     0.001 N 
ATOM     31  N   UNL     1      23.599  29.192  12.895  1.00  0.00    -0.003 NA
ENDBRANCH  28  29
ENDBRANCH  27  28
ENDBRANCH  26  27
ENDBRANCH  20  26
BRANCH  21  32
ATOM     32  O   UNL     1      25.199  35.246  16.052  1.00  0.00    -0.387 OA
ATOM     33  H   UNL     1      24.860  36.053  15.555  1.00  0.00     0.211 HD
ENDBRANCH  21  32
BRANCH  22  34
ATOM     34  O   UNL     1      23.247  35.012  14.000  1.00  0.00    -0.385 OA
ATOM     35  H   UNL     1      24.049  35.149  13.434  1.00  0.00     0.211 HD
ENDBRANCH  22  34
ENDBRANCH  16  17
ENDBRANCH  11  16
BRANCH  13  36
ATOM     36  O   UNL     1      27.760  31.100  18.385  1.00  0.00    -0.385 OA
ATOM     37  H   UNL     1      27.121  31.745  18.727  1.00  0.00     0.211 HD
ENDBRANCH  13  36
BRANCH  14  38
ATOM     38  O   UNL     1      29.187  29.852  15.430  1.00  0.00    -0.387 OA
ATOM     39  H   UNL     1      29.941  29.214  15.394  1.00  0.00     0.211 HD
ENDBRANCH  14  38
BRANCH  15  40
ATOM     40  O   UNL     1      30.818  31.634  15.190  1.00  0.00    -0.387 OA
ATOM     41  H   UNL     1      31.379  32.417  14.987  1.00  0.00     0.211 HD
ENDBRANCH  15  40
ENDBRANCH   9  10
ENDBRANCH   8   9
ENDBRANCH   3   8
BRANCH   3  42
ATOM     42  C   UNL     1      33.545  34.815  14.411  1.00  0.00     0.364 C 
ATOM     43  O   UNL     1      34.473  35.132  15.189  1.00  0.00    -0.246 OA
BRANCH  42  44
ATOM     44  O   UNL     1      33.920  34.414  13.135  1.00  0.00    -0.477 OA
ATOM     45  H   UNL     1      33.313  33.818  12.585  1.00  0.00     0.296 HD
ENDBRANCH  42  44
ENDBRANCH   3  42
BRANCH   6  46
ATOM     46  O   UNL     1      31.628  38.511  14.992  1.00  0.00    -0.391 OA
ATOM     47  H   UNL     1      31.898  38.554  15.935  1.00  0.00     0.211 HD
ENDBRANCH   6  46
BRANCH   7  48
ATOM     48  N   UNL     1      31.859  37.416  11.986  1.00  0.00    -0.348 N 
ATOM     49  C   UNL     1      31.206  38.214  11.023  1.00  0.00     0.217 C 
ATOM     50  H   UNL     1      32.860  37.143  11.802  1.00  0.00     0.163 HD
ATOM     51  C   UNL     1      31.948  38.643   9.801  1.00  0.00     0.114 C 
ATOM     52  O   UNL     1      30.017  38.597  11.123  1.00  0.00    -0.275 OA
ENDBRANCH   7  48
ENDBRANCH   1   2
BRANCH   1  53
ATOM     53  O   UNL     1      28.802  34.125  13.624  1.00  0.00    -0.388 OA
ATOM     54  H   UNL     1      28.997  33.793  14.525  1.00  0.00     0.211 HD
ENDBRANCH   1  53
BRANCH   1  55
ATOM     55  C   UNL     1      28.572  36.428  14.282  1.00  0.00     0.165 C 
BRANCH  55  56
ATOM     56  O   UNL     1      27.980  35.878  15.377  1.00  0.00    -0.388 OA
ATOM     57  H   UNL     1      27.802  36.501  16.116  1.00  0.00     0.211 HD
ENDBRANCH  55  56
BRANCH  55  58
ATOM     58  C   UNL     1      27.605  37.316  13.520  1.00  0.00     0.154 C 
BRANCH  58  59
ATOM     59  N   UNL     1      26.239  37.113  13.902  1.00  0.00    -0.319 N 
ATOM     60  C   UNL     1      25.315  38.102  14.320  1.00  0.00     0.407 C 
ATOM     61  H   UNL     1      25.809  36.120  13.889  1.00  0.00     0.167 HD
ATOM     62  O   UNL     1      25.617  39.293  14.391  1.00  0.00    -0.225 OA
BRANCH  60  63
ATOM     63  O   UNL     1      23.995  37.764  14.680  1.00  0.00    -0.443 OA
BRANCH  63  64
ATOM     64  C   UNL     1      22.866  38.517  14.379  1.00  0.00     0.294 C 
BRANCH  64  65
ATOM     65  C   UNL     1      22.526  38.575  12.950  1.00  0.00     0.120 A 
ATOM     66  C   UNL     1      21.831  37.634  12.222  1.00  0.00     0.138 A 
ATOM     67  N   UNL     1      22.829  39.572  12.077  1.00  0.00    -0.132 NA
ATOM     68  N   UNL     1      21.729  38.064  10.958  1.00  0.00    -0.243 N 
ATOM     69  N   UNL     1      22.335  39.227  10.907  1.00  0.00    -0.067 NA
BRANCH  68  70
ATOM     70  C   UNL     1      21.097  37.458   9.807  1.00  0.00     0.245 C 
BRANCH  70  71
ATOM     71  C   UNL     1      22.144  36.859   8.960  1.00  0.00     0.242 C 
ATOM     72  O   UNL     1      21.869  35.924   8.187  1.00  0.00    -0.273 OA
ATOM     73  N   UNL     1      23.475  37.340   9.016  1.00  0.00    -0.350 N 
ATOM     74  H   UNL     1      23.751  38.133   9.660  1.00  0.00     0.163 HD
BRANCH  73  75
ATOM     75  C   UNL     1      24.519  36.788   8.209  1.00  0.00     0.162 C 
BRANCH  75  76
ATOM     76  C   UNL     1      25.332  35.876   9.027  1.00  0.00     0.024 A 
ATOM     77  C   UNL     1      26.303  34.990   8.692  1.00  0.00     0.017 A 
ATOM     78  S   UNL     1      25.222  35.721  10.774  1.00  0.00    -0.147 S 
ATOM     79  C   UNL     1      26.900  34.271   9.656  1.00  0.00     0.012 A 
ATOM     80  C   UNL     1      26.535  34.430  10.941  1.00  0.00     0.065 A 
ENDBRANCH  75  76
ENDBRANCH  73  75
ENDBRANCH  70  71
ENDBRANCH  68  70
ENDBRANCH  64  65
ENDBRANCH  63  64
ENDBRANCH  60  63
ENDBRANCH  58  59
ENDBRANCH  55  58
ENDBRANCH   1  55
TORSDOF 33
BEGIN_RES LYS A 131
REMARK  4 active torsions:
REMARK  status: ('A' for Active; 'I' for Inactive)
REMARK    1  A    between atoms: CA   and  CB  
REMARK    2  A    between atoms: CB   and  CG  
REMARK    3  A    between atoms: CG   and  CD  
REMARK    4  A    between atoms: CD   and  CE  
ROOT
ATOM      1  CA  LYS A 131      29.867  25.555  16.977  1.00 20.52     0.186 C 
ENDROOT
BRANCH   1   2
ATOM      2  CB  LYS A 131      28.345  25.722  17.026  1.00 20.94     0.034 C 
BRANCH   2   3
ATOM      3  CG  LYS A 131      27.602  24.399  16.923  1.00 22.96     0.005 C 
BRANCH   3   4
ATOM      4  CD  LYS A 131      26.603  24.223  18.033  1.00 24.33     0.041 C 
BRANCH   4   5
ATOM      5  CE  LYS A 131      25.919  25.556  18.318  1.00 26.91     0.338 C 
ATOM      6  NZ  LYS A 131      25.857  25.805  19.778  1.00 27.40     0.618 N 
ENDBRANCH   4   5
ENDBRANCH   3   4
ENDBRANCH   2   3
ENDBRANCH   1   2
END_RES LYS A 131
BEGIN_RES LYS A 135
REMARK  4 active torsions:
REMARK  status: ('A' for Active; 'I' for Inactive)
REMARK    5  A    between atoms: CA   and  CB  
REMARK    6  A    between atoms: CB   and  CG  
REMARK    7  A    between atoms: CG   and  CD  
REMARK    8  A    between atoms: CD   and  CE  
ROOT
ATOM      7  CA  LYS A 135      33.193  34.663   9.290  1.00 25.02     0.186 C 
ENDROOT
BRANCH   7   8
ATOM      8  CB  LYS A 135      32.060  35.360  10.034  1.00 26.63     0.034 C 
BRANCH   8   9
ATOM      9  CG  LYS A 135      30.689  34.896   9.615  1.00 29.45     0.005 C 
BRANCH   9  10
ATOM     10  CD  LYS A 135      30.689  34.473   8.154  1.00 32.00     0.041 C 
BRANCH  10  11
ATOM     11  CE  LYS A 135      29.619  35.223   7.382  1.00 34.25     0.338 C 
ATOM     12  NZ  LYS A 135      29.402  36.582   7.949  1.00 35.99     0.618 N 
ENDBRANCH  10  11
ENDBRANCH   9  10
ENDBRANCH   8   9
ENDBRANCH   7   8
END_RES LYS A 135
