REMARK VINA RESULT:    -5.123      5.999     11.948
REMARK INTER + INTRA:         -23.107
REMARK INTER:                 -13.016
REMARK INTRA:                 -10.091
REMARK UNBOUND:                -9.598
REMARK SMILES CC(=O)N[C@@H]1[C@@H](O)C[C@](OC[C@H]2O[C@@H](O[C@H]3[C@H](O)[C@@H](O)[C@H](OCCN=[N+]=[N-])O[C@@H]3CO)[C@H](O)[C@@H](O)[C@H]2O)(C(=O)O)O[C@H]1C(O)[C@H](O)CNC(=O)OCc1cn(Cc2ccccc2OC(C)=O)nn1
REMARK SMILES IDX 43 1 42 2 9 3 8 4 41 5 6 6 5 7 10 8 11 9 12 10 14 11 13 12
REMARK SMILES IDX 32 13 34 14 36 15 15 16 16 17 29 18 28 19 21 20 17 21 19 22
REMARK SMILES IDX 30 23 31 24 22 26 23 27 24 28 25 29 26 30 27 31 18 32 20 34
REMARK SMILES IDX 33 36 35 38 37 40 38 42 39 43 40 44 7 46 4 48 2 49 1 51 3 52
REMARK SMILES IDX 44 53 45 55 46 56 47 58 48 59 49 60 50 62 51 63 52 64 53 65
REMARK SMILES IDX 54 66 68 67 55 68 67 69 56 70 57 71 62 72 58 73 61 74 59 75
REMARK SMILES IDX 60 76 63 77 64 78 66 79 65 80
REMARK H PARENT 31 25 18 33 20 35 33 37 35 39 37 41 40 45 7 47 4 50 44 54
REMARK H PARENT 46 57 48 61
REMARK Flexibility Score: inf
ROOT
ATOM      1  C   UNL     1      28.019  29.333  17.624  1.00  0.00     0.176 C 
ENDROOT
BRANCH   1   2
ATOM      2  C   UNL     1      27.428  28.668  18.857  1.00  0.00     0.178 C 
ATOM      3  C   UNL     1      25.375  28.233  19.872  1.00  0.00     0.272 C 
ATOM      4  C   UNL     1      26.339  27.989  21.028  1.00  0.00     0.113 C 
ATOM      5  O   UNL     1      26.074  28.914  18.847  1.00  0.00    -0.332 OA
ATOM      6  C   UNL     1      27.142  29.269  21.187  1.00  0.00     0.145 C 
ATOM      7  C   UNL     1      28.093  29.348  20.056  1.00  0.00     0.142 C 
BRANCH   3   8
ATOM      8  O   UNL     1      24.326  29.038  20.205  1.00  0.00    -0.338 OA
BRANCH   8   9
ATOM      9  C   UNL     1      23.097  28.482  20.361  1.00  0.00     0.199 C 
BRANCH   9  10
ATOM     10  C   UNL     1      22.165  29.107  19.309  1.00  0.00     0.179 C 
ATOM     11  C   UNL     1      21.581  28.932  17.092  1.00  0.00     0.282 C 
ATOM     12  O   UNL     1      22.333  28.330  18.158  1.00  0.00    -0.341 OA
ATOM     13  C   UNL     1      20.160  28.617  17.400  1.00  0.00     0.202 C 
ATOM     14  C   UNL     1      19.813  29.404  18.676  1.00  0.00     0.179 C 
ATOM     15  C   UNL     1      20.751  29.092  19.793  1.00  0.00     0.177 C 
BRANCH  11  16
ATOM     16  O   UNL     1      22.127  28.389  15.955  1.00  0.00    -0.341 OA
BRANCH  16  17
ATOM     17  C   UNL     1      22.627  29.389  15.100  1.00  0.00     0.184 C 
ATOM     18  C   UNL     1      22.451  29.095  13.657  1.00  0.00     0.178 C 
ATOM     19  O   UNL     1      23.602  29.345  12.903  1.00  0.00    -0.341 OA
ATOM     20  C   UNL     1      24.207  30.564  13.176  1.00  0.00     0.281 C 
ATOM     21  C   UNL     1      24.188  29.380  15.304  1.00  0.00     0.180 C 
ATOM     22  C   UNL     1      24.668  30.637  14.631  1.00  0.00     0.202 C 
BRANCH  18  23
ATOM     23  C   UNL     1      21.226  29.663  13.011  1.00  0.00     0.191 C 
BRANCH  23  24
ATOM     24  O   UNL     1      20.104  29.236  13.704  1.00  0.00    -0.394 OA
ATOM     25  H   UNL     1      20.350  28.565  14.375  1.00  0.00     0.210 HD
ENDBRANCH  23  24
ENDBRANCH  18  23
BRANCH  20  26
ATOM     26  O   UNL     1      23.364  31.596  12.960  1.00  0.00    -0.350 OA
BRANCH  26  27
ATOM     27  C   UNL     1      23.474  32.748  13.647  1.00  0.00     0.169 C 
BRANCH  27  28
ATOM     28  C   UNL     1      24.189  33.892  13.022  1.00  0.00     0.119 C 
BRANCH  28  29
ATOM     29  N   UNL     1      25.574  33.877  13.350  1.00  0.00    -0.092 NA
ATOM     30  N   UNL     1      25.986  33.997  14.482  1.00  0.00     0.001 N 
ATOM     31  N   UNL     1      26.268  33.862  15.677  1.00  0.00    -0.003 NA
ENDBRANCH  28  29
ENDBRANCH  27  28
ENDBRANCH  26  27
ENDBRANCH  20  26
BRANCH  21  32
ATOM     32  O   UNL     1      24.472  29.315  16.645  1.00  0.00    -0.387 OA
ATOM     33  H   UNL     1      25.052  30.099  16.912  1.00  0.00     0.211 HD
ENDBRANCH  21  32
BRANCH  22  34
ATOM     34  O   UNL     1      26.027  30.822  14.760  1.00  0.00    -0.385 OA
ATOM     35  H   UNL     1      26.206  31.796  14.622  1.00  0.00     0.211 HD
ENDBRANCH  22  34
ENDBRANCH  16  17
ENDBRANCH  11  16
BRANCH  13  36
ATOM     36  O   UNL     1      19.267  29.077  16.445  1.00  0.00    -0.385 OA
ATOM     37  H   UNL     1      19.685  29.426  15.631  1.00  0.00     0.211 HD
ENDBRANCH  13  36
BRANCH  14  38
ATOM     38  O   UNL     1      18.479  29.181  19.025  1.00  0.00    -0.387 OA
ATOM     39  H   UNL     1      18.456  29.143  20.024  1.00  0.00     0.211 HD
ENDBRANCH  14  38
BRANCH  15  40
ATOM     40  O   UNL     1      20.381  27.867  20.343  1.00  0.00    -0.387 OA
ATOM     41  H   UNL     1      19.735  27.375  19.802  1.00  0.00     0.211 HD
ENDBRANCH  15  40
ENDBRANCH   9  10
ENDBRANCH   8   9
ENDBRANCH   3   8
BRANCH   3  42
ATOM     42  C   UNL     1      24.990  26.894  19.376  1.00  0.00     0.364 C 
ATOM     43  O   UNL     1      24.949  25.905  20.104  1.00  0.00    -0.246 OA
BRANCH  42  44
ATOM     44  O   UNL     1      24.659  26.753  18.026  1.00  0.00    -0.477 OA
ATOM     45  H   UNL     1      24.467  25.828  17.613  1.00  0.00     0.296 HD
ENDBRANCH  42  44
ENDBRANCH   3  42
BRANCH   6  46
ATOM     46  O   UNL     1      26.220  30.313  21.057  1.00  0.00    -0.391 OA
ATOM     47  H   UNL     1      26.639  31.203  20.985  1.00  0.00     0.211 HD
ENDBRANCH   6  46
BRANCH   7  48
ATOM     48  N   UNL     1      29.391  28.852  20.250  1.00  0.00    -0.348 N 
ATOM     49  C   UNL     1      30.548  29.669  20.393  1.00  0.00     0.217 C 
ATOM     50  H   UNL     1      29.514  27.800  20.293  1.00  0.00     0.163 HD
ATOM     51  C   UNL     1      31.894  29.111  20.595  1.00  0.00     0.114 C 
ATOM     52  O   UNL     1      30.372  30.894  20.339  1.00  0.00    -0.275 OA
ENDBRANCH   7  48
ENDBRANCH   1   2
BRANCH   1  53
ATOM     53  O   UNL     1      27.340  28.818  16.535  1.00  0.00    -0.388 OA
ATOM     54  H   UNL     1      27.760  28.033  16.123  1.00  0.00     0.211 HD
ENDBRANCH   1  53
BRANCH   1  55
ATOM     55  C   UNL     1      28.055  30.823  17.701  1.00  0.00     0.165 C 
BRANCH  55  56
ATOM     56  O   UNL     1      26.794  31.299  17.329  1.00  0.00    -0.388 OA
ATOM     57  H   UNL     1      26.548  31.026  16.432  1.00  0.00     0.211 HD
ENDBRANCH  55  56
BRANCH  55  58
ATOM     58  C   UNL     1      29.139  31.434  16.847  1.00  0.00     0.154 C 
BRANCH  58  59
ATOM     59  N   UNL     1      28.931  32.805  16.515  1.00  0.00    -0.319 N 
ATOM     60  C   UNL     1      29.910  33.642  15.919  1.00  0.00     0.407 C 
ATOM     61  H   UNL     1      27.993  33.246  16.716  1.00  0.00     0.167 HD
ATOM     62  O   UNL     1      31.036  33.142  15.673  1.00  0.00    -0.225 OA
BRANCH  60  63
ATOM     63  O   UNL     1      29.696  34.962  15.603  1.00  0.00    -0.443 OA
BRANCH  63  64
ATOM     64  C   UNL     1      30.310  35.592  14.480  1.00  0.00     0.294 C 
BRANCH  64  65
ATOM     65  C   UNL     1      29.407  35.625  13.320  1.00  0.00     0.120 A 
ATOM     66  C   UNL     1      29.122  34.530  12.538  1.00  0.00     0.138 A 
ATOM     67  N   UNL     1      28.706  36.639  12.800  1.00  0.00    -0.132 NA
ATOM     68  N   UNL     1      28.271  34.896  11.577  1.00  0.00    -0.248 N 
ATOM     69  N   UNL     1      28.035  36.207  11.769  1.00  0.00    -0.067 NA
BRANCH  68  70
ATOM     70  C   UNL     1      27.681  34.120  10.504  1.00  0.00     0.185 C 
BRANCH  70  71
ATOM     71  C   UNL     1      28.150  34.565   9.187  1.00  0.00     0.016 A 
ATOM     72  C   UNL     1      27.305  35.040   8.244  1.00  0.00     0.135 A 
ATOM     73  C   UNL     1      29.525  34.492   8.949  1.00  0.00     0.009 A 
ATOM     74  C   UNL     1      27.828  35.460   7.020  1.00  0.00     0.047 A 
ATOM     75  C   UNL     1      30.027  34.907   7.742  1.00  0.00     0.001 A 
ATOM     76  C   UNL     1      29.185  35.394   6.769  1.00  0.00     0.004 A 
BRANCH  72  77
ATOM     77  O   UNL     1      25.941  35.130   8.432  1.00  0.00    -0.426 OA
BRANCH  77  78
ATOM     78  C   UNL     1      25.390  36.400   8.634  1.00  0.00     0.308 C 
ATOM     79  O   UNL     1      25.119  37.102   7.635  1.00  0.00    -0.252 OA
ATOM     80  C   UNL     1      25.143  36.882   9.995  1.00  0.00     0.139 C 
ENDBRANCH  77  78
ENDBRANCH  72  77
ENDBRANCH  70  71
ENDBRANCH  68  70
ENDBRANCH  64  65
ENDBRANCH  63  64
ENDBRANCH  60  63
ENDBRANCH  58  59
ENDBRANCH  55  58
ENDBRANCH   1  55
TORSDOF 33
BEGIN_RES LYS A 131
REMARK  4 active torsions:
REMARK  status: ('A' for Active; 'I' for Inactive)
REMARK    1  A    between atoms: CA   and  CB  
REMARK    2  A    between atoms: CB   and  CG  
REMARK    3  A    between atoms: CG   and  CD  
REMARK    4  A    between atoms: CD   and  CE  
ROOT
ATOM      1  CA  LYS A 131      29.867  25.555  16.977  1.00 20.52     0.186 C 
ENDROOT
BRANCH   1   2
ATOM      2  CB  LYS A 131      28.345  25.722  17.026  1.00 20.94     0.034 C 
BRANCH   2   3
ATOM      3  CG  LYS A 131      27.599  24.426  16.749  1.00 22.96     0.005 C 
BRANCH   3   4
ATOM      4  CD  LYS A 131      26.881  23.915  17.967  1.00 24.33     0.041 C 
BRANCH   4   5
ATOM      5  CE  LYS A 131      25.862  22.859  17.552  1.00 26.91     0.338 C 
ATOM      6  NZ  LYS A 131      24.482  23.370  17.729  1.00 27.40     0.618 N 
ENDBRANCH   4   5
ENDBRANCH   3   4
ENDBRANCH   2   3
ENDBRANCH   1   2
END_RES LYS A 131
BEGIN_RES LYS A 135
REMARK  4 active torsions:
REMARK  status: ('A' for Active; 'I' for Inactive)
REMARK    5  A    between atoms: CA   and  CB  
REMARK    6  A    between atoms: CB   and  CG  
REMARK    7  A    between atoms: CG   and  CD  
REMARK    8  A    between atoms: CD   and  CE  
ROOT
ATOM      7  CA  LYS A 135      33.193  34.663   9.290  1.00 25.02     0.186 C 
ENDROOT
BRANCH   7   8
ATOM      8  CB  LYS A 135      32.060  35.360  10.034  1.00 26.63     0.034 C 
BRANCH   8   9
ATOM      9  CG  LYS A 135      32.511  36.087  11.274  1.00 29.45     0.005 C 
BRANCH   9  10
ATOM     10  CD  LYS A 135      31.914  37.485  11.325  1.00 32.00     0.041 C 
BRANCH  10  11
ATOM     11  CE  LYS A 135      31.077  37.751  10.088  1.00 34.25     0.338 C 
ATOM     12  NZ  LYS A 135      31.624  38.894   9.306  1.00 35.99     0.618 N 
ENDBRANCH  10  11
ENDBRANCH   9  10
ENDBRANCH   8   9
ENDBRANCH   7   8
END_RES LYS A 135
