REMARK VINA RESULT:    -4.066      2.231      7.139
REMARK INTER + INTRA:         -22.078
REMARK INTER:                 -10.245
REMARK INTRA:                 -11.833
REMARK UNBOUND:               -11.833
REMARK SMILES CC(=O)N[C@@H]1[C@@H](O)C[C@](OC[C@H]2O[C@@H](O[C@H]3[C@H](O)[C@@H](O)[C@H](OCCN=[N+]=[N-])O[C@@H]3CO)[C@H](O)[C@@H](O)[C@H]2O)(C(=O)O)O[C@H]1C(O)[C@H](O)CNC(=O)OCc1cn(-c2ccccc2C(N)=O)nn1
REMARK SMILES IDX 9 1 8 2 6 3 5 4 42 5 41 6 10 7 11 8 12 9 14 10 13 11 32 12
REMARK SMILES IDX 34 13 36 14 15 15 16 16 29 17 28 18 21 19 17 20 19 21 30 22
REMARK SMILES IDX 31 23 22 25 23 26 24 27 25 28 26 29 27 30 18 31 20 33 33 35
REMARK SMILES IDX 35 37 37 39 38 41 39 42 40 43 7 45 43 47 44 48 45 50 46 51
REMARK SMILES IDX 47 53 48 54 49 55 50 57 51 58 52 59 53 60 54 61 66 62 55 63
REMARK SMILES IDX 65 64 56 65 61 66 57 67 60 68 58 69 59 70 62 71 64 72 63 73
REMARK SMILES IDX 4 76 2 77 1 79 3 80
REMARK H PARENT 31 24 18 32 20 34 33 36 35 38 37 40 40 44 7 46 44 49 46 52
REMARK H PARENT 48 56 63 74 63 75 4 78
REMARK Flexibility Score: inf
ROOT
ATOM      1  C   UNL     1      22.436  37.177   9.683  1.00  0.00     0.272 C 
ATOM      2  C   UNL     1      20.893  37.332   9.570  1.00  0.00     0.113 C 
ATOM      3  C   UNL     1      20.570  38.609  10.292  1.00  0.00     0.145 C 
ATOM      4  C   UNL     1      20.742  38.416  11.747  1.00  0.00     0.142 C 
ATOM      5  C   UNL     1      21.900  37.417  11.920  1.00  0.00     0.178 C 
ATOM      6  O   UNL     1      22.850  37.605  10.933  1.00  0.00    -0.332 OA
ENDROOT
BRANCH   1   7
ATOM      7  O   UNL     1      22.920  38.021   8.701  1.00  0.00    -0.338 OA
BRANCH   7   8
ATOM      8  C   UNL     1      23.874  37.475   7.894  1.00  0.00     0.199 C 
BRANCH   8   9
ATOM      9  C   UNL     1      25.080  38.379   7.715  1.00  0.00     0.179 C 
ATOM     10  C   UNL     1      26.706  39.401   9.036  1.00  0.00     0.282 C 
ATOM     11  O   UNL     1      25.641  38.515   8.983  1.00  0.00    -0.341 OA
ATOM     12  C   UNL     1      27.168  39.929   7.728  1.00  0.00     0.202 C 
ATOM     13  C   UNL     1      27.137  38.959   6.585  1.00  0.00     0.179 C 
ATOM     14  C   UNL     1      26.129  37.823   6.809  1.00  0.00     0.177 C 
BRANCH  10  15
ATOM     15  O   UNL     1      27.741  38.751   9.683  1.00  0.00    -0.341 OA
BRANCH  15  16
ATOM     16  C   UNL     1      27.437  38.394  10.985  1.00  0.00     0.184 C 
ATOM     17  C   UNL     1      28.446  39.053  11.901  1.00  0.00     0.178 C 
ATOM     18  O   UNL     1      29.469  38.234  12.235  1.00  0.00    -0.341 OA
ATOM     19  C   UNL     1      29.113  37.165  12.975  1.00  0.00     0.281 C 
ATOM     20  C   UNL     1      27.595  36.880  11.064  1.00  0.00     0.180 C 
ATOM     21  C   UNL     1      27.948  36.434  12.438  1.00  0.00     0.202 C 
BRANCH  17  22
ATOM     22  C   UNL     1      27.758  39.580  13.130  1.00  0.00     0.191 C 
BRANCH  22  23
ATOM     23  O   UNL     1      26.452  39.997  12.851  1.00  0.00    -0.394 OA
ATOM     24  H   UNL     1      26.527  40.964  12.588  1.00  0.00     0.210 HD
ENDBRANCH  22  23
ENDBRANCH  17  22
BRANCH  19  25
ATOM     25  O   UNL     1      29.008  37.432  14.348  1.00  0.00    -0.350 OA
BRANCH  25  26
ATOM     26  C   UNL     1      30.163  37.200  15.051  1.00  0.00     0.169 C 
BRANCH  26  27
ATOM     27  C   UNL     1      30.424  35.735  15.150  1.00  0.00     0.119 C 
BRANCH  27  28
ATOM     28  N   UNL     1      31.810  35.470  14.861  1.00  0.00    -0.092 NA
ATOM     29  N   UNL     1      32.297  35.622  13.733  1.00  0.00     0.001 N 
ATOM     30  N   UNL     1      32.597  36.030  12.609  1.00  0.00    -0.003 NA
ENDBRANCH  27  28
ENDBRANCH  26  27
ENDBRANCH  25  26
ENDBRANCH  19  25
BRANCH  20  31
ATOM     31  O   UNL     1      26.414  36.258  10.671  1.00  0.00    -0.387 OA
ATOM     32  H   UNL     1      26.265  35.418  11.209  1.00  0.00     0.211 HD
ENDBRANCH  20  31
BRANCH  21  33
ATOM     33  O   UNL     1      28.269  35.056  12.366  1.00  0.00    -0.385 OA
ATOM     34  H   UNL     1      28.854  34.836  13.148  1.00  0.00     0.211 HD
ENDBRANCH  21  33
ENDBRANCH  15  16
ENDBRANCH  10  15
BRANCH  12  35
ATOM     35  O   UNL     1      26.537  41.144   7.387  1.00  0.00    -0.385 OA
ATOM     36  H   UNL     1      27.151  41.618   6.784  1.00  0.00     0.211 HD
ENDBRANCH  12  35
BRANCH  13  37
ATOM     37  O   UNL     1      28.385  38.359   6.412  1.00  0.00    -0.387 OA
ATOM     38  H   UNL     1      28.397  37.421   6.775  1.00  0.00     0.211 HD
ENDBRANCH  13  37
BRANCH  14  39
ATOM     39  O   UNL     1      26.780  36.776   7.487  1.00  0.00    -0.387 OA
ATOM     40  H   UNL     1      26.178  36.151   7.920  1.00  0.00     0.211 HD
ENDBRANCH  14  39
ENDBRANCH   8   9
ENDBRANCH   7   8
ENDBRANCH   1   7
BRANCH   1  41
ATOM     41  C   UNL     1      22.795  35.770   9.489  1.00  0.00     0.364 C 
ATOM     42  O   UNL     1      23.872  35.299   9.994  1.00  0.00    -0.246 OA
BRANCH  41  43
ATOM     43  O   UNL     1      21.962  34.926   8.749  1.00  0.00    -0.477 OA
ATOM     44  H   UNL     1      20.974  35.164   8.741  1.00  0.00     0.296 HD
ENDBRANCH  41  43
ENDBRANCH   1  41
BRANCH   3  45
ATOM     45  O   UNL     1      21.560  39.543   9.892  1.00  0.00    -0.391 OA
ATOM     46  H   UNL     1      21.313  40.438  10.241  1.00  0.00     0.211 HD
ENDBRANCH   3  45
BRANCH   5  47
ATOM     47  C   UNL     1      22.426  37.466  13.326  1.00  0.00     0.176 C 
BRANCH  47  48
ATOM     48  O   UNL     1      22.088  36.235  13.921  1.00  0.00    -0.388 OA
ATOM     49  H   UNL     1      22.912  35.779  14.243  1.00  0.00     0.211 HD
ENDBRANCH  47  48
BRANCH  47  50
ATOM     50  C   UNL     1      23.957  37.497  13.342  1.00  0.00     0.165 C 
BRANCH  50  51
ATOM     51  O   UNL     1      24.433  36.305  12.771  1.00  0.00    -0.388 OA
ATOM     52  H   UNL     1      23.633  35.728  12.651  1.00  0.00     0.211 HD
ENDBRANCH  50  51
BRANCH  50  53
ATOM     53  C   UNL     1      24.507  37.627  14.721  1.00  0.00     0.154 C 
BRANCH  53  54
ATOM     54  N   UNL     1      24.822  36.343  15.287  1.00  0.00    -0.319 N 
ATOM     55  C   UNL     1      25.956  36.090  16.098  1.00  0.00     0.407 C 
ATOM     56  H   UNL     1      24.156  35.544  15.077  1.00  0.00     0.167 HD
ATOM     57  O   UNL     1      26.801  36.919  16.437  1.00  0.00    -0.225 OA
BRANCH  55  58
ATOM     58  O   UNL     1      26.171  34.777  16.582  1.00  0.00    -0.443 OA
BRANCH  58  59
ATOM     59  C   UNL     1      26.851  33.827  15.759  1.00  0.00     0.294 C 
BRANCH  59  60
ATOM     60  C   UNL     1      25.962  33.319  14.699  1.00  0.00     0.121 A 
ATOM     61  C   UNL     1      25.166  32.198  14.710  1.00  0.00     0.144 A 
ATOM     62  N   UNL     1      25.767  33.876  13.491  1.00  0.00    -0.131 NA
ATOM     63  N   UNL     1      24.513  32.095  13.532  1.00  0.00    -0.220 N 
ATOM     64  N   UNL     1      24.909  33.146  12.808  1.00  0.00    -0.062 NA
BRANCH  63  65
ATOM     65  C   UNL     1      23.600  31.103  13.101  1.00  0.00     0.079 A 
ATOM     66  C   UNL     1      22.312  31.475  12.811  1.00  0.00     0.065 A 
ATOM     67  C   UNL     1      23.982  29.783  12.972  1.00  0.00     0.029 A 
ATOM     68  C   UNL     1      21.371  30.542  12.385  1.00  0.00     0.016 A 
ATOM     69  C   UNL     1      23.052  28.831  12.546  1.00  0.00     0.002 A 
ATOM     70  C   UNL     1      21.764  29.225  12.260  1.00  0.00     0.001 A 
BRANCH  66  71
ATOM     71  C   UNL     1      21.918  32.862  12.950  1.00  0.00     0.250 C 
ATOM     72  O   UNL     1      21.544  33.275  14.077  1.00  0.00    -0.269 OA
ATOM     73  N   UNL     1      21.926  33.792  11.891  1.00  0.00    -0.366 N 
ATOM     74  H   UNL     1      22.501  34.645  11.960  1.00  0.00     0.159 HD
ATOM     75  H   UNL     1      21.356  33.616  11.050  1.00  0.00     0.159 HD
ENDBRANCH  66  71
ENDBRANCH  63  65
ENDBRANCH  59  60
ENDBRANCH  58  59
ENDBRANCH  55  58
ENDBRANCH  53  54
ENDBRANCH  50  53
ENDBRANCH  47  50
ENDBRANCH   5  47
BRANCH   4  76
ATOM     76  N   UNL     1      19.640  37.919  12.473  1.00  0.00    -0.348 N 
ATOM     77  C   UNL     1      18.935  38.685  13.436  1.00  0.00     0.217 C 
ATOM     78  H   UNL     1      19.320  36.937  12.300  1.00  0.00     0.163 HD
ATOM     79  C   UNL     1      17.777  38.200  14.216  1.00  0.00     0.114 C 
ATOM     80  O   UNL     1      19.377  39.869  13.594  1.00  0.00    -0.275 OA
ENDBRANCH   4  76
TORSDOF 31
BEGIN_RES LYS A 131
REMARK  4 active torsions:
REMARK  status: ('A' for Active; 'I' for Inactive)
REMARK    1  A    between atoms: CA   and  CB  
REMARK    2  A    between atoms: CB   and  CG  
REMARK    3  A    between atoms: CG   and  CD  
REMARK    4  A    between atoms: CD   and  CE  
ROOT
ATOM      1  CA  LYS A 131      29.867  25.555  16.977  1.00 20.52     0.186 C 
ENDROOT
BRANCH   1   2
ATOM      2  CB  LYS A 131      28.345  25.722  17.026  1.00 20.94     0.034 C 
BRANCH   2   3
ATOM      3  CG  LYS A 131      27.603  24.396  16.967  1.00 22.96     0.005 C 
BRANCH   3   4
ATOM      4  CD  LYS A 131      26.117  24.571  17.114  1.00 24.33     0.041 C 
BRANCH   4   5
ATOM      5  CE  LYS A 131      25.761  24.677  18.594  1.00 26.91     0.338 C 
ATOM      6  NZ  LYS A 131      25.760  23.336  19.225  1.00 27.40     0.618 N 
ENDBRANCH   4   5
ENDBRANCH   3   4
ENDBRANCH   2   3
ENDBRANCH   1   2
END_RES LYS A 131
BEGIN_RES LYS A 135
REMARK  4 active torsions:
REMARK  status: ('A' for Active; 'I' for Inactive)
REMARK    5  A    between atoms: CA   and  CB  
REMARK    6  A    between atoms: CB   and  CG  
REMARK    7  A    between atoms: CG   and  CD  
REMARK    8  A    between atoms: CD   and  CE  
ROOT
ATOM      7  CA  LYS A 135      33.193  34.663   9.290  1.00 25.02     0.186 C 
ENDROOT
BRANCH   7   8
ATOM      8  CB  LYS A 135      32.060  35.360  10.034  1.00 26.63     0.034 C 
BRANCH   8   9
ATOM      9  CG  LYS A 135      30.746  34.627   9.953  1.00 29.45     0.005 C 
BRANCH   9  10
ATOM     10  CD  LYS A 135      30.375  34.348   8.505  1.00 32.00     0.041 C 
BRANCH  10  11
ATOM     11  CE  LYS A 135      28.875  34.462   8.308  1.00 34.25     0.338 C 
ATOM     12  NZ  LYS A 135      28.137  33.703   9.355  1.00 35.99     0.618 N 
ENDBRANCH  10  11
ENDBRANCH   9  10
ENDBRANCH   8   9
ENDBRANCH   7   8
END_RES LYS A 135
