REMARK VINA RESULT:    -4.544      2.533      7.415
REMARK INTER + INTRA:         -22.100
REMARK INTER:                  -9.366
REMARK INTRA:                 -12.734
REMARK UNBOUND:               -10.516
REMARK SMILES CC(=O)N[C@@H]1[C@@H](O)C[C@](OC[C@H]2O[C@@H](O[C@H]3[C@H](O)[C@@H](O)[C@H](OCCN=[N+]=[N-])O[C@@H]3CO)[C@H](O)[C@@H](O)[C@H]2O)(C(=O)O)O[C@H]1C(O)[C@H](O)CNC(=O)OCc1cn(C(C)(C)C(=O)O)nn1
REMARK SMILES IDX 9 1 8 2 6 3 5 4 42 5 41 6 10 7 11 8 12 9 14 10 13 11 32 12
REMARK SMILES IDX 34 13 36 14 15 15 16 16 29 17 28 18 21 19 17 20 19 21 30 22
REMARK SMILES IDX 31 23 22 25 23 26 24 27 25 28 26 29 27 30 18 31 20 33 33 35
REMARK SMILES IDX 35 37 37 39 38 41 39 42 40 43 7 45 43 47 44 48 45 50 46 51
REMARK SMILES IDX 47 53 48 54 49 55 50 57 51 58 52 59 53 60 54 61 63 62 55 63
REMARK SMILES IDX 62 64 56 65 57 66 58 67 59 68 60 69 61 70 4 72 2 73 1 75
REMARK SMILES IDX 3 76
REMARK H PARENT 31 24 18 32 20 34 33 36 35 38 37 40 40 44 7 46 44 49 46 52
REMARK H PARENT 48 56 61 71 4 74
REMARK Flexibility Score: inf
ROOT
ATOM      1  C   UNL     1      26.972  33.761  15.498  1.00  0.00     0.272 C 
ATOM      2  C   UNL     1      26.398  32.641  16.264  1.00  0.00     0.113 C 
ATOM      3  C   UNL     1      25.567  31.679  15.463  1.00  0.00     0.145 C 
ATOM      4  C   UNL     1      24.992  32.372  14.266  1.00  0.00     0.142 C 
ATOM      5  C   UNL     1      24.823  33.845  14.684  1.00  0.00     0.178 C 
ATOM      6  O   UNL     1      26.074  34.417  14.649  1.00  0.00    -0.332 OA
ENDROOT
BRANCH   1   7
ATOM      7  O   UNL     1      28.077  33.450  14.768  1.00  0.00    -0.338 OA
BRANCH   7   8
ATOM      8  C   UNL     1      29.076  32.746  15.364  1.00  0.00     0.199 C 
BRANCH   8   9
ATOM      9  C   UNL     1      30.431  33.146  14.826  1.00  0.00     0.179 C 
ATOM     10  C   UNL     1      31.445  34.798  13.572  1.00  0.00     0.282 C 
ATOM     11  O   UNL     1      30.281  34.446  14.350  1.00  0.00    -0.341 OA
ATOM     12  C   UNL     1      32.557  34.945  14.540  1.00  0.00     0.202 C 
ATOM     13  C   UNL     1      32.171  34.458  15.935  1.00  0.00     0.179 C 
ATOM     14  C   UNL     1      31.483  33.102  15.870  1.00  0.00     0.177 C 
BRANCH  10  15
ATOM     15  O   UNL     1      31.037  35.892  12.871  1.00  0.00    -0.341 OA
BRANCH  15  16
ATOM     16  C   UNL     1      30.032  36.634  13.467  1.00  0.00     0.184 C 
ATOM     17  C   UNL     1      29.225  37.328  12.415  1.00  0.00     0.178 C 
ATOM     18  O   UNL     1      28.542  38.436  12.939  1.00  0.00    -0.341 OA
ATOM     19  C   UNL     1      29.384  39.505  13.210  1.00  0.00     0.281 C 
ATOM     20  C   UNL     1      30.629  37.714  14.369  1.00  0.00     0.180 C 
ATOM     21  C   UNL     1      30.758  39.005  13.601  1.00  0.00     0.202 C 
BRANCH  17  22
ATOM     22  C   UNL     1      28.112  36.419  11.867  1.00  0.00     0.191 C 
BRANCH  22  23
ATOM     23  O   UNL     1      28.067  35.295  12.667  1.00  0.00    -0.394 OA
ATOM     24  H   UNL     1      28.254  35.573  13.613  1.00  0.00     0.210 HD
ENDBRANCH  22  23
ENDBRANCH  17  22
BRANCH  19  25
ATOM     25  O   UNL     1      28.788  40.214  14.252  1.00  0.00    -0.350 OA
BRANCH  25  26
ATOM     26  C   UNL     1      27.418  40.245  14.220  1.00  0.00     0.169 C 
BRANCH  26  27
ATOM     27  C   UNL     1      26.954  40.063  15.672  1.00  0.00     0.119 C 
BRANCH  27  28
ATOM     28  N   UNL     1      26.937  38.675  16.067  1.00  0.00    -0.092 NA
ATOM     29  N   UNL     1      25.895  38.026  15.887  1.00  0.00     0.001 N 
ATOM     30  N   UNL     1      24.800  37.482  15.928  1.00  0.00    -0.003 NA
ENDBRANCH  27  28
ENDBRANCH  26  27
ENDBRANCH  25  26
ENDBRANCH  19  25
BRANCH  20  31
ATOM     31  O   UNL     1      29.775  37.940  15.443  1.00  0.00    -0.387 OA
ATOM     32  H   UNL     1      28.857  38.181  15.165  1.00  0.00     0.211 HD
ENDBRANCH  20  31
BRANCH  21  33
ATOM     33  O   UNL     1      31.558  38.769  12.489  1.00  0.00    -0.385 OA
ATOM     34  H   UNL     1      32.521  38.885  12.665  1.00  0.00     0.211 HD
ENDBRANCH  21  33
ENDBRANCH  15  16
ENDBRANCH  10  15
BRANCH  12  35
ATOM     35  O   UNL     1      33.603  34.083  14.143  1.00  0.00    -0.385 OA
ATOM     36  H   UNL     1      34.365  34.539  13.757  1.00  0.00     0.211 HD
ENDBRANCH  12  35
BRANCH  13  37
ATOM     37  O   UNL     1      31.386  35.398  16.574  1.00  0.00    -0.387 OA
ATOM     38  H   UNL     1      30.905  35.959  15.913  1.00  0.00     0.211 HD
ENDBRANCH  13  37
BRANCH  14  39
ATOM     39  O   UNL     1      30.941  32.867  17.123  1.00  0.00    -0.387 OA
ATOM     40  H   UNL     1      31.630  33.115  17.803  1.00  0.00     0.211 HD
ENDBRANCH  14  39
ENDBRANCH   8   9
ENDBRANCH   7   8
ENDBRANCH   1   7
BRANCH   1  41
ATOM     41  C   UNL     1      27.321  34.851  16.519  1.00  0.00     0.364 C 
ATOM     42  O   UNL     1      26.673  34.948  17.583  1.00  0.00    -0.246 OA
BRANCH  41  43
ATOM     43  O   UNL     1      28.351  35.742  16.287  1.00  0.00    -0.477 OA
ATOM     44  H   UNL     1      28.622  36.065  15.372  1.00  0.00     0.296 HD
ENDBRANCH  41  43
ENDBRANCH   1  41
BRANCH   3  45
ATOM     45  O   UNL     1      26.362  30.634  15.043  1.00  0.00    -0.391 OA
ATOM     46  H   UNL     1      25.880  30.004  14.446  1.00  0.00     0.211 HD
ENDBRANCH   3  45
BRANCH   5  47
ATOM     47  C   UNL     1      23.875  34.571  13.772  1.00  0.00     0.176 C 
BRANCH  47  48
ATOM     48  O   UNL     1      23.218  35.570  14.486  1.00  0.00    -0.388 OA
ATOM     49  H   UNL     1      22.881  36.284  13.867  1.00  0.00     0.211 HD
ENDBRANCH  47  48
BRANCH  47  50
ATOM     50  C   UNL     1      24.643  35.227  12.648  1.00  0.00     0.165 C 
BRANCH  50  51
ATOM     51  O   UNL     1      25.077  36.508  13.018  1.00  0.00    -0.388 OA
ATOM     52  H   UNL     1      25.976  36.645  12.645  1.00  0.00     0.211 HD
ENDBRANCH  50  51
BRANCH  50  53
ATOM     53  C   UNL     1      23.839  35.347  11.381  1.00  0.00     0.154 C 
BRANCH  53  54
ATOM     54  N   UNL     1      24.149  36.563  10.670  1.00  0.00    -0.319 N 
ATOM     55  C   UNL     1      24.953  36.557   9.505  1.00  0.00     0.407 C 
ATOM     56  H   UNL     1      23.779  37.473  11.009  1.00  0.00     0.167 HD
ATOM     57  O   UNL     1      25.435  35.498   9.031  1.00  0.00    -0.225 OA
BRANCH  55  58
ATOM     58  O   UNL     1      25.250  37.747   8.824  1.00  0.00    -0.443 OA
BRANCH  58  59
ATOM     59  C   UNL     1      25.525  38.926   9.587  1.00  0.00     0.294 C 
BRANCH  59  60
ATOM     60  C   UNL     1      26.819  39.503   9.226  1.00  0.00     0.120 A 
ATOM     61  C   UNL     1      27.993  38.820   9.039  1.00  0.00     0.139 A 
ATOM     62  N   UNL     1      27.080  40.796   9.018  1.00  0.00    -0.132 NA
ATOM     63  N   UNL     1      28.952  39.712   8.720  1.00  0.00    -0.235 N 
ATOM     64  N   UNL     1      28.347  40.904   8.719  1.00  0.00    -0.066 NA
BRANCH  63  65
ATOM     65  C   UNL     1      30.353  39.493   8.428  1.00  0.00     0.155 C 
ATOM     66  C   UNL     1      30.574  39.423   6.946  1.00  0.00     0.049 C 
ATOM     67  C   UNL     1      30.832  38.179   9.037  1.00  0.00     0.049 C 
BRANCH  65  68
ATOM     68  C   UNL     1      31.125  40.588   9.057  1.00  0.00     0.331 C 
ATOM     69  O   UNL     1      31.881  41.278   8.357  1.00  0.00    -0.250 OA
BRANCH  68  70
ATOM     70  O   UNL     1      30.984  40.815  10.415  1.00  0.00    -0.479 OA
ATOM     71  H   UNL     1      30.086  40.791  10.884  1.00  0.00     0.296 HD
ENDBRANCH  68  70
ENDBRANCH  65  68
ENDBRANCH  63  65
ENDBRANCH  59  60
ENDBRANCH  58  59
ENDBRANCH  55  58
ENDBRANCH  53  54
ENDBRANCH  50  53
ENDBRANCH  47  50
ENDBRANCH   5  47
BRANCH   4  72
ATOM     72  N   UNL     1      23.673  31.903  13.929  1.00  0.00    -0.348 N 
ATOM     73  C   UNL     1      23.415  30.735  13.157  1.00  0.00     0.217 C 
ATOM     74  H   UNL     1      22.856  32.445  14.273  1.00  0.00     0.163 HD
ATOM     75  C   UNL     1      22.012  30.317  12.852  1.00  0.00     0.114 C 
ATOM     76  O   UNL     1      24.384  30.054  12.730  1.00  0.00    -0.275 OA
ENDBRANCH   4  72
TORSDOF 32
BEGIN_RES LYS A 131
REMARK  4 active torsions:
REMARK  status: ('A' for Active; 'I' for Inactive)
REMARK    1  A    between atoms: CA   and  CB  
REMARK    2  A    between atoms: CB   and  CG  
REMARK    3  A    between atoms: CG   and  CD  
REMARK    4  A    between atoms: CD   and  CE  
ROOT
ATOM      1  CA  LYS A 131      29.867  25.555  16.977  1.00 20.52     0.186 C 
ENDROOT
BRANCH   1   2
ATOM      2  CB  LYS A 131      28.345  25.722  17.026  1.00 20.94     0.034 C 
BRANCH   2   3
ATOM      3  CG  LYS A 131      27.601  24.403  16.888  1.00 22.96     0.005 C 
BRANCH   3   4
ATOM      4  CD  LYS A 131      26.596  24.201  17.988  1.00 24.33     0.041 C 
BRANCH   4   5
ATOM      5  CE  LYS A 131      25.246  23.831  17.382  1.00 26.91     0.338 C 
ATOM      6  NZ  LYS A 131      24.965  22.390  17.583  1.00 27.40     0.618 N 
ENDBRANCH   4   5
ENDBRANCH   3   4
ENDBRANCH   2   3
ENDBRANCH   1   2
END_RES LYS A 131
BEGIN_RES LYS A 135
REMARK  4 active torsions:
REMARK  status: ('A' for Active; 'I' for Inactive)
REMARK    5  A    between atoms: CA   and  CB  
REMARK    6  A    between atoms: CB   and  CG  
REMARK    7  A    between atoms: CG   and  CD  
REMARK    8  A    between atoms: CD   and  CE  
ROOT
ATOM      7  CA  LYS A 135      33.193  34.663   9.290  1.00 25.02     0.186 C 
ENDROOT
BRANCH   7   8
ATOM      8  CB  LYS A 135      32.060  35.360  10.034  1.00 26.63     0.034 C 
BRANCH   8   9
ATOM      9  CG  LYS A 135      30.736  34.650   9.918  1.00 29.45     0.005 C 
BRANCH   9  10
ATOM     10  CD  LYS A 135      30.325  34.516   8.460  1.00 32.00     0.041 C 
BRANCH  10  11
ATOM     11  CE  LYS A 135      28.814  34.499   8.332  1.00 34.25     0.338 C 
ATOM     12  NZ  LYS A 135      28.190  33.730   9.444  1.00 35.99     0.618 N 
ENDBRANCH  10  11
ENDBRANCH   9  10
ENDBRANCH   8   9
ENDBRANCH   7   8
END_RES LYS A 135
