REMARK VINA RESULT:    -4.676      3.137      7.707
REMARK INTER + INTRA:         -22.051
REMARK INTER:                 -11.065
REMARK INTRA:                 -10.986
REMARK UNBOUND:               -10.541
REMARK SMILES CC(=O)N[C@@H]1[C@@H](O)C[C@](OC[C@H]2O[C@@H](O[C@H]3[C@H](O)[C@@H](O)[C@H](OCCN=[N+]=[N-])O[C@@H]3CO)[C@H](O)[C@@H](O)[C@H]2O)(C(=O)O)O[C@H]1C(O)[C@H](O)CNC(=O)OCc1cn(-c2ccccc2)nn1
REMARK SMILES IDX 9 1 8 2 6 3 5 4 42 5 41 6 10 7 11 8 12 9 14 10 13 11 32 12
REMARK SMILES IDX 34 13 36 14 15 15 16 16 29 17 28 18 21 19 17 20 19 21 30 22
REMARK SMILES IDX 31 23 22 25 23 26 24 27 25 28 26 29 27 30 18 31 20 33 33 35
REMARK SMILES IDX 35 37 37 39 38 41 39 42 40 43 7 45 43 47 44 48 45 50 46 51
REMARK SMILES IDX 47 53 48 54 49 55 50 57 51 58 52 59 53 60 54 61 63 62 55 63
REMARK SMILES IDX 62 64 56 65 57 66 61 67 58 68 60 69 59 70 4 71 2 72 1 74
REMARK SMILES IDX 3 75
REMARK H PARENT 31 24 18 32 20 34 33 36 35 38 37 40 40 44 7 46 44 49 46 52
REMARK H PARENT 48 56 4 73
REMARK Flexibility Score: inf
ROOT
ATOM      1  C   UNL     1      30.067  39.097  11.348  1.00  0.00     0.272 C 
ATOM      2  C   UNL     1      31.255  38.232  11.142  1.00  0.00     0.113 C 
ATOM      3  C   UNL     1      31.742  37.528  12.353  1.00  0.00     0.145 C 
ATOM      4  C   UNL     1      30.576  36.996  13.165  1.00  0.00     0.142 C 
ATOM      5  C   UNL     1      29.720  38.195  13.503  1.00  0.00     0.178 C 
ATOM      6  O   UNL     1      29.152  38.589  12.319  1.00  0.00    -0.332 OA
ENDROOT
BRANCH   1   7
ATOM      7  O   UNL     1      29.260  39.251  10.259  1.00  0.00    -0.338 OA
BRANCH   7   8
ATOM      8  C   UNL     1      29.673  39.210   9.006  1.00  0.00     0.199 C 
BRANCH   8   9
ATOM      9  C   UNL     1      28.923  38.538   7.922  1.00  0.00     0.179 C 
ATOM     10  C   UNL     1      27.120  37.077   7.678  1.00  0.00     0.282 C 
ATOM     11  O   UNL     1      28.043  37.629   8.592  1.00  0.00    -0.341 OA
ATOM     12  C   UNL     1      27.395  37.413   6.249  1.00  0.00     0.202 C 
ATOM     13  C   UNL     1      27.407  38.910   6.029  1.00  0.00     0.179 C 
ATOM     14  C   UNL     1      27.999  39.559   7.246  1.00  0.00     0.177 C 
BRANCH  10  15
ATOM     15  O   UNL     1      25.895  37.526   8.010  1.00  0.00    -0.341 OA
BRANCH  15  16
ATOM     16  C   UNL     1      25.079  36.847   8.837  1.00  0.00     0.184 C 
ATOM     17  C   UNL     1      23.887  37.621   9.350  1.00  0.00     0.178 C 
ATOM     18  O   UNL     1      23.519  36.994  10.556  1.00  0.00    -0.341 OA
ATOM     19  C   UNL     1      24.379  37.545  11.531  1.00  0.00     0.281 C 
ATOM     20  C   UNL     1      25.811  36.250  10.040  1.00  0.00     0.180 C 
ATOM     21  C   UNL     1      25.823  37.242  11.185  1.00  0.00     0.202 C 
BRANCH  17  22
ATOM     22  C   UNL     1      22.693  37.522   8.425  1.00  0.00     0.191 C 
BRANCH  22  23
ATOM     23  O   UNL     1      23.082  37.958   7.155  1.00  0.00    -0.394 OA
ATOM     24  H   UNL     1      23.774  37.344   6.753  1.00  0.00     0.210 HD
ENDBRANCH  22  23
ENDBRANCH  17  22
BRANCH  19  25
ATOM     25  O   UNL     1      24.117  37.069  12.779  1.00  0.00    -0.350 OA
BRANCH  25  26
ATOM     26  C   UNL     1      22.832  37.153  13.238  1.00  0.00     0.169 C 
BRANCH  26  27
ATOM     27  C   UNL     1      22.408  36.051  14.157  1.00  0.00     0.119 C 
BRANCH  27  28
ATOM     28  N   UNL     1      22.259  36.498  15.493  1.00  0.00    -0.092 NA
ATOM     29  N   UNL     1      21.427  37.368  15.810  1.00  0.00     0.001 N 
ATOM     30  N   UNL     1      20.812  38.444  15.881  1.00  0.00    -0.003 NA
ENDBRANCH  27  28
ENDBRANCH  26  27
ENDBRANCH  25  26
ENDBRANCH  19  25
BRANCH  20  31
ATOM     31  O   UNL     1      25.220  35.087  10.513  1.00  0.00    -0.387 OA
ATOM     32  H   UNL     1      24.688  35.255  11.329  1.00  0.00     0.211 HD
ENDBRANCH  20  31
BRANCH  21  33
ATOM     33  O   UNL     1      26.510  38.398  10.879  1.00  0.00    -0.385 OA
ATOM     34  H   UNL     1      27.373  38.239  10.434  1.00  0.00     0.211 HD
ENDBRANCH  21  33
ENDBRANCH  15  16
ENDBRANCH  10  15
BRANCH  12  35
ATOM     35  O   UNL     1      28.488  36.758   5.696  1.00  0.00    -0.385 OA
ATOM     36  H   UNL     1      28.196  35.839   5.465  1.00  0.00     0.211 HD
ENDBRANCH  12  35
BRANCH  13  37
ATOM     37  O   UNL     1      26.104  39.347   5.882  1.00  0.00    -0.387 OA
ATOM     38  H   UNL     1      25.990  40.070   5.216  1.00  0.00     0.211 HD
ENDBRANCH  13  37
BRANCH  14  39
ATOM     39  O   UNL     1      26.998  39.852   8.201  1.00  0.00    -0.387 OA
ATOM     40  H   UNL     1      27.200  39.441   9.067  1.00  0.00     0.211 HD
ENDBRANCH  14  39
ENDBRANCH   8   9
ENDBRANCH   7   8
ENDBRANCH   1   7
BRANCH   1  41
ATOM     41  C   UNL     1      30.479  40.380  11.961  1.00  0.00     0.364 C 
ATOM     42  O   UNL     1      31.651  40.755  11.962  1.00  0.00    -0.246 OA
BRANCH  41  43
ATOM     43  O   UNL     1      29.518  41.212  12.572  1.00  0.00    -0.477 OA
ATOM     44  H   UNL     1      29.397  42.154  12.205  1.00  0.00     0.296 HD
ENDBRANCH  41  43
ENDBRANCH   1  41
BRANCH   3  45
ATOM     45  O   UNL     1      32.615  36.507  11.982  1.00  0.00    -0.391 OA
ATOM     46  H   UNL     1      32.876  36.043  12.795  1.00  0.00     0.211 HD
ENDBRANCH   3  45
BRANCH   5  47
ATOM     47  C   UNL     1      28.570  37.806  14.426  1.00  0.00     0.176 C 
BRANCH  47  48
ATOM     48  O   UNL     1      29.012  37.919  15.717  1.00  0.00    -0.388 OA
ATOM     49  H   UNL     1      29.708  38.598  15.854  1.00  0.00     0.211 HD
ENDBRANCH  47  48
BRANCH  47  50
ATOM     50  C   UNL     1      27.296  38.506  14.195  1.00  0.00     0.165 C 
BRANCH  50  51
ATOM     51  O   UNL     1      27.564  39.897  14.401  1.00  0.00    -0.388 OA
ATOM     52  H   UNL     1      26.938  40.191  15.088  1.00  0.00     0.211 HD
ENDBRANCH  50  51
BRANCH  50  53
ATOM     53  C   UNL     1      26.257  38.185  15.281  1.00  0.00     0.154 C 
BRANCH  53  54
ATOM     54  N   UNL     1      25.982  36.773  15.364  1.00  0.00    -0.319 N 
ATOM     55  C   UNL     1      26.370  35.995  16.510  1.00  0.00     0.407 C 
ATOM     56  H   UNL     1      25.493  36.242  14.614  1.00  0.00     0.167 HD
ATOM     57  O   UNL     1      26.952  36.530  17.481  1.00  0.00    -0.225 OA
BRANCH  55  58
ATOM     58  O   UNL     1      26.109  34.639  16.569  1.00  0.00    -0.443 OA
BRANCH  58  59
ATOM     59  C   UNL     1      26.820  33.711  15.758  1.00  0.00     0.294 C 
BRANCH  59  60
ATOM     60  C   UNL     1      25.894  33.366  14.639  1.00  0.00     0.121 A 
ATOM     61  C   UNL     1      25.138  32.201  14.606  1.00  0.00     0.144 A 
ATOM     62  N   UNL     1      25.594  34.020  13.514  1.00  0.00    -0.131 NA
ATOM     63  N   UNL     1      24.403  32.183  13.464  1.00  0.00    -0.220 N 
ATOM     64  N   UNL     1      24.704  33.295  12.831  1.00  0.00    -0.062 NA
BRANCH  63  65
ATOM     65  C   UNL     1      23.505  31.168  13.047  1.00  0.00     0.066 A 
ATOM     66  C   UNL     1      23.899  29.856  12.926  1.00  0.00     0.028 A 
ATOM     67  C   UNL     1      22.196  31.484  12.758  1.00  0.00     0.028 A 
ATOM     68  C   UNL     1      23.030  28.862  12.528  1.00  0.00     0.002 A 
ATOM     69  C   UNL     1      21.325  30.482  12.358  1.00  0.00     0.002 A 
ATOM     70  C   UNL     1      21.700  29.167  12.231  1.00  0.00     0.000 A 
ENDBRANCH  63  65
ENDBRANCH  59  60
ENDBRANCH  58  59
ENDBRANCH  55  58
ENDBRANCH  53  54
ENDBRANCH  50  53
ENDBRANCH  47  50
ENDBRANCH   5  47
BRANCH   4  71
ATOM     71  N   UNL     1      31.006  36.197  14.257  1.00  0.00    -0.348 N 
ATOM     72  C   UNL     1      30.708  34.809  14.258  1.00  0.00     0.217 C 
ATOM     73  H   UNL     1      31.545  36.585  15.053  1.00  0.00     0.163 HD
ATOM     74  C   UNL     1      31.149  33.945  15.395  1.00  0.00     0.114 C 
ATOM     75  O   UNL     1      30.069  34.249  13.316  1.00  0.00    -0.275 OA
ENDBRANCH   4  71
TORSDOF 30
BEGIN_RES LYS A 131
REMARK  4 active torsions:
REMARK  status: ('A' for Active; 'I' for Inactive)
REMARK    1  A    between atoms: CA   and  CB  
REMARK    2  A    between atoms: CB   and  CG  
REMARK    3  A    between atoms: CG   and  CD  
REMARK    4  A    between atoms: CD   and  CE  
ROOT
ATOM      1  CA  LYS A 131      29.867  25.555  16.977  1.00 20.52     0.186 C 
ENDROOT
BRANCH   1   2
ATOM      2  CB  LYS A 131      28.345  25.722  17.026  1.00 20.94     0.034 C 
BRANCH   2   3
ATOM      3  CG  LYS A 131      27.602  24.400  16.913  1.00 22.96     0.005 C 
BRANCH   3   4
ATOM      4  CD  LYS A 131      26.154  24.529  17.299  1.00 24.33     0.041 C 
BRANCH   4   5
ATOM      5  CE  LYS A 131      25.795  23.438  18.303  1.00 26.91     0.338 C 
ATOM      6  NZ  LYS A 131      25.066  22.336  17.632  1.00 27.40     0.618 N 
ENDBRANCH   4   5
ENDBRANCH   3   4
ENDBRANCH   2   3
ENDBRANCH   1   2
END_RES LYS A 131
BEGIN_RES LYS A 135
REMARK  4 active torsions:
REMARK  status: ('A' for Active; 'I' for Inactive)
REMARK    5  A    between atoms: CA   and  CB  
REMARK    6  A    between atoms: CB   and  CG  
REMARK    7  A    between atoms: CG   and  CD  
REMARK    8  A    between atoms: CD   and  CE  
ROOT
ATOM      7  CA  LYS A 135      33.193  34.663   9.290  1.00 25.02     0.186 C 
ENDROOT
BRANCH   7   8
ATOM      8  CB  LYS A 135      32.060  35.360  10.034  1.00 26.63     0.034 C 
BRANCH   8   9
ATOM      9  CG  LYS A 135      30.812  35.531   9.207  1.00 29.45     0.005 C 
BRANCH   9  10
ATOM     10  CD  LYS A 135      30.320  34.186   8.694  1.00 32.00     0.041 C 
BRANCH  10  11
ATOM     11  CE  LYS A 135      28.808  34.183   8.573  1.00 34.25     0.338 C 
ATOM     12  NZ  LYS A 135      28.169  33.757   9.849  1.00 35.99     0.618 N 
ENDBRANCH  10  11
ENDBRANCH   9  10
ENDBRANCH   8   9
ENDBRANCH   7   8
END_RES LYS A 135
