REMARK VINA RESULT:    -4.054      6.511     12.186
REMARK INTER + INTRA:         -23.999
REMARK INTER:                 -11.863
REMARK INTRA:                 -12.136
REMARK UNBOUND:               -13.073
REMARK SMILES CC(=O)N[C@@H]1[C@@H](O)C[C@](OC[C@H]2O[C@@H](O[C@H]3[C@H](O)[C@@H](O)[C@H](OCCN=[N+]=[N-])O[C@@H]3CO)[C@H](O)[C@@H](O)[C@H]2O)(C(=O)O)O[C@H]1C(O)[C@H](O)CNC(=O)OCc1cn(C[C@@H](C)CN2CCN(c3ccc(Cl)cc3)CC2)nn1
REMARK SMILES IDX 43 1 42 2 9 3 8 4 41 5 6 6 5 7 10 8 11 9 12 10 14 11 13 12
REMARK SMILES IDX 32 13 34 14 36 15 15 16 16 17 29 18 28 19 21 20 17 21 19 22
REMARK SMILES IDX 30 23 31 24 22 26 23 27 24 28 25 29 26 30 27 31 18 32 20 34
REMARK SMILES IDX 33 36 35 38 37 40 38 42 39 43 40 44 7 46 4 48 2 49 1 51 3 52
REMARK SMILES IDX 44 53 45 55 46 56 47 58 48 59 49 60 50 62 51 63 52 64 53 65
REMARK SMILES IDX 54 66 74 67 55 68 73 69 56 70 57 71 58 72 59 73 60 74 61 75
REMARK SMILES IDX 72 76 62 77 71 78 63 79 64 80 65 81 70 82 66 83 69 84 67 85
REMARK SMILES IDX 68 86
REMARK H PARENT 31 25 18 33 20 35 33 37 35 39 37 41 40 45 7 47 4 50 44 54
REMARK H PARENT 46 57 48 61
REMARK Flexibility Score: inf
ROOT
ATOM      1  C   UNL     1      31.745  30.577  23.161  1.00  0.00     0.176 C 
ENDROOT
BRANCH   1   2
ATOM      2  C   UNL     1      31.794  29.080  23.431  1.00  0.00     0.178 C 
ATOM      3  C   UNL     1      30.469  27.135  23.647  1.00  0.00     0.272 C 
ATOM      4  C   UNL     1      31.577  26.614  24.420  1.00  0.00     0.113 C 
ATOM      5  O   UNL     1      30.550  28.561  23.579  1.00  0.00    -0.332 OA
ATOM      6  C   UNL     1      32.188  27.638  25.359  1.00  0.00     0.145 C 
ATOM      7  C   UNL     1      32.801  28.733  24.475  1.00  0.00     0.142 C 
BRANCH   3   8
ATOM      8  O   UNL     1      29.205  26.907  23.991  1.00  0.00    -0.338 OA
BRANCH   8   9
ATOM      9  C   UNL     1      28.273  27.753  24.344  1.00  0.00     0.199 C 
BRANCH   9  10
ATOM     10  C   UNL     1      26.915  27.798  23.705  1.00  0.00     0.179 C 
ATOM     11  C   UNL     1      25.924  26.613  21.956  1.00  0.00     0.282 C 
ATOM     12  O   UNL     1      26.907  27.465  22.381  1.00  0.00    -0.341 OA
ATOM     13  C   UNL     1      26.114  25.265  22.627  1.00  0.00     0.202 C 
ATOM     14  C   UNL     1      26.049  25.464  24.106  1.00  0.00     0.179 C 
ATOM     15  C   UNL     1      25.975  26.895  24.517  1.00  0.00     0.177 C 
BRANCH  11  16
ATOM     16  O   UNL     1      26.141  26.427  20.570  1.00  0.00    -0.341 OA
BRANCH  16  17
ATOM     17  C   UNL     1      26.264  27.647  19.956  1.00  0.00     0.184 C 
ATOM     18  C   UNL     1      24.925  28.293  19.664  1.00  0.00     0.178 C 
ATOM     19  O   UNL     1      24.603  28.369  18.344  1.00  0.00    -0.341 OA
ATOM     20  C   UNL     1      25.520  28.997  17.521  1.00  0.00     0.281 C 
ATOM     21  C   UNL     1      27.112  27.565  18.691  1.00  0.00     0.180 C 
ATOM     22  C   UNL     1      26.949  28.885  17.974  1.00  0.00     0.202 C 
BRANCH  18  23
ATOM     23  C   UNL     1      24.754  29.610  20.406  1.00  0.00     0.191 C 
BRANCH  23  24
ATOM     24  O   UNL     1      25.902  30.000  21.048  1.00  0.00    -0.394 OA
ATOM     25  H   UNL     1      25.625  30.373  21.940  1.00  0.00     0.210 HD
ENDBRANCH  23  24
ENDBRANCH  18  23
BRANCH  20  26
ATOM     26  O   UNL     1      25.203  30.331  17.294  1.00  0.00    -0.350 OA
BRANCH  26  27
ATOM     27  C   UNL     1      24.244  30.562  16.349  1.00  0.00     0.169 C 
BRANCH  27  28
ATOM     28  C   UNL     1      24.641  30.026  15.002  1.00  0.00     0.119 C 
BRANCH  28  29
ATOM     29  N   UNL     1      23.495  29.372  14.393  1.00  0.00    -0.092 NA
ATOM     30  N   UNL     1      23.009  28.361  14.933  1.00  0.00     0.001 N 
ATOM     31  N   UNL     1      22.631  27.381  15.562  1.00  0.00    -0.003 NA
ENDBRANCH  28  29
ENDBRANCH  27  28
ENDBRANCH  26  27
ENDBRANCH  20  26
BRANCH  21  32
ATOM     32  O   UNL     1      28.461  27.424  19.010  1.00  0.00    -0.387 OA
ATOM     33  H   UNL     1      28.875  26.969  18.219  1.00  0.00     0.211 HD
ENDBRANCH  21  32
BRANCH  22  34
ATOM     34  O   UNL     1      27.767  28.857  16.818  1.00  0.00    -0.385 OA
ATOM     35  H   UNL     1      28.628  28.435  16.967  1.00  0.00     0.211 HD
ENDBRANCH  22  34
ENDBRANCH  16  17
ENDBRANCH  11  16
BRANCH  13  36
ATOM     36  O   UNL     1      25.145  24.404  22.142  1.00  0.00    -0.385 OA
ATOM     37  H   UNL     1      24.428  24.976  21.738  1.00  0.00     0.211 HD
ENDBRANCH  13  36
BRANCH  14  38
ATOM     38  O   UNL     1      27.076  24.801  24.793  1.00  0.00    -0.387 OA
ATOM     39  H   UNL     1      27.285  23.937  24.371  1.00  0.00     0.211 HD
ENDBRANCH  14  38
BRANCH  15  40
ATOM     40  O   UNL     1      26.263  27.044  25.851  1.00  0.00    -0.387 OA
ATOM     41  H   UNL     1      26.123  27.966  26.168  1.00  0.00     0.211 HD
ENDBRANCH  15  40
ENDBRANCH   9  10
ENDBRANCH   8   9
ENDBRANCH   3   8
BRANCH   3  42
ATOM     42  C   UNL     1      30.649  26.789  22.182  1.00  0.00     0.364 C 
ATOM     43  O   UNL     1      31.822  26.626  21.696  1.00  0.00    -0.246 OA
BRANCH  42  44
ATOM     44  O   UNL     1      29.617  26.635  21.292  1.00  0.00    -0.477 OA
ATOM     45  H   UNL     1      29.735  26.130  20.423  1.00  0.00     0.296 HD
ENDBRANCH  42  44
ENDBRANCH   3  42
BRANCH   6  46
ATOM     46  O   UNL     1      31.146  28.162  26.123  1.00  0.00    -0.391 OA
ATOM     47  H   UNL     1      30.611  27.449  26.547  1.00  0.00     0.211 HD
ENDBRANCH   6  46
BRANCH   7  48
ATOM     48  N   UNL     1      34.024  28.194  23.916  1.00  0.00    -0.348 N 
ATOM     49  C   UNL     1      35.204  28.980  23.898  1.00  0.00     0.217 C 
ATOM     50  H   UNL     1      34.083  27.220  23.508  1.00  0.00     0.163 HD
ATOM     51  C   UNL     1      36.454  28.382  23.307  1.00  0.00     0.114 C 
ATOM     52  O   UNL     1      35.259  30.157  24.352  1.00  0.00    -0.275 OA
ENDBRANCH   7  48
ENDBRANCH   1   2
BRANCH   1  53
ATOM     53  O   UNL     1      32.583  31.191  24.090  1.00  0.00    -0.388 OA
ATOM     54  H   UNL     1      32.992  32.007  23.720  1.00  0.00     0.211 HD
ENDBRANCH   1  53
BRANCH   1  55
ATOM     55  C   UNL     1      32.253  30.969  21.802  1.00  0.00     0.165 C 
BRANCH  55  56
ATOM     56  O   UNL     1      32.236  32.312  21.532  1.00  0.00    -0.388 OA
ATOM     57  H   UNL     1      32.024  32.512  20.605  1.00  0.00     0.211 HD
ENDBRANCH  55  56
BRANCH  55  58
ATOM     58  C   UNL     1      31.676  30.185  20.673  1.00  0.00     0.154 C 
BRANCH  58  59
ATOM     59  N   UNL     1      30.599  30.971  20.066  1.00  0.00    -0.319 N 
ATOM     60  C   UNL     1      29.240  30.632  20.257  1.00  0.00     0.407 C 
ATOM     61  H   UNL     1      30.847  31.796  19.482  1.00  0.00     0.167 HD
ATOM     62  O   UNL     1      28.976  29.628  20.963  1.00  0.00    -0.225 OA
BRANCH  60  63
ATOM     63  O   UNL     1      28.236  31.395  19.678  1.00  0.00    -0.443 OA
BRANCH  63  64
ATOM     64  C   UNL     1      28.621  32.555  18.940  1.00  0.00     0.294 C 
BRANCH  64  65
ATOM     65  C   UNL     1      27.954  32.630  17.620  1.00  0.00     0.120 A 
ATOM     66  C   UNL     1      26.916  33.458  17.258  1.00  0.00     0.138 A 
ATOM     67  N   UNL     1      28.229  31.898  16.514  1.00  0.00    -0.132 NA
ATOM     68  N   UNL     1      26.620  33.196  15.989  1.00  0.00    -0.252 N 
ATOM     69  N   UNL     1      27.417  32.251  15.542  1.00  0.00    -0.067 NA
BRANCH  68  70
ATOM     70  C   UNL     1      25.559  33.862  15.233  1.00  0.00     0.150 C 
BRANCH  70  71
ATOM     71  C   UNL     1      25.833  33.775  13.728  1.00  0.00     0.022 C 
ATOM     72  C   UNL     1      24.532  33.327  13.098  1.00  0.00     0.011 C 
BRANCH  71  73
ATOM     73  C   UNL     1      26.253  35.122  13.229  1.00  0.00     0.089 C 
BRANCH  73  74
ATOM     74  N   UNL     1      27.608  35.478  13.315  1.00  0.00    -0.299 NA
ATOM     75  C   UNL     1      28.618  34.613  12.873  1.00  0.00     0.106 C 
ATOM     76  C   UNL     1      27.937  36.362  14.386  1.00  0.00     0.106 C 
ATOM     77  C   UNL     1      29.698  34.382  13.929  1.00  0.00     0.132 C 
ATOM     78  C   UNL     1      29.371  36.836  14.227  1.00  0.00     0.132 C 
ATOM     79  N   UNL     1      30.209  35.676  14.379  1.00  0.00    -0.369 N 
BRANCH  79  80
ATOM     80  C   UNL     1      31.487  35.748  14.946  1.00  0.00     0.037 A 
ATOM     81  C   UNL     1      31.737  36.446  16.125  1.00  0.00     0.027 A 
ATOM     82  C   UNL     1      32.593  35.123  14.383  1.00  0.00     0.027 A 
ATOM     83  C   UNL     1      32.981  36.525  16.705  1.00  0.00     0.022 A 
ATOM     84  C   UNL     1      33.843  35.200  14.964  1.00  0.00     0.022 A 
ATOM     85  C   UNL     1      34.057  35.901  16.130  1.00  0.00     0.041 A 
ATOM     86  Cl  UNL     1      35.624  36.000  16.862  1.00  0.00    -0.084 Cl
ENDBRANCH  79  80
ENDBRANCH  73  74
ENDBRANCH  71  73
ENDBRANCH  70  71
ENDBRANCH  68  70
ENDBRANCH  64  65
ENDBRANCH  63  64
ENDBRANCH  60  63
ENDBRANCH  58  59
ENDBRANCH  55  58
ENDBRANCH   1  55
TORSDOF 34
BEGIN_RES LYS A 131
REMARK  4 active torsions:
REMARK  status: ('A' for Active; 'I' for Inactive)
REMARK    1  A    between atoms: CA   and  CB  
REMARK    2  A    between atoms: CB   and  CG  
REMARK    3  A    between atoms: CG   and  CD  
REMARK    4  A    between atoms: CD   and  CE  
ROOT
ATOM      1  CA  LYS A 131      29.867  25.555  16.977  1.00 20.52     0.186 C 
ENDROOT
BRANCH   1   2
ATOM      2  CB  LYS A 131      28.345  25.722  17.026  1.00 20.94     0.034 C 
BRANCH   2   3
ATOM      3  CG  LYS A 131      27.601  24.402  16.895  1.00 22.96     0.005 C 
BRANCH   3   4
ATOM      4  CD  LYS A 131      26.152  24.528  17.275  1.00 24.33     0.041 C 
BRANCH   4   5
ATOM      5  CE  LYS A 131      25.854  23.612  18.458  1.00 26.91     0.338 C 
ATOM      6  NZ  LYS A 131      24.416  23.672  18.811  1.00 27.40     0.618 N 
ENDBRANCH   4   5
ENDBRANCH   3   4
ENDBRANCH   2   3
ENDBRANCH   1   2
END_RES LYS A 131
BEGIN_RES LYS A 135
REMARK  4 active torsions:
REMARK  status: ('A' for Active; 'I' for Inactive)
REMARK    5  A    between atoms: CA   and  CB  
REMARK    6  A    between atoms: CB   and  CG  
REMARK    7  A    between atoms: CG   and  CD  
REMARK    8  A    between atoms: CD   and  CE  
ROOT
ATOM      7  CA  LYS A 135      33.193  34.663   9.290  1.00 25.02     0.186 C 
ENDROOT
BRANCH   7   8
ATOM      8  CB  LYS A 135      32.060  35.360  10.034  1.00 26.63     0.034 C 
BRANCH   8   9
ATOM      9  CG  LYS A 135      30.708  34.741   9.790  1.00 29.45     0.005 C 
BRANCH   9  10
ATOM     10  CD  LYS A 135      30.484  34.510   8.303  1.00 32.00     0.041 C 
BRANCH  10  11
ATOM     11  CE  LYS A 135      29.067  34.885   7.914  1.00 34.25     0.338 C 
ATOM     12  NZ  LYS A 135      28.591  36.062   8.690  1.00 35.99     0.618 N 
ENDBRANCH  10  11
ENDBRANCH   9  10
ENDBRANCH   8   9
ENDBRANCH   7   8
END_RES LYS A 135
