REMARK VINA RESULT:    -3.906      2.101      2.733
REMARK INTER + INTRA:         -23.825
REMARK INTER:                 -10.485
REMARK INTRA:                 -13.340
REMARK UNBOUND:               -13.184
REMARK SMILES CC(=O)N[C@@H]1[C@@H](O)C[C@](OC[C@H]2O[C@@H](O[C@H]3[C@H](O)[C@@H](O)[C@H](OCCN=[N+]=[N-])O[C@@H]3CO)[C@H](O)[C@@H](O)[C@H]2O)(C(=O)O)O[C@H]1C(O)[C@H](O)CNC(=O)OCc1cn(CC(O)Cn2ccnc2[N+](=O)[O-])nn1
REMARK SMILES IDX 43 1 42 2 9 3 8 4 41 5 6 6 5 7 10 8 11 9 12 10 14 11 13 12
REMARK SMILES IDX 32 13 34 14 36 15 15 16 16 17 29 18 28 19 21 20 17 21 19 22
REMARK SMILES IDX 30 23 31 24 22 26 23 27 24 28 25 29 26 30 27 31 18 32 20 34
REMARK SMILES IDX 33 36 35 38 37 40 38 42 39 43 40 44 7 46 4 48 2 49 1 51 3 52
REMARK SMILES IDX 44 53 45 55 46 56 47 58 48 59 49 60 50 62 51 63 52 64 53 65
REMARK SMILES IDX 54 66 69 67 55 68 68 69 56 70 57 71 58 72 59 74 60 75 61 76
REMARK SMILES IDX 64 77 62 78 63 79 65 80 66 81 67 82
REMARK H PARENT 31 25 18 33 20 35 33 37 35 39 37 41 40 45 7 47 4 50 44 54
REMARK H PARENT 46 57 48 61 58 73
REMARK Flexibility Score: inf
ROOT
ATOM      1  C   UNL     1      28.176  28.771  20.932  1.00  0.00     0.176 C 
ENDROOT
BRANCH   1   2
ATOM      2  C   UNL     1      26.962  29.329  20.129  1.00  0.00     0.178 C 
ATOM      3  C   UNL     1      26.648  30.078  17.963  1.00  0.00     0.272 C 
ATOM      4  C   UNL     1      25.809  31.215  18.466  1.00  0.00     0.113 C 
ATOM      5  O   UNL     1      27.574  29.694  18.928  1.00  0.00    -0.332 OA
ATOM      6  C   UNL     1      26.298  31.711  19.821  1.00  0.00     0.145 C 
ATOM      7  C   UNL     1      26.452  30.543  20.786  1.00  0.00     0.142 C 
BRANCH   3   8
ATOM      8  O   UNL     1      27.439  30.424  16.874  1.00  0.00    -0.338 OA
BRANCH   8   9
ATOM      9  C   UNL     1      27.512  31.711  16.495  1.00  0.00     0.199 C 
BRANCH   9  10
ATOM     10  C   UNL     1      28.911  32.154  16.113  1.00  0.00     0.179 C 
ATOM     11  C   UNL     1      30.101  33.868  15.317  1.00  0.00     0.282 C 
ATOM     12  O   UNL     1      29.054  33.564  16.222  1.00  0.00    -0.341 OA
ATOM     13  C   UNL     1      31.369  33.153  15.713  1.00  0.00     0.202 C 
ATOM     14  C   UNL     1      31.150  32.610  17.124  1.00  0.00     0.179 C 
ATOM     15  C   UNL     1      29.987  31.617  17.028  1.00  0.00     0.177 C 
BRANCH  11  16
ATOM     16  O   UNL     1      30.334  35.225  15.237  1.00  0.00    -0.341 OA
BRANCH  16  17
ATOM     17  C   UNL     1      29.623  35.707  14.163  1.00  0.00     0.184 C 
ATOM     18  C   UNL     1      30.478  36.430  13.133  1.00  0.00     0.178 C 
ATOM     19  O   UNL     1      29.680  36.472  11.986  1.00  0.00    -0.341 OA
ATOM     20  C   UNL     1      28.575  37.271  12.096  1.00  0.00     0.281 C 
ATOM     21  C   UNL     1      28.575  36.730  14.578  1.00  0.00     0.180 C 
ATOM     22  C   UNL     1      27.870  37.292  13.402  1.00  0.00     0.202 C 
BRANCH  18  23
ATOM     23  C   UNL     1      31.784  35.775  12.858  1.00  0.00     0.191 C 
BRANCH  23  24
ATOM     24  O   UNL     1      31.541  34.474  12.437  1.00  0.00    -0.394 OA
ATOM     25  H   UNL     1      30.995  33.955  13.080  1.00  0.00     0.210 HD
ENDBRANCH  23  24
ENDBRANCH  18  23
BRANCH  20  26
ATOM     26  O   UNL     1      27.646  36.785  11.137  1.00  0.00    -0.350 OA
BRANCH  26  27
ATOM     27  C   UNL     1      27.116  35.567  11.482  1.00  0.00     0.169 C 
BRANCH  27  28
ATOM     28  C   UNL     1      25.655  35.592  11.012  1.00  0.00     0.119 C 
BRANCH  28  29
ATOM     29  N   UNL     1      25.528  35.272   9.623  1.00  0.00    -0.092 NA
ATOM     30  N   UNL     1      25.456  36.166   8.748  1.00  0.00     0.001 N 
ATOM     31  N   UNL     1      25.763  36.820   7.765  1.00  0.00    -0.003 NA
ENDBRANCH  28  29
ENDBRANCH  27  28
ENDBRANCH  26  27
ENDBRANCH  20  26
BRANCH  21  32
ATOM     32  O   UNL     1      27.632  36.103  15.418  1.00  0.00    -0.387 OA
ATOM     33  H   UNL     1      27.766  36.482  16.305  1.00  0.00     0.211 HD
ENDBRANCH  21  32
BRANCH  22  34
ATOM     34  O   UNL     1      27.623  38.655  13.707  1.00  0.00    -0.385 OA
ATOM     35  H   UNL     1      28.472  39.130  13.906  1.00  0.00     0.211 HD
ENDBRANCH  22  34
ENDBRANCH  16  17
ENDBRANCH  11  16
BRANCH  13  36
ATOM     36  O   UNL     1      31.593  32.113  14.812  1.00  0.00    -0.385 OA
ATOM     37  H   UNL     1      30.847  31.451  14.827  1.00  0.00     0.211 HD
ENDBRANCH  13  36
BRANCH  14  38
ATOM     38  O   UNL     1      30.694  33.658  17.902  1.00  0.00    -0.387 OA
ATOM     39  H   UNL     1      30.036  33.341  18.545  1.00  0.00     0.211 HD
ENDBRANCH  14  38
BRANCH  15  40
ATOM     40  O   UNL     1      29.549  31.435  18.321  1.00  0.00    -0.387 OA
ATOM     41  H   UNL     1      30.209  30.954  18.880  1.00  0.00     0.211 HD
ENDBRANCH  15  40
ENDBRANCH   9  10
ENDBRANCH   8   9
ENDBRANCH   3   8
BRANCH   3  42
ATOM     42  C   UNL     1      25.816  28.919  17.613  1.00  0.00     0.364 C 
ATOM     43  O   UNL     1      26.320  27.760  17.408  1.00  0.00    -0.246 OA
BRANCH  42  44
ATOM     44  O   UNL     1      24.443  28.971  17.472  1.00  0.00    -0.477 OA
ATOM     45  H   UNL     1      23.797  29.032  18.264  1.00  0.00     0.296 HD
ENDBRANCH  42  44
ENDBRANCH   3  42
BRANCH   6  46
ATOM     46  O   UNL     1      27.462  32.447  19.713  1.00  0.00    -0.391 OA
ATOM     47  H   UNL     1      27.847  32.657  20.600  1.00  0.00     0.211 HD
ENDBRANCH   6  46
BRANCH   7  48
ATOM     48  N   UNL     1      25.302  30.428  21.626  1.00  0.00    -0.348 N 
ATOM     49  C   UNL     1      24.121  29.732  21.393  1.00  0.00     0.217 C 
ATOM     50  H   UNL     1      25.335  30.944  22.605  1.00  0.00     0.163 HD
ATOM     51  C   UNL     1      23.011  29.696  22.431  1.00  0.00     0.114 C 
ATOM     52  O   UNL     1      23.884  29.102  20.360  1.00  0.00    -0.275 OA
ENDBRANCH   7  48
ENDBRANCH   1   2
BRANCH   1  53
ATOM     53  O   UNL     1      28.904  29.895  21.395  1.00  0.00    -0.388 OA
ATOM     54  H   UNL     1      29.005  30.578  20.715  1.00  0.00     0.211 HD
ENDBRANCH   1  53
BRANCH   1  55
ATOM     55  C   UNL     1      29.047  27.862  20.199  1.00  0.00     0.165 C 
BRANCH  55  56
ATOM     56  O   UNL     1      28.467  26.790  19.570  1.00  0.00    -0.388 OA
ATOM     57  H   UNL     1      28.466  25.963  20.101  1.00  0.00     0.211 HD
ENDBRANCH  55  56
BRANCH  55  58
ATOM     58  C   UNL     1      30.241  27.357  21.044  1.00  0.00     0.154 C 
BRANCH  58  59
ATOM     59  N   UNL     1      31.357  28.233  20.709  1.00  0.00    -0.319 N 
ATOM     60  C   UNL     1      32.255  28.724  21.713  1.00  0.00     0.407 C 
ATOM     61  H   UNL     1      31.524  28.522  19.719  1.00  0.00     0.167 HD
ATOM     62  O   UNL     1      32.086  28.395  22.906  1.00  0.00    -0.225 OA
BRANCH  60  63
ATOM     63  O   UNL     1      33.305  29.558  21.390  1.00  0.00    -0.443 OA
BRANCH  63  64
ATOM     64  C   UNL     1      33.518  30.859  21.844  1.00  0.00     0.294 C 
BRANCH  64  65
ATOM     65  C   UNL     1      32.280  31.662  21.684  1.00  0.00     0.120 A 
ATOM     66  C   UNL     1      31.817  32.646  22.537  1.00  0.00     0.138 A 
ATOM     67  N   UNL     1      31.369  31.611  20.700  1.00  0.00    -0.132 NA
ATOM     68  N   UNL     1      30.658  33.146  22.038  1.00  0.00    -0.249 N 
ATOM     69  N   UNL     1      30.413  32.499  20.927  1.00  0.00    -0.067 NA
BRANCH  68  70
ATOM     70  C   UNL     1      29.921  34.233  22.673  1.00  0.00     0.181 C 
BRANCH  70  71
ATOM     71  C   UNL     1      28.789  34.568  21.705  1.00  0.00     0.170 C 
BRANCH  71  72
ATOM     72  O   UNL     1      27.624  34.020  22.188  1.00  0.00    -0.388 OA
ATOM     73  H   UNL     1      27.430  33.168  21.729  1.00  0.00     0.211 HD
ENDBRANCH  71  72
BRANCH  71  74
ATOM     74  C   UNL     1      28.706  36.048  21.489  1.00  0.00     0.239 C 
BRANCH  74  75
ATOM     75  N   UNL     1      29.167  36.373  20.149  1.00  0.00    -0.227 N 
ATOM     76  C   UNL     1      30.448  36.802  19.906  1.00  0.00     0.204 A 
ATOM     77  C   UNL     1      28.499  36.301  18.998  1.00  0.00     0.434 A 
ATOM     78  C   UNL     1      30.557  36.996  18.548  1.00  0.00     0.245 A 
ATOM     79  N   UNL     1      29.359  36.686  18.014  1.00  0.00    -0.074 NA
BRANCH  77  80
ATOM     80  N   UNL     1      27.147  35.915  18.821  1.00  0.00    -0.047 N 
ATOM     81  O   UNL     1      26.850  34.863  18.173  1.00  0.00    -0.390 OA
ATOM     82  O   UNL     1      26.086  36.626  19.311  1.00  0.00    -0.390 OA
ENDBRANCH  77  80
ENDBRANCH  74  75
ENDBRANCH  71  74
ENDBRANCH  70  71
ENDBRANCH  68  70
ENDBRANCH  64  65
ENDBRANCH  63  64
ENDBRANCH  60  63
ENDBRANCH  58  59
ENDBRANCH  55  58
ENDBRANCH   1  55
TORSDOF 35
BEGIN_RES LYS A 131
REMARK  4 active torsions:
REMARK  status: ('A' for Active; 'I' for Inactive)
REMARK    1  A    between atoms: CA   and  CB  
REMARK    2  A    between atoms: CB   and  CG  
REMARK    3  A    between atoms: CG   and  CD  
REMARK    4  A    between atoms: CD   and  CE  
ROOT
ATOM      1  CA  LYS A 131      29.867  25.555  16.977  1.00 20.52     0.186 C 
ENDROOT
BRANCH   1   2
ATOM      2  CB  LYS A 131      28.345  25.722  17.026  1.00 20.94     0.034 C 
BRANCH   2   3
ATOM      3  CG  LYS A 131      27.601  24.401  16.899  1.00 22.96     0.005 C 
BRANCH   3   4
ATOM      4  CD  LYS A 131      26.156  24.525  17.295  1.00 24.33     0.041 C 
BRANCH   4   5
ATOM      5  CE  LYS A 131      25.979  24.041  18.731  1.00 26.91     0.338 C 
ATOM      6  NZ  LYS A 131      25.470  25.137  19.588  1.00 27.40     0.618 N 
ENDBRANCH   4   5
ENDBRANCH   3   4
ENDBRANCH   2   3
ENDBRANCH   1   2
END_RES LYS A 131
BEGIN_RES LYS A 135
REMARK  4 active torsions:
REMARK  status: ('A' for Active; 'I' for Inactive)
REMARK    5  A    between atoms: CA   and  CB  
REMARK    6  A    between atoms: CB   and  CG  
REMARK    7  A    between atoms: CG   and  CD  
REMARK    8  A    between atoms: CD   and  CE  
ROOT
ATOM      7  CA  LYS A 135      33.193  34.663   9.290  1.00 25.02     0.186 C 
ENDROOT
BRANCH   7   8
ATOM      8  CB  LYS A 135      32.060  35.360  10.034  1.00 26.63     0.034 C 
BRANCH   8   9
ATOM      9  CG  LYS A 135      30.828  35.572   9.193  1.00 29.45     0.005 C 
BRANCH   9  10
ATOM     10  CD  LYS A 135      30.061  34.269   9.026  1.00 32.00     0.041 C 
BRANCH  10  11
ATOM     11  CE  LYS A 135      28.750  34.511   8.304  1.00 34.25     0.338 C 
ATOM     12  NZ  LYS A 135      28.952  35.348   7.090  1.00 35.99     0.618 N 
ENDBRANCH  10  11
ENDBRANCH   9  10
ENDBRANCH   8   9
ENDBRANCH   7   8
END_RES LYS A 135
