REMARK VINA RESULT:    -4.748      2.710      8.522
REMARK INTER + INTRA:         -21.983
REMARK INTER:                 -12.578
REMARK INTRA:                  -9.405
REMARK UNBOUND:               -10.018
REMARK SMILES COc1ccc(-n2cc(COC(=O)NC[C@@H](O)C(O)[C@@H]3O[C@@](OC[C@H]4O[C@@H](O[C@H]5[C@H](O)[C@@H](O)[C@H](OCCN=[N+]=[N-])O[C@@H]5CO)[C@H](O)[C@@H](O)[C@H]4O)(C(=O)O)C[C@H](O)[C@H]3NC(C)=O)nn2)cc1
REMARK SMILES IDX 22 1 54 2 55 3 57 4 20 5 21 6 23 7 24 8 25 9 27 10 26 11
REMARK SMILES IDX 45 12 47 13 49 14 28 15 29 16 42 17 41 18 34 19 30 20 32 21
REMARK SMILES IDX 43 22 44 23 35 25 36 26 37 27 38 28 39 29 40 30 31 31 33 33
REMARK SMILES IDX 46 35 48 37 50 39 51 41 52 42 53 43 56 45 18 47 19 48 16 50
REMARK SMILES IDX 17 51 15 53 14 54 12 55 13 57 11 58 10 59 9 60 8 61 62 62
REMARK SMILES IDX 7 63 63 64 6 65 5 66 64 67 4 68 65 69 3 70 2 71 1 72 58 73
REMARK SMILES IDX 59 74 60 76 61 77
REMARK H PARENT 44 24 31 32 33 34 46 36 48 38 50 40 53 44 56 46 19 49 17 52
REMARK H PARENT 14 56 58 75
REMARK Flexibility Score: inf
ROOT
ATOM      1  C   UNL     1      29.123  38.101  11.728  1.00  0.00     0.272 C 
ATOM      2  C   UNL     1      28.033  38.563  12.622  1.00  0.00     0.113 C 
ATOM      3  C   UNL     1      26.759  37.815  12.572  1.00  0.00     0.145 C 
ATOM      4  C   UNL     1      26.681  37.096  11.210  1.00  0.00     0.142 C 
ATOM      5  C   UNL     1      27.297  38.003  10.205  1.00  0.00     0.178 C 
ATOM      6  O   UNL     1      28.676  37.959  10.401  1.00  0.00    -0.332 OA
ENDROOT
BRANCH   1   7
ATOM      7  O   UNL     1      29.947  37.138  11.994  1.00  0.00    -0.338 OA
BRANCH   7   8
ATOM      8  C   UNL     1      30.068  36.081  12.706  1.00  0.00     0.199 C 
BRANCH   8   9
ATOM      9  C   UNL     1      30.892  35.987  13.958  1.00  0.00     0.179 C 
ATOM     10  C   UNL     1      31.168  35.030  16.014  1.00  0.00     0.282 C 
ATOM     11  O   UNL     1      30.487  34.996  14.786  1.00  0.00    -0.341 OA
ATOM     12  C   UNL     1      32.650  34.878  15.889  1.00  0.00     0.202 C 
ATOM     13  C   UNL     1      33.216  35.156  14.547  1.00  0.00     0.179 C 
ATOM     14  C   UNL     1      32.372  35.983  13.664  1.00  0.00     0.177 C 
BRANCH  10  15
ATOM     15  O   UNL     1      30.665  33.986  16.785  1.00  0.00    -0.341 OA
BRANCH  15  16
ATOM     16  C   UNL     1      29.621  33.332  16.191  1.00  0.00     0.184 C 
ATOM     17  C   UNL     1      28.376  33.377  16.998  1.00  0.00     0.178 C 
ATOM     18  O   UNL     1      27.353  32.601  16.389  1.00  0.00    -0.341 OA
ATOM     19  C   UNL     1      27.761  31.252  16.558  1.00  0.00     0.281 C 
ATOM     20  C   UNL     1      30.039  31.866  15.977  1.00  0.00     0.180 C 
ATOM     21  C   UNL     1      28.853  31.071  15.501  1.00  0.00     0.202 C 
BRANCH  17  22
ATOM     22  C   UNL     1      27.874  34.784  17.187  1.00  0.00     0.191 C 
BRANCH  22  23
ATOM     23  O   UNL     1      27.830  35.418  15.958  1.00  0.00    -0.394 OA
ATOM     24  H   UNL     1      26.916  35.525  15.613  1.00  0.00     0.210 HD
ENDBRANCH  22  23
ENDBRANCH  17  22
BRANCH  19  25
ATOM     25  O   UNL     1      26.731  30.396  16.382  1.00  0.00    -0.350 OA
BRANCH  25  26
ATOM     26  C   UNL     1      25.844  30.598  15.371  1.00  0.00     0.169 C 
BRANCH  26  27
ATOM     27  C   UNL     1      24.395  30.629  15.720  1.00  0.00     0.119 C 
BRANCH  27  28
ATOM     28  N   UNL     1      23.491  30.814  14.625  1.00  0.00    -0.092 NA
ATOM     29  N   UNL     1      23.543  30.100  13.628  1.00  0.00     0.001 N 
ATOM     30  N   UNL     1      23.783  29.393  12.644  1.00  0.00    -0.003 NA
ENDBRANCH  27  28
ENDBRANCH  26  27
ENDBRANCH  25  26
ENDBRANCH  19  25
BRANCH  20  31
ATOM     31  O   UNL     1      31.087  31.831  15.075  1.00  0.00    -0.387 OA
ATOM     32  H   UNL     1      30.681  31.892  14.155  1.00  0.00     0.211 HD
ENDBRANCH  20  31
BRANCH  21  33
ATOM     33  O   UNL     1      29.164  29.732  15.437  1.00  0.00    -0.385 OA
ATOM     34  H   UNL     1      28.738  29.225  16.173  1.00  0.00     0.211 HD
ENDBRANCH  21  33
ENDBRANCH  15  16
ENDBRANCH  10  15
BRANCH  12  35
ATOM     35  O   UNL     1      33.331  35.709  16.795  1.00  0.00    -0.385 OA
ATOM     36  H   UNL     1      33.080  36.652  16.675  1.00  0.00     0.211 HD
ENDBRANCH  12  35
BRANCH  13  37
ATOM     37  O   UNL     1      33.650  33.966  13.951  1.00  0.00    -0.387 OA
ATOM     38  H   UNL     1      33.016  33.227  14.055  1.00  0.00     0.211 HD
ENDBRANCH  13  37
BRANCH  14  39
ATOM     39  O   UNL     1      32.634  35.634  12.336  1.00  0.00    -0.387 OA
ATOM     40  H   UNL     1      33.002  34.715  12.349  1.00  0.00     0.211 HD
ENDBRANCH  14  39
ENDBRANCH   8   9
ENDBRANCH   7   8
ENDBRANCH   1   7
BRANCH   1  41
ATOM     41  C   UNL     1      30.001  39.385  11.583  1.00  0.00     0.364 C 
ATOM     42  O   UNL     1      31.153  39.405  12.021  1.00  0.00    -0.246 OA
BRANCH  41  43
ATOM     43  O   UNL     1      29.412  40.452  10.951  1.00  0.00    -0.477 OA
ATOM     44  H   UNL     1      28.509  40.837  11.264  1.00  0.00     0.296 HD
ENDBRANCH  41  43
ENDBRANCH   1  41
BRANCH   3  45
ATOM     45  O   UNL     1      26.488  36.980  13.617  1.00  0.00    -0.391 OA
ATOM     46  H   UNL     1      25.609  37.091  14.043  1.00  0.00     0.211 HD
ENDBRANCH   3  45
BRANCH   5  47
ATOM     47  C   UNL     1      27.094  37.528   8.747  1.00  0.00     0.176 C 
BRANCH  47  48
ATOM     48  O   UNL     1      25.787  37.234   8.508  1.00  0.00    -0.388 OA
ATOM     49  H   UNL     1      25.499  37.664   7.669  1.00  0.00     0.211 HD
ENDBRANCH  47  48
BRANCH  47  50
ATOM     50  C   UNL     1      27.910  38.256   7.806  1.00  0.00     0.165 C 
BRANCH  50  51
ATOM     51  O   UNL     1      28.475  39.473   8.278  1.00  0.00    -0.388 OA
ATOM     52  H   UNL     1      29.010  39.816   7.536  1.00  0.00     0.211 HD
ENDBRANCH  50  51
BRANCH  50  53
ATOM     53  C   UNL     1      27.526  38.547   6.415  1.00  0.00     0.154 C 
BRANCH  53  54
ATOM     54  N   UNL     1      26.344  39.238   6.161  1.00  0.00    -0.319 N 
ATOM     55  C   UNL     1      26.172  40.629   6.129  1.00  0.00     0.407 C 
ATOM     56  H   UNL     1      25.456  38.658   5.967  1.00  0.00     0.167 HD
ATOM     57  O   UNL     1      27.115  41.415   6.316  1.00  0.00    -0.225 OA
BRANCH  55  58
ATOM     58  O   UNL     1      24.885  41.159   5.876  1.00  0.00    -0.443 OA
BRANCH  58  59
ATOM     59  C   UNL     1      24.138  41.595   6.984  1.00  0.00     0.294 C 
BRANCH  59  60
ATOM     60  C   UNL     1      23.676  40.425   7.768  1.00  0.00     0.121 A 
ATOM     61  C   UNL     1      22.569  39.618   7.585  1.00  0.00     0.144 A 
ATOM     62  N   UNL     1      24.324  39.933   8.842  1.00  0.00    -0.131 NA
ATOM     63  N   UNL     1      22.590  38.682   8.542  1.00  0.00    -0.220 N 
ATOM     64  N   UNL     1      23.672  38.897   9.298  1.00  0.00    -0.062 NA
BRANCH  63  65
ATOM     65  C   UNL     1      21.715  37.602   8.827  1.00  0.00     0.067 A 
ATOM     66  C   UNL     1      20.929  37.524   9.945  1.00  0.00     0.032 A 
ATOM     67  C   UNL     1      21.648  36.540   7.927  1.00  0.00     0.032 A 
ATOM     68  C   UNL     1      20.103  36.432  10.168  1.00  0.00     0.048 A 
ATOM     69  C   UNL     1      20.825  35.453   8.149  1.00  0.00     0.048 A 
ATOM     70  C   UNL     1      20.034  35.377   9.276  1.00  0.00     0.119 A 
BRANCH  70  71
ATOM     71  O   UNL     1      19.192  34.274   9.515  1.00  0.00    -0.497 OA
ATOM     72  C   UNL     1      18.541  34.220  10.793  1.00  0.00     0.278 C 
ENDBRANCH  70  71
ENDBRANCH  63  65
ENDBRANCH  59  60
ENDBRANCH  58  59
ENDBRANCH  55  58
ENDBRANCH  53  54
ENDBRANCH  50  53
ENDBRANCH  47  50
ENDBRANCH   5  47
BRANCH   4  73
ATOM     73  N   UNL     1      25.327  36.671  10.995  1.00  0.00    -0.348 N 
ATOM     74  C   UNL     1      24.899  35.365  11.348  1.00  0.00     0.217 C 
ATOM     75  H   UNL     1      24.641  37.338  10.601  1.00  0.00     0.163 HD
ATOM     76  C   UNL     1      23.492  34.949  11.112  1.00  0.00     0.114 C 
ATOM     77  O   UNL     1      25.670  34.513  11.865  1.00  0.00    -0.275 OA
ENDBRANCH   4  73
TORSDOF 31
BEGIN_RES LYS A 131
REMARK  4 active torsions:
REMARK  status: ('A' for Active; 'I' for Inactive)
REMARK    1  A    between atoms: CA   and  CB  
REMARK    2  A    between atoms: CB   and  CG  
REMARK    3  A    between atoms: CG   and  CD  
REMARK    4  A    between atoms: CD   and  CE  
ROOT
ATOM      1  CA  LYS A 131      29.867  25.555  16.977  1.00 20.52     0.186 C 
ENDROOT
BRANCH   1   2
ATOM      2  CB  LYS A 131      28.345  25.722  17.026  1.00 20.94     0.034 C 
BRANCH   2   3
ATOM      3  CG  LYS A 131      27.601  24.403  16.884  1.00 22.96     0.005 C 
BRANCH   3   4
ATOM      4  CD  LYS A 131      26.171  24.508  17.337  1.00 24.33     0.041 C 
BRANCH   4   5
ATOM      5  CE  LYS A 131      25.972  25.815  18.097  1.00 26.91     0.338 C 
ATOM      6  NZ  LYS A 131      24.834  25.700  19.039  1.00 27.40     0.618 N 
ENDBRANCH   4   5
ENDBRANCH   3   4
ENDBRANCH   2   3
ENDBRANCH   1   2
END_RES LYS A 131
BEGIN_RES LYS A 135
REMARK  4 active torsions:
REMARK  status: ('A' for Active; 'I' for Inactive)
REMARK    5  A    between atoms: CA   and  CB  
REMARK    6  A    between atoms: CB   and  CG  
REMARK    7  A    between atoms: CG   and  CD  
REMARK    8  A    between atoms: CD   and  CE  
ROOT
ATOM      7  CA  LYS A 135      33.193  34.663   9.290  1.00 25.02     0.186 C 
ENDROOT
BRANCH   7   8
ATOM      8  CB  LYS A 135      32.060  35.360  10.034  1.00 26.63     0.034 C 
BRANCH   8   9
ATOM      9  CG  LYS A 135      30.716  34.709   9.832  1.00 29.45     0.005 C 
BRANCH   9  10
ATOM     10  CD  LYS A 135      30.027  35.271   8.599  1.00 32.00     0.041 C 
BRANCH  10  11
ATOM     11  CE  LYS A 135      28.795  34.454   8.258  1.00 34.25     0.338 C 
ATOM     12  NZ  LYS A 135      28.047  34.073   9.488  1.00 35.99     0.618 N 
ENDBRANCH  10  11
ENDBRANCH   9  10
ENDBRANCH   8   9
ENDBRANCH   7   8
END_RES LYS A 135
