REMARK VINA RESULT:    -5.438      3.072      7.316
REMARK INTER + INTRA:         -22.812
REMARK INTER:                 -12.245
REMARK INTRA:                 -10.567
REMARK UNBOUND:                -9.428
REMARK SMILES CC(=O)N[C@@H]1[C@@H](O)C[C@](OC[C@H]2O[C@@H](O[C@H]3[C@H](O)[C@@H](O)[C@H](OCCN=[N+]=[N-])O[C@@H]3CO)[C@H](O)[C@@H](O)[C@H]2O)(C(=O)O)O[C@H]1C(O)[C@H](O)CNC(=O)OCc1cn(-c2ccc(C)cc2)nn1
REMARK SMILES IDX 9 1 8 2 6 3 5 4 42 5 41 6 10 7 11 8 12 9 14 10 13 11 32 12
REMARK SMILES IDX 34 13 36 14 15 15 16 16 29 17 28 18 21 19 17 20 19 21 30 22
REMARK SMILES IDX 31 23 22 25 23 26 24 27 25 28 26 29 27 30 18 31 20 33 33 35
REMARK SMILES IDX 35 37 37 39 38 41 39 42 40 43 7 45 43 47 44 48 45 50 46 51
REMARK SMILES IDX 47 53 48 54 49 55 50 57 51 58 52 59 53 60 54 61 64 62 55 63
REMARK SMILES IDX 63 64 56 65 57 66 62 67 58 68 61 69 59 70 60 71 4 72 2 73
REMARK SMILES IDX 1 75 3 76
REMARK H PARENT 31 24 18 32 20 34 33 36 35 38 37 40 40 44 7 46 44 49 46 52
REMARK H PARENT 48 56 4 74
REMARK Flexibility Score: inf
ROOT
ATOM      1  C   UNL     1      22.323  36.487   9.235  1.00  0.00     0.272 C 
ATOM      2  C   UNL     1      21.587  37.730   9.724  1.00  0.00     0.113 C 
ATOM      3  C   UNL     1      20.365  37.386  10.487  1.00  0.00     0.145 C 
ATOM      4  C   UNL     1      20.430  36.121  11.267  1.00  0.00     0.142 C 
ATOM      5  C   UNL     1      21.789  35.430  11.310  1.00  0.00     0.178 C 
ATOM      6  O   UNL     1      22.439  35.532  10.127  1.00  0.00    -0.332 OA
ENDROOT
BRANCH   1   7
ATOM      7  O   UNL     1      23.638  36.968   8.948  1.00  0.00    -0.338 OA
BRANCH   7   8
ATOM      8  C   UNL     1      23.673  38.335   9.231  1.00  0.00     0.199 C 
BRANCH   8   9
ATOM      9  C   UNL     1      25.000  38.938   8.966  1.00  0.00     0.179 C 
ATOM     10  C   UNL     1      27.255  38.707   9.304  1.00  0.00     0.282 C 
ATOM     11  O   UNL     1      26.024  38.061   9.332  1.00  0.00    -0.341 OA
ATOM     12  C   UNL     1      27.651  39.001   7.907  1.00  0.00     0.202 C 
ATOM     13  C   UNL     1      26.476  38.847   6.981  1.00  0.00     0.179 C 
ATOM     14  C   UNL     1      25.188  39.405   7.549  1.00  0.00     0.177 C 
BRANCH  10  15
ATOM     15  O   UNL     1      28.215  37.891   9.897  1.00  0.00    -0.341 OA
BRANCH  15  16
ATOM     16  C   UNL     1      28.867  38.545  10.943  1.00  0.00     0.184 C 
ATOM     17  C   UNL     1      30.283  38.095  11.171  1.00  0.00     0.178 C 
ATOM     18  O   UNL     1      30.412  37.520  12.440  1.00  0.00    -0.341 OA
ATOM     19  C   UNL     1      29.648  36.367  12.495  1.00  0.00     0.281 C 
ATOM     20  C   UNL     1      28.071  38.218  12.188  1.00  0.00     0.180 C 
ATOM     21  C   UNL     1      28.175  36.694  12.353  1.00  0.00     0.202 C 
BRANCH  17  22
ATOM     22  C   UNL     1      31.225  39.310  11.208  1.00  0.00     0.191 C 
BRANCH  22  23
ATOM     23  O   UNL     1      31.424  39.733  12.520  1.00  0.00    -0.394 OA
ATOM     24  H   UNL     1      30.540  40.076  12.848  1.00  0.00     0.210 HD
ENDBRANCH  22  23
ENDBRANCH  17  22
BRANCH  19  25
ATOM     25  O   UNL     1      29.863  35.638  13.654  1.00  0.00    -0.350 OA
BRANCH  25  26
ATOM     26  C   UNL     1      30.413  34.400  13.435  1.00  0.00     0.169 C 
BRANCH  26  27
ATOM     27  C   UNL     1      30.008  33.337  14.416  1.00  0.00     0.119 C 
BRANCH  27  28
ATOM     28  N   UNL     1      31.119  32.901  15.227  1.00  0.00    -0.092 NA
ATOM     29  N   UNL     1      31.707  33.697  15.939  1.00  0.00     0.001 N 
ATOM     30  N   UNL     1      32.251  34.467  16.731  1.00  0.00    -0.003 NA
ENDBRANCH  27  28
ENDBRANCH  26  27
ENDBRANCH  25  26
ENDBRANCH  19  25
BRANCH  20  31
ATOM     31  O   UNL     1      28.559  38.849  13.323  1.00  0.00    -0.387 OA
ATOM     32  H   UNL     1      27.855  39.466  13.637  1.00  0.00     0.211 HD
ENDBRANCH  20  31
BRANCH  21  33
ATOM     33  O   UNL     1      27.758  36.171  11.112  1.00  0.00    -0.385 OA
ATOM     34  H   UNL     1      28.515  35.962  10.519  1.00  0.00     0.211 HD
ENDBRANCH  21  33
ENDBRANCH  15  16
ENDBRANCH  10  15
BRANCH  12  35
ATOM     35  O   UNL     1      28.221  40.281   7.775  1.00  0.00    -0.385 OA
ATOM     36  H   UNL     1      29.217  40.118   7.854  1.00  0.00     0.211 HD
ENDBRANCH  12  35
BRANCH  13  37
ATOM     37  O   UNL     1      26.390  37.541   6.567  1.00  0.00    -0.387 OA
ATOM     38  H   UNL     1      27.143  37.251   5.959  1.00  0.00     0.211 HD
ENDBRANCH  13  37
BRANCH  14  39
ATOM     39  O   UNL     1      24.127  38.936   6.797  1.00  0.00    -0.387 OA
ATOM     40  H   UNL     1      24.018  39.366   5.924  1.00  0.00     0.211 HD
ENDBRANCH  14  39
ENDBRANCH   8   9
ENDBRANCH   7   8
ENDBRANCH   1   7
BRANCH   1  41
ATOM     41  C   UNL     1      21.644  36.105   7.982  1.00  0.00     0.364 C 
ATOM     42  O   UNL     1      20.779  35.201   7.910  1.00  0.00    -0.246 OA
BRANCH  41  43
ATOM     43  O   UNL     1      21.993  36.806   6.812  1.00  0.00    -0.477 OA
ATOM     44  H   UNL     1      21.751  36.397   5.909  1.00  0.00     0.296 HD
ENDBRANCH  41  43
ENDBRANCH   1  41
BRANCH   3  45
ATOM     45  O   UNL     1      19.937  38.485  11.266  1.00  0.00    -0.391 OA
ATOM     46  H   UNL     1      20.013  38.167  12.222  1.00  0.00     0.211 HD
ENDBRANCH   3  45
BRANCH   5  47
ATOM     47  C   UNL     1      22.575  35.974  12.485  1.00  0.00     0.176 C 
BRANCH  47  48
ATOM     48  O   UNL     1      22.663  35.103  13.560  1.00  0.00    -0.388 OA
ATOM     49  H   UNL     1      22.708  35.677  14.370  1.00  0.00     0.211 HD
ENDBRANCH  47  48
BRANCH  47  50
ATOM     50  C   UNL     1      23.797  36.731  12.260  1.00  0.00     0.165 C 
BRANCH  50  51
ATOM     51  O   UNL     1      24.801  36.083  11.511  1.00  0.00    -0.388 OA
ATOM     52  H   UNL     1      25.311  36.750  10.979  1.00  0.00     0.211 HD
ENDBRANCH  50  51
BRANCH  50  53
ATOM     53  C   UNL     1      24.477  37.474  13.356  1.00  0.00     0.154 C 
BRANCH  53  54
ATOM     54  N   UNL     1      25.480  36.720  14.061  1.00  0.00    -0.319 N 
ATOM     55  C   UNL     1      25.198  36.112  15.319  1.00  0.00     0.407 C 
ATOM     56  H   UNL     1      26.437  36.610  13.655  1.00  0.00     0.167 HD
ATOM     57  O   UNL     1      24.046  36.227  15.804  1.00  0.00    -0.225 OA
BRANCH  55  58
ATOM     58  O   UNL     1      26.186  35.416  15.981  1.00  0.00    -0.443 OA
BRANCH  58  59
ATOM     59  C   UNL     1      26.503  34.091  15.722  1.00  0.00     0.294 C 
BRANCH  59  60
ATOM     60  C   UNL     1      25.752  33.570  14.578  1.00  0.00     0.121 A 
ATOM     61  C   UNL     1      24.797  32.536  14.611  1.00  0.00     0.144 A 
ATOM     62  N   UNL     1      25.803  33.937  13.305  1.00  0.00    -0.131 NA
ATOM     63  N   UNL     1      24.340  32.349  13.373  1.00  0.00    -0.220 N 
ATOM     64  N   UNL     1      24.964  33.209  12.596  1.00  0.00    -0.062 NA
BRANCH  63  65
ATOM     65  C   UNL     1      23.351  31.365  13.021  1.00  0.00     0.066 A 
ATOM     66  C   UNL     1      22.053  31.752  12.773  1.00  0.00     0.029 A 
ATOM     67  C   UNL     1      23.660  30.026  12.904  1.00  0.00     0.029 A 
ATOM     68  C   UNL     1      21.088  30.806  12.415  1.00  0.00     0.005 A 
ATOM     69  C   UNL     1      22.695  29.078  12.545  1.00  0.00     0.005 A 
ATOM     70  C   UNL     1      21.400  29.470  12.299  1.00  0.00    -0.051 A 
ATOM     71  C   UNL     1      20.369  28.457  11.903  1.00  0.00     0.044 C 
ENDBRANCH  63  65
ENDBRANCH  59  60
ENDBRANCH  58  59
ENDBRANCH  55  58
ENDBRANCH  53  54
ENDBRANCH  50  53
ENDBRANCH  47  50
ENDBRANCH   5  47
BRANCH   4  72
ATOM     72  N   UNL     1      19.353  35.205  10.945  1.00  0.00    -0.348 N 
ATOM     73  C   UNL     1      18.596  34.495  11.926  1.00  0.00     0.217 C 
ATOM     74  H   UNL     1      19.089  35.021   9.957  1.00  0.00     0.163 HD
ATOM     75  C   UNL     1      17.501  33.553  11.538  1.00  0.00     0.114 C 
ATOM     76  O   UNL     1      18.917  34.721  13.119  1.00  0.00    -0.275 OA
ENDBRANCH   4  72
TORSDOF 30
BEGIN_RES LYS A 131
REMARK  4 active torsions:
REMARK  status: ('A' for Active; 'I' for Inactive)
REMARK    1  A    between atoms: CA   and  CB  
REMARK    2  A    between atoms: CB   and  CG  
REMARK    3  A    between atoms: CG   and  CD  
REMARK    4  A    between atoms: CD   and  CE  
ROOT
ATOM      1  CA  LYS A 131      29.867  25.555  16.977  1.00 20.52     0.186 C 
ENDROOT
BRANCH   1   2
ATOM      2  CB  LYS A 131      28.345  25.722  17.026  1.00 20.94     0.034 C 
BRANCH   2   3
ATOM      3  CG  LYS A 131      27.599  24.464  16.609  1.00 22.96     0.005 C 
BRANCH   3   4
ATOM      4  CD  LYS A 131      26.949  23.777  17.779  1.00 24.33     0.041 C 
BRANCH   4   5
ATOM      5  CE  LYS A 131      25.720  24.569  18.215  1.00 26.91     0.338 C 
ATOM      6  NZ  LYS A 131      25.543  24.484  19.684  1.00 27.40     0.618 N 
ENDBRANCH   4   5
ENDBRANCH   3   4
ENDBRANCH   2   3
ENDBRANCH   1   2
END_RES LYS A 131
BEGIN_RES LYS A 135
REMARK  4 active torsions:
REMARK  status: ('A' for Active; 'I' for Inactive)
REMARK    5  A    between atoms: CA   and  CB  
REMARK    6  A    between atoms: CB   and  CG  
REMARK    7  A    between atoms: CG   and  CD  
REMARK    8  A    between atoms: CD   and  CE  
ROOT
ATOM      7  CA  LYS A 135      33.193  34.663   9.290  1.00 25.02     0.186 C 
ENDROOT
BRANCH   7   8
ATOM      8  CB  LYS A 135      32.060  35.360  10.034  1.00 26.63     0.034 C 
BRANCH   8   9
ATOM      9  CG  LYS A 135      30.710  34.733   9.800  1.00 29.45     0.005 C 
BRANCH   9  10
ATOM     10  CD  LYS A 135      30.477  34.500   8.315  1.00 32.00     0.041 C 
BRANCH  10  11
ATOM     11  CE  LYS A 135      29.050  34.849   7.938  1.00 34.25     0.338 C 
ATOM     12  NZ  LYS A 135      29.001  35.579   6.641  1.00 35.99     0.618 N 
ENDBRANCH  10  11
ENDBRANCH   9  10
ENDBRANCH   8   9
ENDBRANCH   7   8
END_RES LYS A 135
