REMARK VINA RESULT:    -5.329      3.177      9.818
REMARK INTER + INTRA:         -23.582
REMARK INTER:                 -12.211
REMARK INTRA:                 -11.371
REMARK UNBOUND:               -10.464
REMARK SMILES CC(=O)N[C@@H]1[C@@H](O)C[C@](OC[C@H]2O[C@@H](O[C@H]3[C@H](O)[C@@H](O)[C@H](OCCN=[N+]=[N-])O[C@@H]3CO)[C@H](O)[C@@H](O)[C@H]2O)(C(=O)O)O[C@H]1C(O)[C@H](O)CNC(=O)OCc1cn(-c2c3ccccc3nc3ccccc23)nn1
REMARK SMILES IDX 9 1 8 2 6 3 5 4 42 5 41 6 10 7 11 8 12 9 14 10 13 11 32 12
REMARK SMILES IDX 34 13 36 14 15 15 16 16 29 17 28 18 21 19 17 20 19 21 30 22
REMARK SMILES IDX 31 23 22 25 23 26 24 27 25 28 26 29 27 30 18 31 20 33 33 35
REMARK SMILES IDX 35 37 37 39 38 41 39 42 40 43 7 45 43 47 44 48 45 50 46 51
REMARK SMILES IDX 47 53 48 54 49 55 50 57 51 58 52 59 53 60 54 61 71 62 55 63
REMARK SMILES IDX 70 64 56 65 57 66 69 67 58 68 62 69 64 70 68 71 59 72 61 73
REMARK SMILES IDX 63 74 65 75 67 76 60 77 66 78 4 79 2 80 1 82 3 83
REMARK H PARENT 31 24 18 32 20 34 33 36 35 38 37 40 40 44 7 46 44 49 46 52
REMARK H PARENT 48 56 4 81
REMARK Flexibility Score: inf
ROOT
ATOM      1  C   UNL     1      22.981  36.778   9.057  1.00  0.00     0.272 C 
ATOM      2  C   UNL     1      22.114  36.169   7.849  1.00  0.00     0.113 C 
ATOM      3  C   UNL     1      21.259  35.154   8.515  1.00  0.00     0.145 C 
ATOM      4  C   UNL     1      20.434  35.677   9.671  1.00  0.00     0.142 C 
ATOM      5  C   UNL     1      21.014  36.843  10.356  1.00  0.00     0.178 C 
ATOM      6  O   UNL     1      22.080  37.443   9.776  1.00  0.00    -0.332 OA
ENDROOT
BRANCH   1   7
ATOM      7  O   UNL     1      23.754  37.683   8.327  1.00  0.00    -0.338 OA
BRANCH   7   8
ATOM      8  C   UNL     1      24.212  38.773   8.985  1.00  0.00     0.199 C 
BRANCH   8   9
ATOM      9  C   UNL     1      25.578  39.215   8.625  1.00  0.00     0.179 C 
ATOM     10  C   UNL     1      27.735  39.654   9.399  1.00  0.00     0.282 C 
ATOM     11  O   UNL     1      26.405  39.296   9.711  1.00  0.00    -0.341 OA
ATOM     12  C   UNL     1      27.939  40.084   8.008  1.00  0.00     0.202 C 
ATOM     13  C   UNL     1      27.393  39.083   7.015  1.00  0.00     0.179 C 
ATOM     14  C   UNL     1      26.203  38.345   7.532  1.00  0.00     0.177 C 
BRANCH  10  15
ATOM     15  O   UNL     1      28.596  38.639   9.797  1.00  0.00    -0.341 OA
BRANCH  15  16
ATOM     16  C   UNL     1      28.516  38.374  11.184  1.00  0.00     0.184 C 
ATOM     17  C   UNL     1      29.830  38.608  11.815  1.00  0.00     0.178 C 
ATOM     18  O   UNL     1      29.989  37.945  13.059  1.00  0.00    -0.341 OA
ATOM     19  C   UNL     1      29.947  36.582  12.789  1.00  0.00     0.281 C 
ATOM     20  C   UNL     1      28.112  36.893  11.248  1.00  0.00     0.180 C 
ATOM     21  C   UNL     1      28.457  36.273  12.574  1.00  0.00     0.202 C 
BRANCH  17  22
ATOM     22  C   UNL     1      30.064  40.086  12.092  1.00  0.00     0.191 C 
BRANCH  22  23
ATOM     23  O   UNL     1      28.990  40.710  12.672  1.00  0.00    -0.394 OA
ATOM     24  H   UNL     1      28.891  41.615  12.276  1.00  0.00     0.210 HD
ENDBRANCH  22  23
ENDBRANCH  17  22
BRANCH  19  25
ATOM     25  O   UNL     1      30.476  35.919  13.867  1.00  0.00    -0.350 OA
BRANCH  25  26
ATOM     26  C   UNL     1      31.811  36.214  14.127  1.00  0.00     0.169 C 
BRANCH  26  27
ATOM     27  C   UNL     1      32.323  35.502  15.360  1.00  0.00     0.119 C 
BRANCH  27  28
ATOM     28  N   UNL     1      32.583  34.118  14.976  1.00  0.00    -0.092 NA
ATOM     29  N   UNL     1      31.874  33.202  15.405  1.00  0.00     0.001 N 
ATOM     30  N   UNL     1      31.159  32.258  15.748  1.00  0.00    -0.003 NA
ENDBRANCH  27  28
ENDBRANCH  26  27
ENDBRANCH  25  26
ENDBRANCH  19  25
BRANCH  20  31
ATOM     31  O   UNL     1      26.772  36.757  10.922  1.00  0.00    -0.387 OA
ATOM     32  H   UNL     1      26.429  35.840  11.067  1.00  0.00     0.211 HD
ENDBRANCH  20  31
BRANCH  21  33
ATOM     33  O   UNL     1      28.234  34.916  12.518  1.00  0.00    -0.385 OA
ATOM     34  H   UNL     1      28.960  34.475  13.055  1.00  0.00     0.211 HD
ENDBRANCH  21  33
ENDBRANCH  15  16
ENDBRANCH  10  15
BRANCH  12  35
ATOM     35  O   UNL     1      27.423  41.372   7.800  1.00  0.00    -0.385 OA
ATOM     36  H   UNL     1      28.153  41.877   7.331  1.00  0.00     0.211 HD
ENDBRANCH  12  35
BRANCH  13  37
ATOM     37  O   UNL     1      28.441  38.204   6.682  1.00  0.00    -0.387 OA
ATOM     38  H   UNL     1      28.880  38.616   5.871  1.00  0.00     0.211 HD
ENDBRANCH  13  37
BRANCH  14  39
ATOM     39  O   UNL     1      26.494  37.071   7.975  1.00  0.00    -0.387 OA
ATOM     40  H   UNL     1      27.426  36.972   8.294  1.00  0.00     0.211 HD
ENDBRANCH  14  39
ENDBRANCH   8   9
ENDBRANCH   7   8
ENDBRANCH   1   7
BRANCH   1  41
ATOM     41  C   UNL     1      23.702  35.644   9.532  1.00  0.00     0.364 C 
ATOM     42  O   UNL     1      24.756  35.243   8.941  1.00  0.00    -0.246 OA
BRANCH  41  43
ATOM     43  O   UNL     1      23.372  34.865  10.647  1.00  0.00    -0.477 OA
ATOM     44  H   UNL     1      22.690  35.223  11.305  1.00  0.00     0.296 HD
ENDBRANCH  41  43
ENDBRANCH   1  41
BRANCH   3  45
ATOM     45  O   UNL     1      20.410  34.624   7.513  1.00  0.00    -0.391 OA
ATOM     46  H   UNL     1      19.465  34.786   7.773  1.00  0.00     0.211 HD
ENDBRANCH   3  45
BRANCH   5  47
ATOM     47  C   UNL     1      19.971  37.980  10.535  1.00  0.00     0.176 C 
BRANCH  47  48
ATOM     48  O   UNL     1      18.745  37.464  10.839  1.00  0.00    -0.388 OA
ATOM     49  H   UNL     1      18.688  36.461  10.761  1.00  0.00     0.211 HD
ENDBRANCH  47  48
BRANCH  47  50
ATOM     50  C   UNL     1      20.476  39.130  11.281  1.00  0.00     0.165 C 
BRANCH  50  51
ATOM     51  O   UNL     1      21.173  40.100  10.556  1.00  0.00    -0.388 OA
ATOM     52  H   UNL     1      20.714  40.976  10.581  1.00  0.00     0.211 HD
ENDBRANCH  50  51
BRANCH  50  53
ATOM     53  C   UNL     1      20.986  38.929  12.655  1.00  0.00     0.154 C 
BRANCH  53  54
ATOM     54  N   UNL     1      22.149  38.155  12.879  1.00  0.00    -0.319 N 
ATOM     55  C   UNL     1      23.476  38.595  12.690  1.00  0.00     0.407 C 
ATOM     56  H   UNL     1      22.017  37.133  13.229  1.00  0.00     0.167 HD
ATOM     57  O   UNL     1      23.797  39.719  12.274  1.00  0.00    -0.225 OA
BRANCH  55  58
ATOM     58  O   UNL     1      24.561  37.744  12.978  1.00  0.00    -0.443 OA
BRANCH  58  59
ATOM     59  C   UNL     1      24.626  36.951  14.151  1.00  0.00     0.294 C 
BRANCH  59  60
ATOM     60  C   UNL     1      24.805  35.520  13.771  1.00  0.00     0.121 A 
ATOM     61  C   UNL     1      24.468  34.395  14.494  1.00  0.00     0.144 A 
ATOM     62  N   UNL     1      25.350  35.056  12.638  1.00  0.00    -0.131 NA
ATOM     63  N   UNL     1      24.806  33.282  13.804  1.00  0.00    -0.219 N 
ATOM     64  N   UNL     1      25.343  33.718  12.677  1.00  0.00    -0.062 NA
BRANCH  63  65
ATOM     65  C   UNL     1      24.618  31.919  14.228  1.00  0.00     0.085 A 
ATOM     66  C   UNL     1      25.491  31.350  15.143  1.00  0.00     0.027 A 
ATOM     67  C   UNL     1      23.589  31.140  13.751  1.00  0.00     0.027 A 
ATOM     68  C   UNL     1      26.540  32.079  15.658  1.00  0.00     0.012 A 
ATOM     69  C   UNL     1      25.354  30.035  15.581  1.00  0.00     0.073 A 
ATOM     70  C   UNL     1      23.489  29.846  14.209  1.00  0.00     0.073 A 
ATOM     71  C   UNL     1      22.692  31.636  12.850  1.00  0.00     0.012 A 
ATOM     72  C   UNL     1      27.408  31.514  16.568  1.00  0.00     0.001 A 
ATOM     73  C   UNL     1      26.223  29.474  16.490  1.00  0.00     0.029 A 
ATOM     74  N   UNL     1      24.342  29.304  15.096  1.00  0.00    -0.248 NA
ATOM     75  C   UNL     1      22.470  29.034  13.754  1.00  0.00     0.029 A 
ATOM     76  C   UNL     1      21.677  30.798  12.410  1.00  0.00     0.001 A 
ATOM     77  C   UNL     1      27.270  30.200  17.005  1.00  0.00     0.002 A 
ATOM     78  C   UNL     1      21.539  29.496  12.842  1.00  0.00     0.002 A 
ENDBRANCH  63  65
ENDBRANCH  59  60
ENDBRANCH  58  59
ENDBRANCH  55  58
ENDBRANCH  53  54
ENDBRANCH  50  53
ENDBRANCH  47  50
ENDBRANCH   5  47
BRANCH   4  79
ATOM     79  N   UNL     1      20.109  34.578  10.551  1.00  0.00    -0.348 N 
ATOM     80  C   UNL     1      18.796  34.046  10.727  1.00  0.00     0.217 C 
ATOM     81  H   UNL     1      20.851  34.112  11.123  1.00  0.00     0.163 HD
ATOM     82  C   UNL     1      18.587  32.903  11.678  1.00  0.00     0.114 C 
ATOM     83  O   UNL     1      17.871  34.558  10.077  1.00  0.00    -0.275 OA
ENDBRANCH   4  79
TORSDOF 30
BEGIN_RES LYS A 131
REMARK  4 active torsions:
REMARK  status: ('A' for Active; 'I' for Inactive)
REMARK    1  A    between atoms: CA   and  CB  
REMARK    2  A    between atoms: CB   and  CG  
REMARK    3  A    between atoms: CG   and  CD  
REMARK    4  A    between atoms: CD   and  CE  
ROOT
ATOM      1  CA  LYS A 131      29.867  25.555  16.977  1.00 20.52     0.186 C 
ENDROOT
BRANCH   1   2
ATOM      2  CB  LYS A 131      28.345  25.722  17.026  1.00 20.94     0.034 C 
BRANCH   2   3
ATOM      3  CG  LYS A 131      27.602  24.398  16.930  1.00 22.96     0.005 C 
BRANCH   3   4
ATOM      4  CD  LYS A 131      26.614  24.221  18.049  1.00 24.33     0.041 C 
BRANCH   4   5
ATOM      5  CE  LYS A 131      26.383  25.560  18.742  1.00 26.91     0.338 C 
ATOM      6  NZ  LYS A 131      24.965  25.973  18.613  1.00 27.40     0.618 N 
ENDBRANCH   4   5
ENDBRANCH   3   4
ENDBRANCH   2   3
ENDBRANCH   1   2
END_RES LYS A 131
BEGIN_RES LYS A 135
REMARK  4 active torsions:
REMARK  status: ('A' for Active; 'I' for Inactive)
REMARK    5  A    between atoms: CA   and  CB  
REMARK    6  A    between atoms: CB   and  CG  
REMARK    7  A    between atoms: CG   and  CD  
REMARK    8  A    between atoms: CD   and  CE  
ROOT
ATOM      7  CA  LYS A 135      33.193  34.663   9.290  1.00 25.02     0.186 C 
ENDROOT
BRANCH   7   8
ATOM      8  CB  LYS A 135      32.060  35.360  10.034  1.00 26.63     0.034 C 
BRANCH   8   9
ATOM      9  CG  LYS A 135      30.891  35.717   9.153  1.00 29.45     0.005 C 
BRANCH   9  10
ATOM     10  CD  LYS A 135      30.391  34.493   8.401  1.00 32.00     0.041 C 
BRANCH  10  11
ATOM     11  CE  LYS A 135      28.878  34.506   8.307  1.00 34.25     0.338 C 
ATOM     12  NZ  LYS A 135      28.263  33.750   9.433  1.00 35.99     0.618 N 
ENDBRANCH  10  11
ENDBRANCH   9  10
ENDBRANCH   8   9
ENDBRANCH   7   8
END_RES LYS A 135
