REMARK VINA RESULT:    -4.739      5.294     11.792
REMARK INTER + INTRA:         -23.389
REMARK INTER:                 -11.506
REMARK INTRA:                 -11.883
REMARK UNBOUND:               -11.447
REMARK SMILES CC(=O)N[C@@H]1[C@@H](O)C[C@](OC[C@H]2O[C@@H](O[C@H]3[C@H](O)[C@@H](O)[C@H](OCCN=[N+]=[N-])O[C@@H]3CO)[C@H](O)[C@@H](O)[C@H]2O)(C(=O)O)O[C@H]1C(O)[C@H](O)CNC(=O)OCc1cn(-c2ccccc2C(C)C)nn1
REMARK SMILES IDX 9 1 8 2 6 3 5 4 42 5 41 6 10 7 11 8 12 9 14 10 13 11 32 12
REMARK SMILES IDX 34 13 36 14 15 15 16 16 29 17 28 18 21 19 17 20 19 21 30 22
REMARK SMILES IDX 31 23 22 25 23 26 24 27 25 28 26 29 27 30 18 31 20 33 33 35
REMARK SMILES IDX 35 37 37 39 38 41 39 42 40 43 7 45 43 47 44 48 45 50 46 51
REMARK SMILES IDX 47 53 48 54 49 55 50 57 51 58 52 59 53 60 54 61 66 62 55 63
REMARK SMILES IDX 65 64 56 65 61 66 57 67 60 68 58 69 59 70 62 71 63 72 64 73
REMARK SMILES IDX 4 74 2 75 1 77 3 78
REMARK H PARENT 31 24 18 32 20 34 33 36 35 38 37 40 40 44 7 46 44 49 46 52
REMARK H PARENT 48 56 4 76
REMARK Flexibility Score: inf
ROOT
ATOM      1  C   UNL     1      28.654  32.866  15.802  1.00  0.00     0.272 C 
ATOM      2  C   UNL     1      29.094  33.284  14.418  1.00  0.00     0.113 C 
ATOM      3  C   UNL     1      30.615  33.311  14.410  1.00  0.00     0.145 C 
ATOM      4  C   UNL     1      31.042  34.484  15.310  1.00  0.00     0.142 C 
ATOM      5  C   UNL     1      30.316  34.343  16.595  1.00  0.00     0.178 C 
ATOM      6  O   UNL     1      29.759  33.076  16.681  1.00  0.00    -0.332 OA
ENDROOT
BRANCH   1   7
ATOM      7  O   UNL     1      28.430  31.542  15.893  1.00  0.00    -0.338 OA
BRANCH   7   8
ATOM      8  C   UNL     1      27.373  30.831  15.700  1.00  0.00     0.199 C 
BRANCH   8   9
ATOM      9  C   UNL     1      26.823  29.840  16.673  1.00  0.00     0.179 C 
ATOM     10  C   UNL     1      27.288  28.594  18.517  1.00  0.00     0.282 C 
ATOM     11  O   UNL     1      27.782  29.243  17.454  1.00  0.00    -0.341 OA
ATOM     12  C   UNL     1      25.799  28.281  18.492  1.00  0.00     0.202 C 
ATOM     13  C   UNL     1      24.975  29.516  18.246  1.00  0.00     0.179 C 
ATOM     14  C   UNL     1      25.852  30.568  17.632  1.00  0.00     0.177 C 
BRANCH  10  15
ATOM     15  O   UNL     1      27.591  29.066  19.757  1.00  0.00    -0.341 OA
BRANCH  15  16
ATOM     16  C   UNL     1      28.905  29.220  20.120  1.00  0.00     0.184 C 
ATOM     17  C   UNL     1      29.275  28.482  21.363  1.00  0.00     0.178 C 
ATOM     18  O   UNL     1      29.763  29.271  22.345  1.00  0.00    -0.341 OA
ATOM     19  C   UNL     1      30.819  30.093  22.103  1.00  0.00     0.281 C 
ATOM     20  C   UNL     1      29.400  30.609  20.144  1.00  0.00     0.180 C 
ATOM     21  C   UNL     1      30.830  30.590  20.656  1.00  0.00     0.202 C 
BRANCH  17  22
ATOM     22  C   UNL     1      30.284  27.347  21.121  1.00  0.00     0.191 C 
BRANCH  22  23
ATOM     23  O   UNL     1      30.031  26.354  22.094  1.00  0.00    -0.394 OA
ATOM     24  H   UNL     1      30.014  26.839  22.978  1.00  0.00     0.210 HD
ENDBRANCH  22  23
ENDBRANCH  17  22
BRANCH  19  25
ATOM     25  O   UNL     1      32.003  29.443  22.328  1.00  0.00    -0.350 OA
BRANCH  25  26
ATOM     26  C   UNL     1      33.057  29.723  21.518  1.00  0.00     0.169 C 
BRANCH  26  27
ATOM     27  C   UNL     1      34.381  29.963  22.143  1.00  0.00     0.119 C 
BRANCH  27  28
ATOM     28  N   UNL     1      34.814  31.310  21.985  1.00  0.00    -0.092 NA
ATOM     29  N   UNL     1      34.160  32.319  22.162  1.00  0.00     0.001 N 
ATOM     30  N   UNL     1      33.422  33.226  22.527  1.00  0.00    -0.003 NA
ENDBRANCH  27  28
ENDBRANCH  26  27
ENDBRANCH  25  26
ENDBRANCH  19  25
BRANCH  20  31
ATOM     31  O   UNL     1      29.446  31.228  18.896  1.00  0.00    -0.387 OA
ATOM     32  H   UNL     1      30.374  31.201  18.575  1.00  0.00     0.211 HD
ENDBRANCH  20  31
BRANCH  21  33
ATOM     33  O   UNL     1      31.373  31.876  20.650  1.00  0.00    -0.385 OA
ATOM     34  H   UNL     1      30.727  32.458  20.175  1.00  0.00     0.211 HD
ENDBRANCH  21  33
ENDBRANCH  15  16
ENDBRANCH  10  15
BRANCH  12  35
ATOM     35  O   UNL     1      25.579  27.333  17.506  1.00  0.00    -0.385 OA
ATOM     36  H   UNL     1      24.661  26.931  17.618  1.00  0.00     0.211 HD
ENDBRANCH  12  35
BRANCH  13  37
ATOM     37  O   UNL     1      24.427  29.952  19.461  1.00  0.00    -0.387 OA
ATOM     38  H   UNL     1      23.939  30.789  19.262  1.00  0.00     0.211 HD
ENDBRANCH  13  37
BRANCH  14  39
ATOM     39  O   UNL     1      26.619  31.167  18.608  1.00  0.00    -0.387 OA
ATOM     40  H   UNL     1      27.532  31.289  18.246  1.00  0.00     0.211 HD
ENDBRANCH  14  39
ENDBRANCH   8   9
ENDBRANCH   7   8
ENDBRANCH   1   7
BRANCH   1  41
ATOM     41  C   UNL     1      27.534  33.680  16.288  1.00  0.00     0.364 C 
ATOM     42  O   UNL     1      27.407  33.770  17.561  1.00  0.00    -0.246 OA
BRANCH  41  43
ATOM     43  O   UNL     1      26.592  34.363  15.566  1.00  0.00    -0.477 OA
ATOM     44  H   UNL     1      26.758  35.090  14.895  1.00  0.00     0.296 HD
ENDBRANCH  41  43
ENDBRANCH   1  41
BRANCH   3  45
ATOM     45  O   UNL     1      31.110  32.170  15.050  1.00  0.00    -0.391 OA
ATOM     46  H   UNL     1      30.500  31.972  15.804  1.00  0.00     0.211 HD
ENDBRANCH   3  45
BRANCH   5  47
ATOM     47  C   UNL     1      31.108  34.510  17.856  1.00  0.00     0.176 C 
BRANCH  47  48
ATOM     48  O   UNL     1      31.499  33.164  18.180  1.00  0.00    -0.388 OA
ATOM     49  H   UNL     1      32.014  32.903  17.352  1.00  0.00     0.211 HD
ENDBRANCH  47  48
BRANCH  47  50
ATOM     50  C   UNL     1      30.368  35.005  19.058  1.00  0.00     0.165 C 
BRANCH  50  51
ATOM     51  O   UNL     1      29.515  34.087  19.608  1.00  0.00    -0.388 OA
ATOM     52  H   UNL     1      29.469  33.324  18.976  1.00  0.00     0.211 HD
ENDBRANCH  50  51
BRANCH  50  53
ATOM     53  C   UNL     1      29.905  36.408  18.945  1.00  0.00     0.154 C 
BRANCH  53  54
ATOM     54  N   UNL     1      28.580  36.584  18.384  1.00  0.00    -0.319 N 
ATOM     55  C   UNL     1      28.382  37.217  17.132  1.00  0.00     0.407 C 
ATOM     56  H   UNL     1      27.720  36.253  18.871  1.00  0.00     0.167 HD
ATOM     57  O   UNL     1      29.312  37.671  16.428  1.00  0.00    -0.225 OA
BRANCH  55  58
ATOM     58  O   UNL     1      27.099  37.394  16.560  1.00  0.00    -0.443 OA
BRANCH  58  59
ATOM     59  C   UNL     1      26.953  38.154  15.400  1.00  0.00     0.294 C 
BRANCH  59  60
ATOM     60  C   UNL     1      26.439  37.270  14.316  1.00  0.00     0.121 A 
ATOM     61  C   UNL     1      27.003  36.909  13.113  1.00  0.00     0.144 A 
ATOM     62  N   UNL     1      25.235  36.614  14.325  1.00  0.00    -0.131 NA
ATOM     63  N   UNL     1      26.194  36.083  12.428  1.00  0.00    -0.220 N 
ATOM     64  N   UNL     1      25.116  35.926  13.208  1.00  0.00    -0.062 NA
BRANCH  63  65
ATOM     65  C   UNL     1      26.388  35.470  11.158  1.00  0.00     0.070 A 
ATOM     66  C   UNL     1      25.724  35.970  10.059  1.00  0.00    -0.020 A 
ATOM     67  C   UNL     1      27.205  34.380  10.959  1.00  0.00     0.029 A 
ATOM     68  C   UNL     1      25.874  35.395   8.812  1.00  0.00     0.006 A 
ATOM     69  C   UNL     1      27.367  33.793   9.717  1.00  0.00     0.002 A 
ATOM     70  C   UNL     1      26.693  34.307   8.628  1.00  0.00     0.000 A 
BRANCH  66  71
ATOM     71  C   UNL     1      24.845  37.145  10.226  1.00  0.00     0.015 C 
ATOM     72  C   UNL     1      23.500  36.822   9.594  1.00  0.00     0.012 C 
ATOM     73  C   UNL     1      25.443  38.340   9.465  1.00  0.00     0.012 C 
ENDBRANCH  66  71
ENDBRANCH  63  65
ENDBRANCH  59  60
ENDBRANCH  58  59
ENDBRANCH  55  58
ENDBRANCH  53  54
ENDBRANCH  50  53
ENDBRANCH  47  50
ENDBRANCH   5  47
BRANCH   4  74
ATOM     74  N   UNL     1      30.710  35.699  14.602  1.00  0.00    -0.348 N 
ATOM     75  C   UNL     1      31.534  36.338  13.663  1.00  0.00     0.217 C 
ATOM     76  H   UNL     1      29.770  36.150  14.812  1.00  0.00     0.163 HD
ATOM     77  C   UNL     1      31.045  37.602  13.016  1.00  0.00     0.114 C 
ATOM     78  O   UNL     1      32.644  35.875  13.370  1.00  0.00    -0.275 OA
ENDBRANCH   4  74
TORSDOF 31
BEGIN_RES LYS A 131
REMARK  4 active torsions:
REMARK  status: ('A' for Active; 'I' for Inactive)
REMARK    1  A    between atoms: CA   and  CB  
REMARK    2  A    between atoms: CB   and  CG  
REMARK    3  A    between atoms: CG   and  CD  
REMARK    4  A    between atoms: CD   and  CE  
ROOT
ATOM      1  CA  LYS A 131      29.867  25.555  16.977  1.00 20.52     0.186 C 
ENDROOT
BRANCH   1   2
ATOM      2  CB  LYS A 131      28.345  25.722  17.026  1.00 20.94     0.034 C 
BRANCH   2   3
ATOM      3  CG  LYS A 131      27.600  24.417  16.791  1.00 22.96     0.005 C 
BRANCH   3   4
ATOM      4  CD  LYS A 131      26.911  23.927  18.035  1.00 24.33     0.041 C 
BRANCH   4   5
ATOM      5  CE  LYS A 131      25.641  23.175  17.650  1.00 26.91     0.338 C 
ATOM      6  NZ  LYS A 131      24.706  24.071  16.929  1.00 27.40     0.618 N 
ENDBRANCH   4   5
ENDBRANCH   3   4
ENDBRANCH   2   3
ENDBRANCH   1   2
END_RES LYS A 131
BEGIN_RES LYS A 135
REMARK  4 active torsions:
REMARK  status: ('A' for Active; 'I' for Inactive)
REMARK    5  A    between atoms: CA   and  CB  
REMARK    6  A    between atoms: CB   and  CG  
REMARK    7  A    between atoms: CG   and  CD  
REMARK    8  A    between atoms: CD   and  CE  
ROOT
ATOM      7  CA  LYS A 135      33.193  34.663   9.290  1.00 25.02     0.186 C 
ENDROOT
BRANCH   7   8
ATOM      8  CB  LYS A 135      32.060  35.360  10.034  1.00 26.63     0.034 C 
BRANCH   8   9
ATOM      9  CG  LYS A 135      30.688  34.925   9.587  1.00 29.45     0.005 C 
BRANCH   9  10
ATOM     10  CD  LYS A 135      30.705  34.521   8.121  1.00 32.00     0.041 C 
BRANCH  10  11
ATOM     11  CE  LYS A 135      29.645  35.280   7.346  1.00 34.25     0.338 C 
ATOM     12  NZ  LYS A 135      29.438  36.642   7.914  1.00 35.99     0.618 N 
ENDBRANCH  10  11
ENDBRANCH   9  10
ENDBRANCH   8   9
ENDBRANCH   7   8
END_RES LYS A 135
