REMARK VINA RESULT:    -4.108      5.926     12.598
REMARK INTER + INTRA:         -21.683
REMARK INTER:                  -9.337
REMARK INTRA:                 -12.345
REMARK UNBOUND:               -11.571
REMARK SMILES CC(=O)N[C@@H]1[C@@H](O)C[C@](OC[C@H]2O[C@@H](O[C@H]3[C@H](O)[C@@H](O)[C@H](OCCN=[N+]=[N-])O[C@@H]3CO)[C@H](O)[C@@H](O)[C@H]2O)(C(=O)O)O[C@H]1C(O)[C@H](O)CNC(=O)OCc1cn(-c2ccc3[nH]ncc3c2)nn1
REMARK SMILES IDX 9 1 8 2 6 3 5 4 42 5 41 6 10 7 11 8 12 9 14 10 13 11 32 12
REMARK SMILES IDX 34 13 36 14 15 15 16 16 29 17 28 18 21 19 17 20 19 21 30 22
REMARK SMILES IDX 31 23 22 25 23 26 24 27 25 28 26 29 27 30 18 31 20 33 33 35
REMARK SMILES IDX 35 37 37 39 38 41 39 42 40 43 7 45 43 47 44 48 45 50 46 51
REMARK SMILES IDX 47 53 48 54 49 55 50 57 51 58 52 59 53 60 54 61 66 62 55 63
REMARK SMILES IDX 65 64 56 65 57 66 64 67 58 68 63 69 59 70 62 71 60 72 61 73
REMARK SMILES IDX 4 75 2 76 1 78 3 79
REMARK H PARENT 31 24 18 32 20 34 33 36 35 38 37 40 40 44 7 46 44 49 46 52
REMARK H PARENT 48 56 60 74 4 77
REMARK Flexibility Score: inf
ROOT
ATOM      1  C   UNL     1      25.859  38.046   8.162  1.00  0.00     0.272 C 
ATOM      2  C   UNL     1      26.843  37.703   9.221  1.00  0.00     0.113 C 
ATOM      3  C   UNL     1      27.582  38.870   9.823  1.00  0.00     0.145 C 
ATOM      4  C   UNL     1      26.467  39.784  10.396  1.00  0.00     0.142 C 
ATOM      5  C   UNL     1      25.575  40.065   9.250  1.00  0.00     0.178 C 
ATOM      6  O   UNL     1      24.983  39.030   8.614  1.00  0.00    -0.332 OA
ENDROOT
BRANCH   1   7
ATOM      7  O   UNL     1      25.107  36.889   7.868  1.00  0.00    -0.338 OA
BRANCH   7   8
ATOM      8  C   UNL     1      23.760  37.040   7.918  1.00  0.00     0.199 C 
BRANCH   8   9
ATOM      9  C   UNL     1      23.094  35.977   8.821  1.00  0.00     0.179 C 
ATOM     10  C   UNL     1      22.309  36.294  10.977  1.00  0.00     0.282 C 
ATOM     11  O   UNL     1      23.423  36.165  10.130  1.00  0.00    -0.341 OA
ATOM     12  C   UNL     1      21.585  37.524  10.536  1.00  0.00     0.202 C 
ATOM     13  C   UNL     1      20.934  37.183   9.187  1.00  0.00     0.179 C 
ATOM     14  C   UNL     1      21.598  35.982   8.571  1.00  0.00     0.177 C 
BRANCH  10  15
ATOM     15  O   UNL     1      22.730  36.291  12.295  1.00  0.00    -0.341 OA
BRANCH  15  16
ATOM     16  C   UNL     1      22.561  35.023  12.835  1.00  0.00     0.184 C 
ATOM     17  C   UNL     1      21.808  34.989  14.131  1.00  0.00     0.178 C 
ATOM     18  O   UNL     1      21.605  33.728  14.547  1.00  0.00    -0.341 OA
ATOM     19  C   UNL     1      22.348  32.694  14.075  1.00  0.00     0.281 C 
ATOM     20  C   UNL     1      23.938  34.444  13.215  1.00  0.00     0.180 C 
ATOM     21  C   UNL     1      23.721  33.020  13.595  1.00  0.00     0.202 C 
BRANCH  17  22
ATOM     22  C   UNL     1      20.486  35.729  14.102  1.00  0.00     0.191 C 
BRANCH  22  23
ATOM     23  O   UNL     1      20.652  37.096  14.220  1.00  0.00    -0.394 OA
ATOM     24  H   UNL     1      19.738  37.491  14.078  1.00  0.00     0.210 HD
ENDBRANCH  22  23
ENDBRANCH  17  22
BRANCH  19  25
ATOM     25  O   UNL     1      21.621  32.077  13.087  1.00  0.00    -0.350 OA
BRANCH  25  26
ATOM     26  C   UNL     1      22.183  31.011  12.475  1.00  0.00     0.169 C 
BRANCH  26  27
ATOM     27  C   UNL     1      21.595  29.692  12.861  1.00  0.00     0.119 C 
BRANCH  27  28
ATOM     28  N   UNL     1      22.404  28.882  13.722  1.00  0.00    -0.092 NA
ATOM     29  N   UNL     1      23.285  29.320  14.435  1.00  0.00     0.001 N 
ATOM     30  N   UNL     1      24.395  29.688  14.881  1.00  0.00    -0.003 NA
ENDBRANCH  27  28
ENDBRANCH  26  27
ENDBRANCH  25  26
ENDBRANCH  19  25
BRANCH  20  31
ATOM     31  O   UNL     1      24.849  34.591  12.205  1.00  0.00    -0.387 OA
ATOM     32  H   UNL     1      24.581  34.155  11.355  1.00  0.00     0.211 HD
ENDBRANCH  20  31
BRANCH  21  33
ATOM     33  O   UNL     1      24.691  32.695  14.561  1.00  0.00    -0.385 OA
ATOM     34  H   UNL     1      25.603  32.698  14.175  1.00  0.00     0.211 HD
ENDBRANCH  21  33
ENDBRANCH  15  16
ENDBRANCH  10  15
BRANCH  12  35
ATOM     35  O   UNL     1      20.662  38.029  11.416  1.00  0.00    -0.385 OA
ATOM     36  H   UNL     1      20.394  38.970  11.183  1.00  0.00     0.211 HD
ENDBRANCH  12  35
BRANCH  13  37
ATOM     37  O   UNL     1      20.857  38.283   8.359  1.00  0.00    -0.387 OA
ATOM     38  H   UNL     1      20.884  39.096   8.949  1.00  0.00     0.211 HD
ENDBRANCH  13  37
BRANCH  14  39
ATOM     39  O   UNL     1      21.415  36.100   7.170  1.00  0.00    -0.387 OA
ATOM     40  H   UNL     1      21.219  35.251   6.745  1.00  0.00     0.211 HD
ENDBRANCH  14  39
ENDBRANCH   8   9
ENDBRANCH   7   8
ENDBRANCH   1   7
BRANCH   1  41
ATOM     41  C   UNL     1      26.460  38.594   6.916  1.00  0.00     0.364 C 
ATOM     42  O   UNL     1      27.629  38.180   6.614  1.00  0.00    -0.246 OA
BRANCH  41  43
ATOM     43  O   UNL     1      25.907  39.492   6.058  1.00  0.00    -0.477 OA
ATOM     44  H   UNL     1      26.395  40.318   5.710  1.00  0.00     0.296 HD
ENDBRANCH  41  43
ENDBRANCH   1  41
BRANCH   3  45
ATOM     45  O   UNL     1      28.381  38.398  10.847  1.00  0.00    -0.391 OA
ATOM     46  H   UNL     1      28.721  39.143  11.429  1.00  0.00     0.211 HD
ENDBRANCH   3  45
BRANCH   5  47
ATOM     47  C   UNL     1      24.657  41.217   9.531  1.00  0.00     0.176 C 
BRANCH  47  48
ATOM     48  O   UNL     1      24.277  41.674   8.216  1.00  0.00    -0.388 OA
ATOM     49  H   UNL     1      24.821  41.233   7.533  1.00  0.00     0.211 HD
ENDBRANCH  47  48
BRANCH  47  50
ATOM     50  C   UNL     1      23.350  40.866  10.197  1.00  0.00     0.165 C 
BRANCH  50  51
ATOM     51  O   UNL     1      22.372  41.658   9.532  1.00  0.00    -0.388 OA
ATOM     52  H   UNL     1      21.745  41.116   9.022  1.00  0.00     0.211 HD
ENDBRANCH  50  51
BRANCH  50  53
ATOM     53  C   UNL     1      23.271  41.135  11.652  1.00  0.00     0.154 C 
BRANCH  53  54
ATOM     54  N   UNL     1      23.656  40.099  12.543  1.00  0.00    -0.319 N 
ATOM     55  C   UNL     1      22.863  39.484  13.540  1.00  0.00     0.407 C 
ATOM     56  H   UNL     1      24.653  39.714  12.481  1.00  0.00     0.167 HD
ATOM     57  O   UNL     1      21.686  39.810  13.719  1.00  0.00    -0.225 OA
BRANCH  55  58
ATOM     58  O   UNL     1      23.407  38.485  14.343  1.00  0.00    -0.443 OA
BRANCH  58  59
ATOM     59  C   UNL     1      24.683  38.494  14.906  1.00  0.00     0.294 C 
BRANCH  59  60
ATOM     60  C   UNL     1      25.666  37.635  14.232  1.00  0.00     0.121 A 
ATOM     61  C   UNL     1      26.572  36.794  14.838  1.00  0.00     0.144 A 
ATOM     62  N   UNL     1      25.856  37.532  12.899  1.00  0.00    -0.131 NA
ATOM     63  N   UNL     1      27.261  36.227  13.845  1.00  0.00    -0.220 N 
ATOM     64  N   UNL     1      26.815  36.684  12.689  1.00  0.00    -0.062 NA
BRANCH  63  65
ATOM     65  C   UNL     1      28.314  35.281  14.023  1.00  0.00     0.067 A 
ATOM     66  C   UNL     1      29.449  35.325  13.244  1.00  0.00     0.030 A 
ATOM     67  C   UNL     1      28.210  34.298  14.981  1.00  0.00     0.040 A 
ATOM     68  C   UNL     1      30.459  34.411  13.415  1.00  0.00     0.030 A 
ATOM     69  C   UNL     1      29.244  33.379  15.142  1.00  0.00     0.022 A 
ATOM     70  C   UNL     1      30.390  33.411  14.366  1.00  0.00     0.065 A 
ATOM     71  C   UNL     1      29.372  32.325  16.016  1.00  0.00     0.143 A 
ATOM     72  N   UNL     1      31.183  32.403  14.767  1.00  0.00    -0.278 N 
ATOM     73  N   UNL     1      30.566  31.774  15.741  1.00  0.00    -0.183 NA
ATOM     74  H   UNL     1      32.122  32.185  14.353  1.00  0.00     0.190 HD
ENDBRANCH  63  65
ENDBRANCH  59  60
ENDBRANCH  58  59
ENDBRANCH  55  58
ENDBRANCH  53  54
ENDBRANCH  50  53
ENDBRANCH  47  50
ENDBRANCH   5  47
BRANCH   4  75
ATOM     75  N   UNL     1      27.208  41.003  10.739  1.00  0.00    -0.348 N 
ATOM     76  C   UNL     1      27.194  41.456  12.060  1.00  0.00     0.217 C 
ATOM     77  H   UNL     1      27.738  41.538  10.032  1.00  0.00     0.163 HD
ATOM     78  C   UNL     1      27.921  42.696  12.492  1.00  0.00     0.114 C 
ATOM     79  O   UNL     1      26.549  40.799  12.941  1.00  0.00    -0.275 OA
ENDBRANCH   4  75
TORSDOF 30
BEGIN_RES LYS A 131
REMARK  4 active torsions:
REMARK  status: ('A' for Active; 'I' for Inactive)
REMARK    1  A    between atoms: CA   and  CB  
REMARK    2  A    between atoms: CB   and  CG  
REMARK    3  A    between atoms: CG   and  CD  
REMARK    4  A    between atoms: CD   and  CE  
ROOT
ATOM      1  CA  LYS A 131      29.867  25.555  16.977  1.00 20.52     0.186 C 
ENDROOT
BRANCH   1   2
ATOM      2  CB  LYS A 131      28.345  25.722  17.026  1.00 20.94     0.034 C 
BRANCH   2   3
ATOM      3  CG  LYS A 131      27.599  24.423  16.763  1.00 22.96     0.005 C 
BRANCH   3   4
ATOM      4  CD  LYS A 131      26.900  23.912  17.992  1.00 24.33     0.041 C 
BRANCH   4   5
ATOM      5  CE  LYS A 131      25.536  23.349  17.605  1.00 26.91     0.338 C 
ATOM      6  NZ  LYS A 131      24.740  24.369  16.883  1.00 27.40     0.618 N 
ENDBRANCH   4   5
ENDBRANCH   3   4
ENDBRANCH   2   3
ENDBRANCH   1   2
END_RES LYS A 131
BEGIN_RES LYS A 135
REMARK  4 active torsions:
REMARK  status: ('A' for Active; 'I' for Inactive)
REMARK    5  A    between atoms: CA   and  CB  
REMARK    6  A    between atoms: CB   and  CG  
REMARK    7  A    between atoms: CG   and  CD  
REMARK    8  A    between atoms: CD   and  CE  
ROOT
ATOM      7  CA  LYS A 135      33.193  34.663   9.290  1.00 25.02     0.186 C 
ENDROOT
BRANCH   7   8
ATOM      8  CB  LYS A 135      32.060  35.360  10.034  1.00 26.63     0.034 C 
BRANCH   8   9
ATOM      9  CG  LYS A 135      30.810  35.525   9.209  1.00 29.45     0.005 C 
BRANCH   9  10
ATOM     10  CD  LYS A 135      30.001  34.237   9.196  1.00 32.00     0.041 C 
BRANCH  10  11
ATOM     11  CE  LYS A 135      28.672  34.450   8.497  1.00 34.25     0.338 C 
ATOM     12  NZ  LYS A 135      28.852  35.182   7.213  1.00 35.99     0.618 N 
ENDBRANCH  10  11
ENDBRANCH   9  10
ENDBRANCH   8   9
ENDBRANCH   7   8
END_RES LYS A 135
