REMARK VINA RESULT:    -5.321      6.370     11.764
REMARK INTER + INTRA:         -23.628
REMARK INTER:                 -12.906
REMARK INTRA:                 -10.722
REMARK UNBOUND:                -9.598
REMARK SMILES CC(=O)N[C@@H]1[C@@H](O)C[C@](OC[C@H]2O[C@@H](O[C@H]3[C@H](O)[C@@H](O)[C@H](OCCN=[N+]=[N-])O[C@@H]3CO)[C@H](O)[C@@H](O)[C@H]2O)(C(=O)O)O[C@H]1C(O)[C@H](O)CNC(=O)OCc1cn(Cc2ccccc2OC(C)=O)nn1
REMARK SMILES IDX 43 1 42 2 9 3 8 4 41 5 6 6 5 7 10 8 11 9 12 10 14 11 13 12
REMARK SMILES IDX 32 13 34 14 36 15 15 16 16 17 29 18 28 19 21 20 17 21 19 22
REMARK SMILES IDX 30 23 31 24 22 26 23 27 24 28 25 29 26 30 27 31 18 32 20 34
REMARK SMILES IDX 33 36 35 38 37 40 38 42 39 43 40 44 7 46 4 48 2 49 1 51 3 52
REMARK SMILES IDX 44 53 45 55 46 56 47 58 48 59 49 60 50 62 51 63 52 64 53 65
REMARK SMILES IDX 54 66 68 67 55 68 67 69 56 70 57 71 62 72 58 73 61 74 59 75
REMARK SMILES IDX 60 76 63 77 64 78 66 79 65 80
REMARK H PARENT 31 25 18 33 20 35 33 37 35 39 37 41 40 45 7 47 4 50 44 54
REMARK H PARENT 46 57 48 61
REMARK Flexibility Score: inf
ROOT
ATOM      1  C   UNL     1      27.876  33.929  17.263  1.00  0.00     0.176 C 
ENDROOT
BRANCH   1   2
ATOM      2  C   UNL     1      27.706  32.596  16.551  1.00  0.00     0.178 C 
ATOM      3  C   UNL     1      27.133  30.376  16.976  1.00  0.00     0.272 C 
ATOM      4  C   UNL     1      27.793  30.259  15.606  1.00  0.00     0.113 C 
ATOM      5  O   UNL     1      27.449  31.646  17.514  1.00  0.00    -0.332 OA
ATOM      6  C   UNL     1      29.185  30.849  15.755  1.00  0.00     0.145 C 
ATOM      7  C   UNL     1      29.043  32.319  15.861  1.00  0.00     0.142 C 
BRANCH   3   8
ATOM      8  O   UNL     1      27.597  29.465  17.877  1.00  0.00    -0.338 OA
BRANCH   8   9
ATOM      9  C   UNL     1      27.136  28.188  17.815  1.00  0.00     0.199 C 
BRANCH   9  10
ATOM     10  C   UNL     1      27.390  27.532  19.183  1.00  0.00     0.179 C 
ATOM     11  C   UNL     1      28.965  27.407  20.853  1.00  0.00     0.282 C 
ATOM     12  O   UNL     1      28.601  28.070  19.631  1.00  0.00    -0.341 OA
ATOM     13  C   UNL     1      28.047  27.968  21.881  1.00  0.00     0.202 C 
ATOM     14  C   UNL     1      26.638  27.468  21.517  1.00  0.00     0.179 C 
ATOM     15  C   UNL     1      26.264  27.830  20.119  1.00  0.00     0.177 C 
BRANCH  11  16
ATOM     16  O   UNL     1      30.308  27.665  20.982  1.00  0.00    -0.341 OA
BRANCH  16  17
ATOM     17  C   UNL     1      30.533  28.952  21.503  1.00  0.00     0.184 C 
ATOM     18  C   UNL     1      31.345  29.827  20.623  1.00  0.00     0.178 C 
ATOM     19  O   UNL     1      32.351  30.514  21.310  1.00  0.00    -0.341 OA
ATOM     20  C   UNL     1      31.926  31.113  22.489  1.00  0.00     0.281 C 
ATOM     21  C   UNL     1      31.439  28.744  22.774  1.00  0.00     0.180 C 
ATOM     22  C   UNL     1      31.415  30.071  23.483  1.00  0.00     0.202 C 
BRANCH  18  23
ATOM     23  C   UNL     1      30.583  30.728  19.701  1.00  0.00     0.191 C 
BRANCH  23  24
ATOM     24  O   UNL     1      29.234  30.667  20.016  1.00  0.00    -0.394 OA
ATOM     25  H   UNL     1      28.698  30.551  19.204  1.00  0.00     0.210 HD
ENDBRANCH  23  24
ENDBRANCH  18  23
BRANCH  20  26
ATOM     26  O   UNL     1      30.929  31.995  22.268  1.00  0.00    -0.350 OA
BRANCH  26  27
ATOM     27  C   UNL     1      29.968  32.213  23.185  1.00  0.00     0.169 C 
BRANCH  27  28
ATOM     28  C   UNL     1      28.819  33.085  22.828  1.00  0.00     0.119 C 
BRANCH  28  29
ATOM     29  N   UNL     1      27.938  32.432  21.920  1.00  0.00    -0.092 NA
ATOM     30  N   UNL     1      27.146  31.582  22.263  1.00  0.00     0.001 N 
ATOM     31  N   UNL     1      26.219  30.939  22.763  1.00  0.00    -0.003 NA
ENDBRANCH  28  29
ENDBRANCH  27  28
ENDBRANCH  26  27
ENDBRANCH  20  26
BRANCH  21  32
ATOM     32  O   UNL     1      30.949  27.699  23.517  1.00  0.00    -0.387 OA
ATOM     33  H   UNL     1      30.139  28.000  24.041  1.00  0.00     0.211 HD
ENDBRANCH  21  32
BRANCH  22  34
ATOM     34  O   UNL     1      32.123  30.055  24.664  1.00  0.00    -0.385 OA
ATOM     35  H   UNL     1      31.910  29.193  25.123  1.00  0.00     0.211 HD
ENDBRANCH  22  34
ENDBRANCH  16  17
ENDBRANCH  11  16
BRANCH  13  36
ATOM     36  O   UNL     1      28.277  27.484  23.159  1.00  0.00    -0.385 OA
ATOM     37  H   UNL     1      28.776  26.641  23.191  1.00  0.00     0.211 HD
ENDBRANCH  13  36
BRANCH  14  38
ATOM     38  O   UNL     1      25.711  27.935  22.452  1.00  0.00    -0.387 OA
ATOM     39  H   UNL     1      26.152  28.699  22.923  1.00  0.00     0.211 HD
ENDBRANCH  14  38
BRANCH  15  40
ATOM     40  O   UNL     1      25.887  29.171  20.102  1.00  0.00    -0.387 OA
ATOM     41  H   UNL     1      25.355  29.417  19.323  1.00  0.00     0.211 HD
ENDBRANCH  15  40
ENDBRANCH   9  10
ENDBRANCH   8   9
ENDBRANCH   3   8
BRANCH   3  42
ATOM     42  C   UNL     1      25.676  30.313  16.730  1.00  0.00     0.364 C 
ATOM     43  O   UNL     1      25.201  29.988  15.644  1.00  0.00    -0.246 OA
BRANCH  42  44
ATOM     44  O   UNL     1      24.809  30.637  17.777  1.00  0.00    -0.477 OA
ATOM     45  H   UNL     1      23.815  30.365  17.756  1.00  0.00     0.296 HD
ENDBRANCH  42  44
ENDBRANCH   3  42
BRANCH   6  46
ATOM     46  O   UNL     1      29.672  30.369  16.974  1.00  0.00    -0.391 OA
ATOM     47  H   UNL     1      29.247  30.785  17.761  1.00  0.00     0.211 HD
ENDBRANCH   6  46
BRANCH   7  48
ATOM     48  N   UNL     1      29.161  33.078  14.686  1.00  0.00    -0.348 N 
ATOM     49  C   UNL     1      30.356  33.730  14.271  1.00  0.00     0.217 C 
ATOM     50  H   UNL     1      28.303  33.171  14.072  1.00  0.00     0.163 HD
ATOM     51  C   UNL     1      30.441  34.519  13.032  1.00  0.00     0.114 C 
ATOM     52  O   UNL     1      31.343  33.603  15.009  1.00  0.00    -0.275 OA
ENDBRANCH   7  48
ENDBRANCH   1   2
BRANCH   1  53
ATOM     53  O   UNL     1      26.735  34.120  18.020  1.00  0.00    -0.388 OA
ATOM     54  H   UNL     1      26.047  34.672  17.593  1.00  0.00     0.211 HD
ENDBRANCH   1  53
BRANCH   1  55
ATOM     55  C   UNL     1      29.161  34.052  18.011  1.00  0.00     0.165 C 
BRANCH  55  56
ATOM     56  O   UNL     1      28.910  33.725  19.346  1.00  0.00    -0.388 OA
ATOM     57  H   UNL     1      28.010  33.959  19.619  1.00  0.00     0.211 HD
ENDBRANCH  55  56
BRANCH  55  58
ATOM     58  C   UNL     1      29.783  35.423  17.898  1.00  0.00     0.154 C 
BRANCH  58  59
ATOM     59  N   UNL     1      29.832  35.946  16.572  1.00  0.00    -0.319 N 
ATOM     60  C   UNL     1      29.006  36.997  16.095  1.00  0.00     0.407 C 
ATOM     61  H   UNL     1      30.521  35.538  15.884  1.00  0.00     0.167 HD
ATOM     62  O   UNL     1      28.175  37.496  16.893  1.00  0.00    -0.225 OA
BRANCH  60  63
ATOM     63  O   UNL     1      29.064  37.492  14.814  1.00  0.00    -0.443 OA
BRANCH  63  64
ATOM     64  C   UNL     1      27.898  37.721  14.025  1.00  0.00     0.294 C 
BRANCH  64  65
ATOM     65  C   UNL     1      27.442  36.487  13.368  1.00  0.00     0.120 A 
ATOM     66  C   UNL     1      27.304  36.348  12.007  1.00  0.00     0.138 A 
ATOM     67  N   UNL     1      27.088  35.309  13.895  1.00  0.00    -0.132 NA
ATOM     68  N   UNL     1      26.877  35.112  11.741  1.00  0.00    -0.248 N 
ATOM     69  N   UNL     1      26.754  34.496  12.932  1.00  0.00    -0.067 NA
BRANCH  68  70
ATOM     70  C   UNL     1      26.571  34.480  10.472  1.00  0.00     0.185 C 
BRANCH  70  71
ATOM     71  C   UNL     1      27.678  34.606   9.519  1.00  0.00     0.016 A 
ATOM     72  C   UNL     1      27.556  35.288   8.358  1.00  0.00     0.135 A 
ATOM     73  C   UNL     1      28.886  33.996   9.870  1.00  0.00     0.009 A 
ATOM     74  C   UNL     1      28.660  35.377   7.508  1.00  0.00     0.047 A 
ATOM     75  C   UNL     1      29.963  34.089   9.027  1.00  0.00     0.001 A 
ATOM     76  C   UNL     1      29.860  34.780   7.841  1.00  0.00     0.004 A 
BRANCH  72  77
ATOM     77  O   UNL     1      26.385  35.904   7.967  1.00  0.00    -0.426 OA
BRANCH  77  78
ATOM     78  C   UNL     1      26.080  37.148   8.531  1.00  0.00     0.308 C 
ATOM     79  O   UNL     1      26.990  38.000   8.632  1.00  0.00    -0.252 OA
ATOM     80  C   UNL     1      24.717  37.429   8.988  1.00  0.00     0.139 C 
ENDBRANCH  77  78
ENDBRANCH  72  77
ENDBRANCH  70  71
ENDBRANCH  68  70
ENDBRANCH  64  65
ENDBRANCH  63  64
ENDBRANCH  60  63
ENDBRANCH  58  59
ENDBRANCH  55  58
ENDBRANCH   1  55
TORSDOF 33
BEGIN_RES LYS A 131
REMARK  4 active torsions:
REMARK  status: ('A' for Active; 'I' for Inactive)
REMARK    1  A    between atoms: CA   and  CB  
REMARK    2  A    between atoms: CB   and  CG  
REMARK    3  A    between atoms: CG   and  CD  
REMARK    4  A    between atoms: CD   and  CE  
ROOT
ATOM      1  CA  LYS A 131      29.867  25.555  16.977  1.00 20.52     0.186 C 
ENDROOT
BRANCH   1   2
ATOM      2  CB  LYS A 131      28.345  25.722  17.026  1.00 20.94     0.034 C 
BRANCH   2   3
ATOM      3  CG  LYS A 131      27.601  24.403  16.886  1.00 22.96     0.005 C 
BRANCH   3   4
ATOM      4  CD  LYS A 131      26.199  24.484  17.422  1.00 24.33     0.041 C 
BRANCH   4   5
ATOM      5  CE  LYS A 131      25.767  23.110  17.926  1.00 26.91     0.338 C 
ATOM      6  NZ  LYS A 131      25.376  23.181  19.354  1.00 27.40     0.618 N 
ENDBRANCH   4   5
ENDBRANCH   3   4
ENDBRANCH   2   3
ENDBRANCH   1   2
END_RES LYS A 131
BEGIN_RES LYS A 135
REMARK  4 active torsions:
REMARK  status: ('A' for Active; 'I' for Inactive)
REMARK    5  A    between atoms: CA   and  CB  
REMARK    6  A    between atoms: CB   and  CG  
REMARK    7  A    between atoms: CG   and  CD  
REMARK    8  A    between atoms: CD   and  CE  
ROOT
ATOM      7  CA  LYS A 135      33.193  34.663   9.290  1.00 25.02     0.186 C 
ENDROOT
BRANCH   7   8
ATOM      8  CB  LYS A 135      32.060  35.360  10.034  1.00 26.63     0.034 C 
BRANCH   8   9
ATOM      9  CG  LYS A 135      32.536  36.331  11.083  1.00 29.45     0.005 C 
BRANCH   9  10
ATOM     10  CD  LYS A 135      31.867  37.685  10.904  1.00 32.00     0.041 C 
BRANCH  10  11
ATOM     11  CE  LYS A 135      30.502  37.524  10.264  1.00 34.25     0.338 C 
ATOM     12  NZ  LYS A 135      30.415  38.283   8.985  1.00 35.99     0.618 N 
ENDBRANCH  10  11
ENDBRANCH   9  10
ENDBRANCH   8   9
ENDBRANCH   7   8
END_RES LYS A 135
