REMARK VINA RESULT:    -4.724      7.211     14.022
REMARK INTER + INTRA:         -23.667
REMARK INTER:                 -13.875
REMARK INTRA:                  -9.792
REMARK UNBOUND:               -10.521
REMARK SMILES CC(=O)N[C@@H]1[C@@H](O)C[C@](OC[C@H]2O[C@@H](O[C@H]3[C@H](O)[C@@H](O)[C@H](OCCN=[N+]=[N-])O[C@@H]3CO)[C@H](O)[C@@H](O)[C@H]2O)(C(=O)O)O[C@H]1C(O)[C@H](O)CNC(=O)OCc1cn(CCCCCC(=O)O)nn1
REMARK SMILES IDX 47 1 45 2 43 3 42 4 9 5 8 6 41 7 6 8 5 9 10 10 11 11 12 12
REMARK SMILES IDX 14 13 13 14 32 15 34 16 36 17 15 18 16 19 29 20 28 21 21 22
REMARK SMILES IDX 17 23 19 24 30 25 31 26 22 28 23 29 24 30 25 31 26 32 27 33
REMARK SMILES IDX 18 34 20 36 33 38 35 40 37 42 38 44 39 45 40 46 7 48 4 50
REMARK SMILES IDX 2 51 1 53 3 54 44 55 46 57 48 59 49 60 50 62 51 63 52 64
REMARK SMILES IDX 53 65 54 66 65 67 55 68 64 69 56 70 57 71 58 72 59 73 60 74
REMARK SMILES IDX 61 75 62 76 63 77
REMARK H PARENT 31 27 18 35 20 37 33 39 35 41 37 43 40 47 7 49 4 52 44 56
REMARK H PARENT 46 58 48 61 63 78
REMARK Flexibility Score: inf
ROOT
ATOM      1  C   UNL     1      28.886  36.112   6.375  1.00  0.00     0.154 C 
ENDROOT
BRANCH   1   2
ATOM      2  C   UNL     1      27.816  36.743   5.517  1.00  0.00     0.165 C 
BRANCH   2   3
ATOM      3  C   UNL     1      28.222  38.164   5.296  1.00  0.00     0.176 C 
BRANCH   3   4
ATOM      4  C   UNL     1      28.325  39.014   6.514  1.00  0.00     0.178 C 
ATOM      5  C   UNL     1      27.488  39.434   8.564  1.00  0.00     0.272 C 
ATOM      6  C   UNL     1      28.804  40.116   8.756  1.00  0.00     0.113 C 
ATOM      7  O   UNL     1      27.157  39.130   7.251  1.00  0.00    -0.332 OA
ATOM      8  C   UNL     1      29.359  40.879   7.615  1.00  0.00     0.145 C 
ATOM      9  C   UNL     1      28.782  40.434   6.264  1.00  0.00     0.142 C 
BRANCH   5  10
ATOM     10  O   UNL     1      26.445  40.082   9.222  1.00  0.00    -0.338 OA
BRANCH  10  11
ATOM     11  C   UNL     1      25.699  40.956   8.499  1.00  0.00     0.199 C 
BRANCH  11  12
ATOM     12  C   UNL     1      24.282  40.412   8.484  1.00  0.00     0.179 C 
ATOM     13  C   UNL     1      22.852  38.848   7.770  1.00  0.00     0.282 C 
ATOM     14  O   UNL     1      24.200  39.062   8.183  1.00  0.00    -0.341 OA
ATOM     15  C   UNL     1      21.856  39.644   8.486  1.00  0.00     0.202 C 
ATOM     16  C   UNL     1      22.267  40.240   9.803  1.00  0.00     0.179 C 
ATOM     17  C   UNL     1      23.739  40.539   9.896  1.00  0.00     0.177 C 
BRANCH  13  18
ATOM     18  O   UNL     1      22.627  37.484   7.608  1.00  0.00    -0.341 OA
BRANCH  18  19
ATOM     19  C   UNL     1      21.676  36.949   8.394  1.00  0.00     0.184 C 
ATOM     20  C   UNL     1      22.083  35.647   9.014  1.00  0.00     0.178 C 
ATOM     21  O   UNL     1      21.181  35.445  10.079  1.00  0.00    -0.341 OA
ATOM     22  C   UNL     1      19.934  35.183   9.621  1.00  0.00     0.281 C 
ATOM     23  C   UNL     1      20.432  36.536   7.535  1.00  0.00     0.180 C 
ATOM     24  C   UNL     1      19.787  35.321   8.153  1.00  0.00     0.202 C 
BRANCH  20  25
ATOM     25  C   UNL     1      23.467  35.658   9.608  1.00  0.00     0.191 C 
BRANCH  25  26
ATOM     26  O   UNL     1      23.689  36.819  10.318  1.00  0.00    -0.394 OA
ATOM     27  H   UNL     1      23.893  37.537   9.662  1.00  0.00     0.210 HD
ENDBRANCH  25  26
ENDBRANCH  20  25
BRANCH  22  28
ATOM     28  O   UNL     1      18.931  35.898  10.288  1.00  0.00    -0.350 OA
BRANCH  28  29
ATOM     29  C   UNL     1      17.669  35.461   9.975  1.00  0.00     0.169 C 
BRANCH  29  30
ATOM     30  C   UNL     1      16.801  36.648   9.583  1.00  0.00     0.119 C 
BRANCH  30  31
ATOM     31  N   UNL     1      16.414  36.566   8.184  1.00  0.00    -0.092 NA
ATOM     32  N   UNL     1      15.702  35.619   7.799  1.00  0.00     0.001 N 
ATOM     33  N   UNL     1      15.417  34.543   7.271  1.00  0.00    -0.003 NA
ENDBRANCH  30  31
ENDBRANCH  29  30
ENDBRANCH  28  29
ENDBRANCH  22  28
BRANCH  23  34
ATOM     34  O   UNL     1      19.503  37.575   7.580  1.00  0.00    -0.387 OA
ATOM     35  H   UNL     1      18.611  37.197   7.835  1.00  0.00     0.211 HD
ENDBRANCH  23  34
BRANCH  24  36
ATOM     36  O   UNL     1      20.049  34.145   7.438  1.00  0.00    -0.385 OA
ATOM     37  H   UNL     1      20.523  34.320   6.587  1.00  0.00     0.211 HD
ENDBRANCH  24  36
ENDBRANCH  18  19
ENDBRANCH  13  18
BRANCH  15  38
ATOM     38  O   UNL     1      21.402  40.747   7.707  1.00  0.00    -0.385 OA
ATOM     39  H   UNL     1      22.083  41.443   7.675  1.00  0.00     0.211 HD
ENDBRANCH  15  38
BRANCH  16  40
ATOM     40  O   UNL     1      21.950  39.410  10.893  1.00  0.00    -0.387 OA
ATOM     41  H   UNL     1      21.444  38.619  10.635  1.00  0.00     0.211 HD
ENDBRANCH  16  40
BRANCH  17  42
ATOM     42  O   UNL     1      24.372  39.516  10.647  1.00  0.00    -0.387 OA
ATOM     43  H   UNL     1      25.189  39.956  11.042  1.00  0.00     0.211 HD
ENDBRANCH  17  42
ENDBRANCH  11  12
ENDBRANCH  10  11
ENDBRANCH   5  10
BRANCH   5  44
ATOM     44  C   UNL     1      27.597  38.112   9.243  1.00  0.00     0.364 C 
ATOM     45  O   UNL     1      28.674  37.748   9.766  1.00  0.00    -0.246 OA
BRANCH  44  46
ATOM     46  O   UNL     1      26.510  37.275   9.303  1.00  0.00    -0.477 OA
ATOM     47  H   UNL     1      25.559  37.561   9.015  1.00  0.00     0.296 HD
ENDBRANCH  44  46
ENDBRANCH   5  44
BRANCH   8  48
ATOM     48  O   UNL     1      29.344  42.264   7.758  1.00  0.00    -0.391 OA
ATOM     49  H   UNL     1      30.234  42.601   7.511  1.00  0.00     0.211 HD
ENDBRANCH   8  48
BRANCH   9  50
ATOM     50  N   UNL     1      29.726  40.586   5.213  1.00  0.00    -0.348 N 
ATOM     51  C   UNL     1      29.756  41.788   4.465  1.00  0.00     0.217 C 
ATOM     52  H   UNL     1      30.394  39.837   4.984  1.00  0.00     0.163 HD
ATOM     53  C   UNL     1      30.735  41.974   3.363  1.00  0.00     0.114 C 
ATOM     54  O   UNL     1      28.962  42.746   4.698  1.00  0.00    -0.275 OA
ENDBRANCH   9  50
ENDBRANCH   3   4
BRANCH   3  55
ATOM     55  O   UNL     1      27.364  38.800   4.371  1.00  0.00    -0.388 OA
ATOM     56  H   UNL     1      27.709  39.697   4.158  1.00  0.00     0.211 HD
ENDBRANCH   3  55
ENDBRANCH   2   3
BRANCH   2  57
ATOM     57  O   UNL     1      26.614  36.677   6.211  1.00  0.00    -0.388 OA
ATOM     58  H   UNL     1      26.583  37.465   6.811  1.00  0.00     0.211 HD
ENDBRANCH   2  57
ENDBRANCH   1   2
BRANCH   1  59
ATOM     59  N   UNL     1      28.384  35.316   7.450  1.00  0.00    -0.319 N 
ATOM     60  C   UNL     1      29.313  34.528   8.202  1.00  0.00     0.407 C 
ATOM     61  H   UNL     1      27.385  35.283   7.709  1.00  0.00     0.167 HD
ATOM     62  O   UNL     1      30.537  34.542   7.917  1.00  0.00    -0.225 OA
BRANCH  60  63
ATOM     63  O   UNL     1      28.914  33.732   9.249  1.00  0.00    -0.443 OA
BRANCH  63  64
ATOM     64  C   UNL     1      27.634  33.699   9.775  1.00  0.00     0.294 C 
BRANCH  64  65
ATOM     65  C   UNL     1      27.351  34.614  10.888  1.00  0.00     0.120 A 
ATOM     66  C   UNL     1      28.238  35.116  11.805  1.00  0.00     0.138 A 
ATOM     67  N   UNL     1      26.134  35.111  11.205  1.00  0.00    -0.132 NA
ATOM     68  N   UNL     1      27.553  35.893  12.646  1.00  0.00    -0.252 N 
ATOM     69  N   UNL     1      26.294  35.867  12.257  1.00  0.00    -0.067 NA
BRANCH  68  70
ATOM     70  C   UNL     1      28.111  36.631  13.771  1.00  0.00     0.146 C 
BRANCH  70  71
ATOM     71  C   UNL     1      27.516  36.055  15.056  1.00  0.00     0.024 C 
BRANCH  71  72
ATOM     72  C   UNL     1      28.565  35.377  15.887  1.00  0.00     0.002 C 
BRANCH  72  73
ATOM     73  C   UNL     1      28.515  33.893  15.660  1.00  0.00     0.012 C 
BRANCH  73  74
ATOM     74  C   UNL     1      29.595  33.394  14.758  1.00  0.00     0.122 C 
BRANCH  74  75
ATOM     75  C   UNL     1      30.575  32.599  15.549  1.00  0.00     0.303 C 
ATOM     76  O   UNL     1      30.523  32.607  16.798  1.00  0.00    -0.252 OA
BRANCH  75  77
ATOM     77  O   UNL     1      31.557  31.840  14.920  1.00  0.00    -0.481 OA
ATOM     78  H   UNL     1      32.229  32.298  14.301  1.00  0.00     0.296 HD
ENDBRANCH  75  77
ENDBRANCH  74  75
ENDBRANCH  73  74
ENDBRANCH  72  73
ENDBRANCH  71  72
ENDBRANCH  70  71
ENDBRANCH  68  70
ENDBRANCH  64  65
ENDBRANCH  63  64
ENDBRANCH  60  63
ENDBRANCH   1  59
TORSDOF 36
BEGIN_RES LYS A 131
REMARK  4 active torsions:
REMARK  status: ('A' for Active; 'I' for Inactive)
REMARK    1  A    between atoms: CA   and  CB  
REMARK    2  A    between atoms: CB   and  CG  
REMARK    3  A    between atoms: CG   and  CD  
REMARK    4  A    between atoms: CD   and  CE  
ROOT
ATOM      1  CA  LYS A 131      29.867  25.555  16.977  1.00 20.52     0.186 C 
ENDROOT
BRANCH   1   2
ATOM      2  CB  LYS A 131      28.345  25.722  17.026  1.00 20.94     0.034 C 
BRANCH   2   3
ATOM      3  CG  LYS A 131      27.601  24.401  16.906  1.00 22.96     0.005 C 
BRANCH   3   4
ATOM      4  CD  LYS A 131      26.153  24.529  17.287  1.00 24.33     0.041 C 
BRANCH   4   5
ATOM      5  CE  LYS A 131      25.637  23.184  17.788  1.00 26.91     0.338 C 
ATOM      6  NZ  LYS A 131      25.515  23.192  19.265  1.00 27.40     0.618 N 
ENDBRANCH   4   5
ENDBRANCH   3   4
ENDBRANCH   2   3
ENDBRANCH   1   2
END_RES LYS A 131
BEGIN_RES LYS A 135
REMARK  4 active torsions:
REMARK  status: ('A' for Active; 'I' for Inactive)
REMARK    5  A    between atoms: CA   and  CB  
REMARK    6  A    between atoms: CB   and  CG  
REMARK    7  A    between atoms: CG   and  CD  
REMARK    8  A    between atoms: CD   and  CE  
ROOT
ATOM      7  CA  LYS A 135      33.193  34.663   9.290  1.00 25.02     0.186 C 
ENDROOT
BRANCH   7   8
ATOM      8  CB  LYS A 135      32.060  35.360  10.034  1.00 26.63     0.034 C 
BRANCH   8   9
ATOM      9  CG  LYS A 135      32.525  36.483  10.925  1.00 29.45     0.005 C 
BRANCH   9  10
ATOM     10  CD  LYS A 135      31.728  36.506  12.220  1.00 32.00     0.041 C 
BRANCH  10  11
ATOM     11  CE  LYS A 135      32.194  35.404  13.152  1.00 34.25     0.338 C 
ATOM     12  NZ  LYS A 135      32.329  35.905  14.548  1.00 35.99     0.618 N 
ENDBRANCH  10  11
ENDBRANCH   9  10
ENDBRANCH   8   9
ENDBRANCH   7   8
END_RES LYS A 135
