REMARK VINA RESULT:    -4.046      2.889      9.588
REMARK INTER + INTRA:         -22.585
REMARK INTER:                 -12.441
REMARK INTRA:                 -10.144
REMARK UNBOUND:               -12.270
REMARK SMILES CC(=O)N[C@@H]1[C@@H](O)C[C@](OC[C@H]2O[C@@H](O[C@H]3[C@H](O)[C@@H](O)[C@H](OCCN=[N+]=[N-])O[C@@H]3CO)[C@H](O)[C@@H](O)[C@H]2O)(C(=O)O)O[C@H]1C(O)[C@H](O)CNC(=O)OCc1cn(-c2ccc(S(N)(=O)=O)cc2)nn1
REMARK SMILES IDX 9 1 8 2 6 3 5 4 42 5 41 6 10 7 11 8 12 9 14 10 13 11 32 12
REMARK SMILES IDX 34 13 36 14 15 15 16 16 29 17 28 18 21 19 17 20 19 21 30 22
REMARK SMILES IDX 31 23 22 25 23 26 24 27 25 28 26 29 27 30 18 31 20 33 33 35
REMARK SMILES IDX 35 37 37 39 38 41 39 42 40 43 7 45 43 47 44 48 45 50 46 51
REMARK SMILES IDX 47 53 48 54 49 55 50 57 51 58 52 59 53 60 54 61 67 62 55 63
REMARK SMILES IDX 66 64 56 65 57 66 65 67 58 68 64 69 59 70 60 71 62 72 63 73
REMARK SMILES IDX 61 74 4 77 2 78 1 80 3 81
REMARK H PARENT 31 24 18 32 20 34 33 36 35 38 37 40 40 44 7 46 44 49 46 52
REMARK H PARENT 48 56 61 75 61 76 4 79
REMARK Flexibility Score: inf
ROOT
ATOM      1  C   UNL     1      30.472  36.528  12.888  1.00  0.00     0.272 C 
ATOM      2  C   UNL     1      31.276  37.534  12.049  1.00  0.00     0.113 C 
ATOM      3  C   UNL     1      30.799  38.930  12.238  1.00  0.00     0.145 C 
ATOM      4  C   UNL     1      29.294  38.932  12.319  1.00  0.00     0.142 C 
ATOM      5  C   UNL     1      28.854  37.628  11.643  1.00  0.00     0.178 C 
ATOM      6  O   UNL     1      29.140  36.619  12.561  1.00  0.00    -0.332 OA
ENDROOT
BRANCH   1   7
ATOM      7  O   UNL     1      30.762  36.833  14.211  1.00  0.00    -0.338 OA
BRANCH   7   8
ATOM      8  C   UNL     1      29.674  36.877  15.036  1.00  0.00     0.199 C 
BRANCH   8   9
ATOM      9  C   UNL     1      29.738  35.641  15.951  1.00  0.00     0.179 C 
ATOM     10  C   UNL     1      29.523  33.327  15.687  1.00  0.00     0.282 C 
ATOM     11  O   UNL     1      29.104  34.635  15.293  1.00  0.00    -0.341 OA
ATOM     12  C   UNL     1      30.947  33.261  15.215  1.00  0.00     0.202 C 
ATOM     13  C   UNL     1      31.812  34.184  16.063  1.00  0.00     0.179 C 
ATOM     14  C   UNL     1      31.082  35.398  16.507  1.00  0.00     0.177 C 
BRANCH  10  15
ATOM     15  O   UNL     1      28.735  32.444  15.034  1.00  0.00    -0.341 OA
BRANCH  15  16
ATOM     16  C   UNL     1      27.780  31.777  15.846  1.00  0.00     0.184 C 
ATOM     17  C   UNL     1      26.752  32.741  16.226  1.00  0.00     0.178 C 
ATOM     18  O   UNL     1      26.280  32.680  17.522  1.00  0.00    -0.341 OA
ATOM     19  C   UNL     1      26.392  31.478  18.161  1.00  0.00     0.281 C 
ATOM     20  C   UNL     1      28.494  31.088  16.986  1.00  0.00     0.180 C 
ATOM     21  C   UNL     1      27.859  31.181  18.318  1.00  0.00     0.202 C 
BRANCH  17  22
ATOM     22  C   UNL     1      25.531  32.735  15.329  1.00  0.00     0.191 C 
BRANCH  22  23
ATOM     23  O   UNL     1      25.794  33.403  14.142  1.00  0.00    -0.394 OA
ATOM     24  H   UNL     1      26.684  33.176  13.776  1.00  0.00     0.210 HD
ENDBRANCH  22  23
ENDBRANCH  17  22
BRANCH  19  25
ATOM     25  O   UNL     1      25.691  30.432  17.611  1.00  0.00    -0.350 OA
BRANCH  25  26
ATOM     26  C   UNL     1      25.374  29.498  18.590  1.00  0.00     0.169 C 
BRANCH  26  27
ATOM     27  C   UNL     1      25.495  28.110  17.969  1.00  0.00     0.119 C 
BRANCH  27  28
ATOM     28  N   UNL     1      26.888  27.765  17.908  1.00  0.00    -0.092 NA
ATOM     29  N   UNL     1      27.515  27.356  18.910  1.00  0.00     0.001 N 
ATOM     30  N   UNL     1      28.283  27.518  19.875  1.00  0.00    -0.003 NA
ENDBRANCH  27  28
ENDBRANCH  26  27
ENDBRANCH  25  26
ENDBRANCH  19  25
BRANCH  20  31
ATOM     31  O   UNL     1      28.700  29.734  16.704  1.00  0.00    -0.387 OA
ATOM     32  H   UNL     1      28.844  29.247  17.548  1.00  0.00     0.211 HD
ENDBRANCH  20  31
BRANCH  21  33
ATOM     33  O   UNL     1      28.440  32.117  19.165  1.00  0.00    -0.385 OA
ATOM     34  H   UNL     1      27.766  32.870  19.208  1.00  0.00     0.211 HD
ENDBRANCH  21  33
ENDBRANCH  15  16
ENDBRANCH  10  15
BRANCH  12  35
ATOM     35  O   UNL     1      31.467  32.007  15.086  1.00  0.00    -0.385 OA
ATOM     36  H   UNL     1      32.419  31.921  15.288  1.00  0.00     0.211 HD
ENDBRANCH  12  35
BRANCH  13  37
ATOM     37  O   UNL     1      33.039  34.419  15.465  1.00  0.00    -0.387 OA
ATOM     38  H   UNL     1      33.283  33.800  14.747  1.00  0.00     0.211 HD
ENDBRANCH  13  37
BRANCH  14  39
ATOM     39  O   UNL     1      31.887  36.514  16.170  1.00  0.00    -0.387 OA
ATOM     40  H   UNL     1      31.469  36.890  15.341  1.00  0.00     0.211 HD
ENDBRANCH  14  39
ENDBRANCH   8   9
ENDBRANCH   7   8
ENDBRANCH   1   7
BRANCH   1  41
ATOM     41  C   UNL     1      31.064  35.190  12.512  1.00  0.00     0.364 C 
ATOM     42  O   UNL     1      30.331  34.231  12.171  1.00  0.00    -0.246 OA
BRANCH  41  43
ATOM     43  O   UNL     1      32.429  34.981  12.528  1.00  0.00    -0.477 OA
ATOM     44  H   UNL     1      32.875  34.822  13.419  1.00  0.00     0.296 HD
ENDBRANCH  41  43
ENDBRANCH   1  41
BRANCH   3  45
ATOM     45  O   UNL     1      31.414  39.463  13.369  1.00  0.00    -0.391 OA
ATOM     46  H   UNL     1      31.469  38.767  14.065  1.00  0.00     0.211 HD
ENDBRANCH   3  45
BRANCH   5  47
ATOM     47  C   UNL     1      27.374  37.638  11.368  1.00  0.00     0.176 C 
BRANCH  47  48
ATOM     48  O   UNL     1      26.983  36.796  10.347  1.00  0.00    -0.388 OA
ATOM     49  H   UNL     1      27.546  36.882   9.537  1.00  0.00     0.211 HD
ENDBRANCH  47  48
BRANCH  47  50
ATOM     50  C   UNL     1      26.604  37.307  12.626  1.00  0.00     0.165 C 
BRANCH  50  51
ATOM     51  O   UNL     1      26.432  35.911  12.739  1.00  0.00    -0.388 OA
ATOM     52  H   UNL     1      26.684  35.609  13.658  1.00  0.00     0.211 HD
ENDBRANCH  50  51
BRANCH  50  53
ATOM     53  C   UNL     1      25.261  37.991  12.661  1.00  0.00     0.154 C 
BRANCH  53  54
ATOM     54  N   UNL     1      25.060  38.845  11.514  1.00  0.00    -0.319 N 
ATOM     55  C   UNL     1      23.961  38.612  10.648  1.00  0.00     0.407 C 
ATOM     56  H   UNL     1      25.695  39.636  11.291  1.00  0.00     0.167 HD
ATOM     57  O   UNL     1      23.179  37.650  10.904  1.00  0.00    -0.225 OA
BRANCH  55  58
ATOM     58  O   UNL     1      23.679  39.374   9.527  1.00  0.00    -0.443 OA
BRANCH  58  59
ATOM     59  C   UNL     1      23.667  38.835   8.227  1.00  0.00     0.294 C 
BRANCH  59  60
ATOM     60  C   UNL     1      25.032  38.349   7.892  1.00  0.00     0.121 A 
ATOM     61  C   UNL     1      26.178  39.143   7.763  1.00  0.00     0.144 A 
ATOM     62  N   UNL     1      25.466  37.102   7.643  1.00  0.00    -0.131 NA
ATOM     63  N   UNL     1      27.233  38.352   7.448  1.00  0.00    -0.220 N 
ATOM     64  N   UNL     1      26.781  37.136   7.382  1.00  0.00    -0.062 NA
BRANCH  63  65
ATOM     65  C   UNL     1      28.583  38.776   7.226  1.00  0.00     0.066 A 
ATOM     66  C   UNL     1      29.469  38.910   8.271  1.00  0.00     0.030 A 
ATOM     67  C   UNL     1      29.038  39.061   5.958  1.00  0.00     0.030 A 
ATOM     68  C   UNL     1      30.782  39.320   8.051  1.00  0.00     0.024 A 
ATOM     69  C   UNL     1      30.350  39.472   5.728  1.00  0.00     0.024 A 
ATOM     70  C   UNL     1      31.235  39.605   6.779  1.00  0.00     0.082 A 
BRANCH  70  71
ATOM     71  S   UNL     1      32.903  40.121   6.535  1.00  0.00     0.238 S 
ATOM     72  O   UNL     1      33.401  39.712   5.170  1.00  0.00    -0.207 OA
ATOM     73  O   UNL     1      33.006  41.613   6.616  1.00  0.00    -0.207 OA
BRANCH  71  74
ATOM     74  N   UNL     1      33.946  39.435   7.742  1.00  0.00    -0.225 NA
ATOM     75  H   UNL     1      33.800  38.385   7.723  1.00  0.00     0.137 HD
ATOM     76  H   UNL     1      33.748  39.814   8.698  1.00  0.00     0.137 HD
ENDBRANCH  71  74
ENDBRANCH  70  71
ENDBRANCH  63  65
ENDBRANCH  59  60
ENDBRANCH  58  59
ENDBRANCH  55  58
ENDBRANCH  53  54
ENDBRANCH  50  53
ENDBRANCH  47  50
ENDBRANCH   5  47
BRANCH   4  77
ATOM     77  N   UNL     1      28.666  40.068  11.698  1.00  0.00    -0.348 N 
ATOM     78  C   UNL     1      28.539  41.283  12.403  1.00  0.00     0.217 C 
ATOM     79  H   UNL     1      28.302  40.013  10.729  1.00  0.00     0.163 HD
ATOM     80  C   UNL     1      27.885  42.432  11.729  1.00  0.00     0.114 C 
ATOM     81  O   UNL     1      28.955  41.437  13.575  1.00  0.00    -0.275 OA
ENDBRANCH   4  77
TORSDOF 32
BEGIN_RES LYS A 131
REMARK  4 active torsions:
REMARK  status: ('A' for Active; 'I' for Inactive)
REMARK    1  A    between atoms: CA   and  CB  
REMARK    2  A    between atoms: CB   and  CG  
REMARK    3  A    between atoms: CG   and  CD  
REMARK    4  A    between atoms: CD   and  CE  
ROOT
ATOM      1  CA  LYS A 131      29.867  25.555  16.977  1.00 20.52     0.186 C 
ENDROOT
BRANCH   1   2
ATOM      2  CB  LYS A 131      28.345  25.722  17.026  1.00 20.94     0.034 C 
BRANCH   2   3
ATOM      3  CG  LYS A 131      27.599  24.426  16.747  1.00 22.96     0.005 C 
BRANCH   3   4
ATOM      4  CD  LYS A 131      26.996  23.840  17.993  1.00 24.33     0.041 C 
BRANCH   4   5
ATOM      5  CE  LYS A 131      25.519  23.543  17.752  1.00 26.91     0.338 C 
ATOM      6  NZ  LYS A 131      24.910  24.592  16.901  1.00 27.40     0.618 N 
ENDBRANCH   4   5
ENDBRANCH   3   4
ENDBRANCH   2   3
ENDBRANCH   1   2
END_RES LYS A 131
BEGIN_RES LYS A 135
REMARK  4 active torsions:
REMARK  status: ('A' for Active; 'I' for Inactive)
REMARK    5  A    between atoms: CA   and  CB  
REMARK    6  A    between atoms: CB   and  CG  
REMARK    7  A    between atoms: CG   and  CD  
REMARK    8  A    between atoms: CD   and  CE  
ROOT
ATOM      7  CA  LYS A 135      33.193  34.663   9.290  1.00 25.02     0.186 C 
ENDROOT
BRANCH   7   8
ATOM      8  CB  LYS A 135      32.060  35.360  10.034  1.00 26.63     0.034 C 
BRANCH   8   9
ATOM      9  CG  LYS A 135      30.843  35.610   9.181  1.00 29.45     0.005 C 
BRANCH   9  10
ATOM     10  CD  LYS A 135      30.276  34.299   8.658  1.00 32.00     0.041 C 
BRANCH  10  11
ATOM     11  CE  LYS A 135      28.770  34.396   8.501  1.00 34.25     0.338 C 
ATOM     12  NZ  LYS A 135      28.068  33.651   9.582  1.00 35.99     0.618 N 
ENDBRANCH  10  11
ENDBRANCH   9  10
ENDBRANCH   8   9
ENDBRANCH   7   8
END_RES LYS A 135
