REMARK VINA RESULT:    -5.087      4.232      9.956
REMARK INTER + INTRA:         -23.001
REMARK INTER:                 -11.404
REMARK INTRA:                 -11.597
REMARK UNBOUND:                -9.883
REMARK SMILES CC(=O)N[C@@H]1[C@@H](O)C[C@](OC[C@H]2O[C@@H](O[C@H]3[C@H](O)[C@@H](O)[C@H](OCCN=[N+]=[N-])O[C@@H]3CO)[C@H](O)[C@@H](O)[C@H]2O)(C(=O)O)O[C@H]1C(O)[C@H](O)CNC(=O)OCc1cn(C(c2ccccc2)c2ccccc2)nn1
REMARK SMILES IDX 9 1 8 2 6 3 5 4 42 5 41 6 10 7 11 8 12 9 14 10 13 11 32 12
REMARK SMILES IDX 34 13 36 14 15 15 16 16 29 17 28 18 21 19 17 20 19 21 30 22
REMARK SMILES IDX 31 23 22 25 23 26 24 27 25 28 26 29 27 30 18 31 20 33 33 35
REMARK SMILES IDX 35 37 37 39 38 41 39 42 40 43 7 45 43 47 44 48 45 50 46 51
REMARK SMILES IDX 47 53 48 54 49 55 50 57 51 58 52 59 53 60 54 61 70 62 55 63
REMARK SMILES IDX 69 64 56 65 57 66 58 67 62 68 59 69 61 70 60 71 63 72 64 73
REMARK SMILES IDX 68 74 65 75 67 76 66 77 4 78 2 79 1 81 3 82
REMARK H PARENT 31 24 18 32 20 34 33 36 35 38 37 40 40 44 7 46 44 49 46 52
REMARK H PARENT 48 56 4 80
REMARK Flexibility Score: inf
ROOT
ATOM      1  C   UNL     1      26.592  40.128   8.373  1.00  0.00     0.272 C 
ATOM      2  C   UNL     1      26.586  40.342   6.844  1.00  0.00     0.113 C 
ATOM      3  C   UNL     1      27.217  41.633   6.516  1.00  0.00     0.145 C 
ATOM      4  C   UNL     1      28.629  41.663   7.044  1.00  0.00     0.142 C 
ATOM      5  C   UNL     1      28.867  40.701   8.150  1.00  0.00     0.178 C 
ATOM      6  O   UNL     1      27.791  40.388   8.916  1.00  0.00    -0.332 OA
ENDROOT
BRANCH   1   7
ATOM      7  O   UNL     1      26.254  38.785   8.607  1.00  0.00    -0.338 OA
BRANCH   7   8
ATOM      8  C   UNL     1      26.063  38.100   7.437  1.00  0.00     0.199 C 
BRANCH   8   9
ATOM      9  C   UNL     1      25.184  36.864   7.621  1.00  0.00     0.179 C 
ATOM     10  C   UNL     1      25.203  35.963   9.829  1.00  0.00     0.282 C 
ATOM     11  O   UNL     1      25.635  36.074   8.558  1.00  0.00    -0.341 OA
ATOM     12  C   UNL     1      24.157  36.893  10.222  1.00  0.00     0.202 C 
ATOM     13  C   UNL     1      23.221  37.289   9.134  1.00  0.00     0.179 C 
ATOM     14  C   UNL     1      23.725  37.240   7.744  1.00  0.00     0.177 C 
BRANCH  10  15
ATOM     15  O   UNL     1      26.408  36.051  10.592  1.00  0.00    -0.341 OA
BRANCH  15  16
ATOM     16  C   UNL     1      26.175  35.913  11.927  1.00  0.00     0.184 C 
ATOM     17  C   UNL     1      26.983  36.862  12.739  1.00  0.00     0.178 C 
ATOM     18  O   UNL     1      26.559  36.841  14.075  1.00  0.00    -0.341 OA
ATOM     19  C   UNL     1      26.944  35.669  14.666  1.00  0.00     0.281 C 
ATOM     20  C   UNL     1      26.542  34.517  12.416  1.00  0.00     0.180 C 
ATOM     21  C   UNL     1      27.228  34.570  13.724  1.00  0.00     0.202 C 
BRANCH  17  22
ATOM     22  C   UNL     1      27.023  38.282  12.209  1.00  0.00     0.191 C 
BRANCH  22  23
ATOM     23  O   UNL     1      27.825  38.320  11.072  1.00  0.00    -0.394 OA
ATOM     24  H   UNL     1      27.879  39.203  10.653  1.00  0.00     0.210 HD
ENDBRANCH  22  23
ENDBRANCH  17  22
BRANCH  19  25
ATOM     25  O   UNL     1      26.057  35.284  15.685  1.00  0.00    -0.350 OA
BRANCH  25  26
ATOM     26  C   UNL     1      25.531  36.312  16.412  1.00  0.00     0.169 C 
BRANCH  26  27
ATOM     27  C   UNL     1      24.032  36.147  16.509  1.00  0.00     0.119 C 
BRANCH  27  28
ATOM     28  N   UNL     1      23.370  36.456  15.244  1.00  0.00    -0.092 NA
ATOM     29  N   UNL     1      22.956  35.583  14.491  1.00  0.00     0.001 N 
ATOM     30  N   UNL     1      22.886  34.659  13.672  1.00  0.00    -0.003 NA
ENDBRANCH  27  28
ENDBRANCH  26  27
ENDBRANCH  25  26
ENDBRANCH  19  25
BRANCH  20  31
ATOM     31  O   UNL     1      25.369  33.760  12.402  1.00  0.00    -0.387 OA
ATOM     32  H   UNL     1      24.926  33.788  11.511  1.00  0.00     0.211 HD
ENDBRANCH  20  31
BRANCH  21  33
ATOM     33  O   UNL     1      28.630  34.504  13.477  1.00  0.00    -0.385 OA
ATOM     34  H   UNL     1      28.869  33.542  13.593  1.00  0.00     0.211 HD
ENDBRANCH  21  33
ENDBRANCH  15  16
ENDBRANCH  10  15
BRANCH  12  35
ATOM     35  O   UNL     1      23.332  36.402  11.266  1.00  0.00    -0.385 OA
ATOM     36  H   UNL     1      23.665  35.493  11.458  1.00  0.00     0.211 HD
ENDBRANCH  12  35
BRANCH  13  37
ATOM     37  O   UNL     1      22.685  38.581   9.368  1.00  0.00    -0.387 OA
ATOM     38  H   UNL     1      21.694  38.529   9.362  1.00  0.00     0.211 HD
ENDBRANCH  13  37
BRANCH  14  39
ATOM     39  O   UNL     1      23.613  38.516   7.168  1.00  0.00    -0.387 OA
ATOM     40  H   UNL     1      24.494  38.893   6.934  1.00  0.00     0.211 HD
ENDBRANCH  14  39
ENDBRANCH   8   9
ENDBRANCH   7   8
ENDBRANCH   1   7
BRANCH   1  41
ATOM     41  C   UNL     1      25.527  40.987   8.889  1.00  0.00     0.364 C 
ATOM     42  O   UNL     1      25.752  41.823   9.786  1.00  0.00    -0.246 OA
BRANCH  41  43
ATOM     43  O   UNL     1      24.215  40.920   8.413  1.00  0.00    -0.477 OA
ATOM     44  H   UNL     1      23.796  40.036   8.167  1.00  0.00     0.296 HD
ENDBRANCH  41  43
ENDBRANCH   1  41
BRANCH   3  45
ATOM     45  O   UNL     1      27.237  41.741   5.109  1.00  0.00    -0.391 OA
ATOM     46  H   UNL     1      26.460  41.276   4.710  1.00  0.00     0.211 HD
ENDBRANCH   3  45
BRANCH   5  47
ATOM     47  C   UNL     1      29.630  39.453   7.807  1.00  0.00     0.176 C 
BRANCH  47  48
ATOM     48  O   UNL     1      29.252  38.489   8.766  1.00  0.00    -0.388 OA
ATOM     49  H   UNL     1      28.372  38.109   8.601  1.00  0.00     0.211 HD
ENDBRANCH  47  48
BRANCH  47  50
ATOM     50  C   UNL     1      31.111  39.561   7.825  1.00  0.00     0.165 C 
BRANCH  50  51
ATOM     51  O   UNL     1      31.616  38.265   7.835  1.00  0.00    -0.388 OA
ATOM     52  H   UNL     1      32.092  38.028   6.998  1.00  0.00     0.211 HD
ENDBRANCH  50  51
BRANCH  50  53
ATOM     53  C   UNL     1      31.701  40.336   8.950  1.00  0.00     0.154 C 
BRANCH  53  54
ATOM     54  N   UNL     1      31.932  39.619  10.163  1.00  0.00    -0.319 N 
ATOM     55  C   UNL     1      31.107  39.550  11.290  1.00  0.00     0.407 C 
ATOM     56  H   UNL     1      32.845  39.063  10.227  1.00  0.00     0.167 HD
ATOM     57  O   UNL     1      30.037  40.168  11.321  1.00  0.00    -0.225 OA
BRANCH  55  58
ATOM     58  O   UNL     1      31.463  38.788  12.401  1.00  0.00    -0.443 OA
BRANCH  58  59
ATOM     59  C   UNL     1      31.774  37.395  12.240  1.00  0.00     0.294 C 
BRANCH  59  60
ATOM     60  C   UNL     1      31.534  36.709  13.535  1.00  0.00     0.120 A 
ATOM     61  C   UNL     1      32.516  36.089  14.253  1.00  0.00     0.139 A 
ATOM     62  N   UNL     1      30.367  36.606  14.165  1.00  0.00    -0.132 NA
ATOM     63  N   UNL     1      31.908  35.601  15.348  1.00  0.00    -0.240 N 
ATOM     64  N   UNL     1      30.611  35.921  15.283  1.00  0.00    -0.066 NA
BRANCH  63  65
ATOM     65  C   UNL     1      32.471  34.865  16.461  1.00  0.00     0.169 C 
BRANCH  65  66
ATOM     66  C   UNL     1      31.683  33.638  16.637  1.00  0.00    -0.019 A 
ATOM     67  C   UNL     1      31.471  32.781  15.575  1.00  0.00     0.006 A 
ATOM     68  C   UNL     1      31.106  33.284  17.837  1.00  0.00     0.006 A 
ATOM     69  C   UNL     1      30.716  31.625  15.716  1.00  0.00     0.000 A 
ATOM     70  C   UNL     1      30.347  32.127  17.990  1.00  0.00     0.000 A 
ATOM     71  C   UNL     1      30.146  31.282  16.917  1.00  0.00     0.000 A 
ENDBRANCH  65  66
BRANCH  65  72
ATOM     72  C   UNL     1      32.562  35.724  17.657  1.00  0.00    -0.019 A 
ATOM     73  C   UNL     1      33.822  35.888  18.222  1.00  0.00     0.006 A 
ATOM     74  C   UNL     1      31.505  36.342  18.259  1.00  0.00     0.006 A 
ATOM     75  C   UNL     1      33.987  36.650  19.349  1.00  0.00     0.000 A 
ATOM     76  C   UNL     1      31.664  37.112  19.397  1.00  0.00     0.000 A 
ATOM     77  C   UNL     1      32.910  37.269  19.949  1.00  0.00     0.000 A 
ENDBRANCH  65  72
ENDBRANCH  63  65
ENDBRANCH  59  60
ENDBRANCH  58  59
ENDBRANCH  55  58
ENDBRANCH  53  54
ENDBRANCH  50  53
ENDBRANCH  47  50
ENDBRANCH   5  47
BRANCH   4  78
ATOM     78  N   UNL     1      28.818  43.044   7.532  1.00  0.00    -0.348 N 
ATOM     79  C   UNL     1      30.059  43.728   7.413  1.00  0.00     0.217 C 
ATOM     80  H   UNL     1      28.033  43.573   7.987  1.00  0.00     0.163 HD
ATOM     81  C   UNL     1      30.218  45.135   7.916  1.00  0.00     0.114 C 
ATOM     82  O   UNL     1      31.051  43.183   6.886  1.00  0.00    -0.275 OA
ENDBRANCH   4  78
TORSDOF 32
BEGIN_RES LYS A 131
REMARK  4 active torsions:
REMARK  status: ('A' for Active; 'I' for Inactive)
REMARK    1  A    between atoms: CA   and  CB  
REMARK    2  A    between atoms: CB   and  CG  
REMARK    3  A    between atoms: CG   and  CD  
REMARK    4  A    between atoms: CD   and  CE  
ROOT
ATOM      1  CA  LYS A 131      29.867  25.555  16.977  1.00 20.52     0.186 C 
ENDROOT
BRANCH   1   2
ATOM      2  CB  LYS A 131      28.345  25.722  17.026  1.00 20.94     0.034 C 
BRANCH   2   3
ATOM      3  CG  LYS A 131      27.603  24.396  16.956  1.00 22.96     0.005 C 
BRANCH   3   4
ATOM      4  CD  LYS A 131      26.120  24.567  17.137  1.00 24.33     0.041 C 
BRANCH   4   5
ATOM      5  CE  LYS A 131      25.804  24.742  18.619  1.00 26.91     0.338 C 
ATOM      6  NZ  LYS A 131      25.778  23.427  19.302  1.00 27.40     0.618 N 
ENDBRANCH   4   5
ENDBRANCH   3   4
ENDBRANCH   2   3
ENDBRANCH   1   2
END_RES LYS A 131
BEGIN_RES LYS A 135
REMARK  4 active torsions:
REMARK  status: ('A' for Active; 'I' for Inactive)
REMARK    5  A    between atoms: CA   and  CB  
REMARK    6  A    between atoms: CB   and  CG  
REMARK    7  A    between atoms: CG   and  CD  
REMARK    8  A    between atoms: CD   and  CE  
ROOT
ATOM      7  CA  LYS A 135      33.193  34.663   9.290  1.00 25.02     0.186 C 
ENDROOT
BRANCH   7   8
ATOM      8  CB  LYS A 135      32.060  35.360  10.034  1.00 26.63     0.034 C 
BRANCH   8   9
ATOM      9  CG  LYS A 135      30.704  34.760   9.765  1.00 29.45     0.005 C 
BRANCH   9  10
ATOM     10  CD  LYS A 135      30.434  34.692   8.270  1.00 32.00     0.041 C 
BRANCH  10  11
ATOM     11  CE  LYS A 135      28.963  34.927   7.984  1.00 34.25     0.338 C 
ATOM     12  NZ  LYS A 135      28.771  35.563   6.651  1.00 35.99     0.618 N 
ENDBRANCH  10  11
ENDBRANCH   9  10
ENDBRANCH   8   9
ENDBRANCH   7   8
END_RES LYS A 135
