REMARK VINA RESULT:    -5.475      4.153     10.252
REMARK INTER + INTRA:         -24.893
REMARK INTER:                 -15.078
REMARK INTRA:                  -9.815
REMARK UNBOUND:               -10.617
REMARK SMILES CC(=O)N[C@@H]1[C@@H](O)C[C@](OC[C@H]2O[C@@H](O[C@H]3[C@H](O)[C@@H](O)[C@H](OCCN=[N+]=[N-])O[C@@H]3CO)[C@H](O)[C@@H](O)[C@H]2O)(C(=O)O)O[C@H]1C(O)[C@H](O)CNC(=O)OCc1cn(-c2ccc(S(=O)(=O)c3ccc(N)cc3)cc2)nn1
REMARK SMILES IDX 43 1 42 2 9 3 8 4 41 5 6 6 5 7 10 8 11 9 12 10 14 11 13 12
REMARK SMILES IDX 32 13 34 14 36 15 15 16 16 17 29 18 28 19 21 20 17 21 19 22
REMARK SMILES IDX 30 23 31 24 22 26 23 27 24 28 25 29 26 30 27 31 18 32 20 34
REMARK SMILES IDX 33 36 35 38 37 40 38 42 39 43 40 44 7 46 4 48 2 49 1 51 3 52
REMARK SMILES IDX 44 53 45 55 46 56 47 58 48 59 49 60 50 62 51 63 52 64 53 65
REMARK SMILES IDX 54 66 73 67 55 68 72 69 56 70 57 71 71 72 58 73 70 74 59 75
REMARK SMILES IDX 60 76 61 77 62 78 63 79 64 80 69 81 65 82 68 83 66 84 67 85
REMARK H PARENT 31 25 18 33 20 35 33 37 35 39 37 41 40 45 7 47 4 50 44 54
REMARK H PARENT 46 57 48 61 67 86 67 87
REMARK Flexibility Score: inf
ROOT
ATOM      1  C   UNL     1      28.980  35.111  15.319  1.00  0.00     0.176 C 
ENDROOT
BRANCH   1   2
ATOM      2  C   UNL     1      29.855  34.118  16.084  1.00  0.00     0.178 C 
ATOM      3  C   UNL     1      29.854  32.560  17.794  1.00  0.00     0.272 C 
ATOM      4  C   UNL     1      31.142  33.107  18.315  1.00  0.00     0.113 C 
ATOM      5  O   UNL     1      29.140  33.550  17.094  1.00  0.00    -0.332 OA
ATOM      6  C   UNL     1      31.163  34.608  18.075  1.00  0.00     0.145 C 
ATOM      7  C   UNL     1      31.101  34.853  16.605  1.00  0.00     0.142 C 
BRANCH   3   8
ATOM      8  O   UNL     1      28.957  32.126  18.774  1.00  0.00    -0.338 OA
BRANCH   8   9
ATOM      9  C   UNL     1      29.481  31.877  20.007  1.00  0.00     0.199 C 
BRANCH   9  10
ATOM     10  C   UNL     1      29.020  30.519  20.485  1.00  0.00     0.179 C 
ATOM     11  C   UNL     1      27.455  28.886  20.169  1.00  0.00     0.282 C 
ATOM     12  O   UNL     1      27.997  30.085  19.634  1.00  0.00    -0.341 OA
ATOM     13  C   UNL     1      28.501  27.836  19.923  1.00  0.00     0.202 C 
ATOM     14  C   UNL     1      29.710  28.142  20.777  1.00  0.00     0.179 C 
ATOM     15  C   UNL     1      30.165  29.566  20.508  1.00  0.00     0.177 C 
BRANCH  11  16
ATOM     16  O   UNL     1      26.245  28.670  19.563  1.00  0.00    -0.341 OA
BRANCH  16  17
ATOM     17  C   UNL     1      26.039  29.590  18.509  1.00  0.00     0.184 C 
ATOM     18  C   UNL     1      24.691  30.210  18.700  1.00  0.00     0.178 C 
ATOM     19  O   UNL     1      23.854  30.146  17.618  1.00  0.00    -0.341 OA
ATOM     20  C   UNL     1      23.685  28.931  17.021  1.00  0.00     0.281 C 
ATOM     21  C   UNL     1      26.095  28.740  17.246  1.00  0.00     0.180 C 
ATOM     22  C   UNL     1      24.806  27.943  17.246  1.00  0.00     0.202 C 
BRANCH  18  23
ATOM     23  C   UNL     1      24.952  31.710  18.935  1.00  0.00     0.191 C 
BRANCH  23  24
ATOM     24  O   UNL     1      26.205  32.101  18.534  1.00  0.00    -0.394 OA
ATOM     25  H   UNL     1      26.877  31.376  18.507  1.00  0.00     0.210 HD
ENDBRANCH  23  24
ENDBRANCH  18  23
BRANCH  20  26
ATOM     26  O   UNL     1      23.611  29.143  15.648  1.00  0.00    -0.350 OA
BRANCH  26  27
ATOM     27  C   UNL     1      22.512  29.836  15.220  1.00  0.00     0.169 C 
BRANCH  27  28
ATOM     28  C   UNL     1      22.855  30.745  14.087  1.00  0.00     0.119 C 
BRANCH  28  29
ATOM     29  N   UNL     1      24.164  31.371  14.339  1.00  0.00    -0.092 NA
ATOM     30  N   UNL     1      24.667  32.140  13.522  1.00  0.00     0.001 N 
ATOM     31  N   UNL     1      24.969  33.209  12.962  1.00  0.00    -0.003 NA
ENDBRANCH  28  29
ENDBRANCH  27  28
ENDBRANCH  26  27
ENDBRANCH  20  26
BRANCH  21  32
ATOM     32  O   UNL     1      26.127  29.544  16.131  1.00  0.00    -0.387 OA
ATOM     33  H   UNL     1      26.861  30.212  16.200  1.00  0.00     0.211 HD
ENDBRANCH  21  32
BRANCH  22  34
ATOM     34  O   UNL     1      24.650  27.183  18.382  1.00  0.00    -0.385 OA
ATOM     35  H   UNL     1      24.051  26.403  18.247  1.00  0.00     0.211 HD
ENDBRANCH  22  34
ENDBRANCH  16  17
ENDBRANCH  11  16
BRANCH  13  36
ATOM     36  O   UNL     1      28.026  26.545  20.149  1.00  0.00    -0.385 OA
ATOM     37  H   UNL     1      28.745  25.918  19.819  1.00  0.00     0.211 HD
ENDBRANCH  13  36
BRANCH  14  38
ATOM     38  O   UNL     1      30.767  27.324  20.352  1.00  0.00    -0.387 OA
ATOM     39  H   UNL     1      30.774  27.258  19.380  1.00  0.00     0.211 HD
ENDBRANCH  14  38
BRANCH  15  40
ATOM     40  O   UNL     1      30.922  29.633  19.348  1.00  0.00    -0.387 OA
ATOM     41  H   UNL     1      31.124  28.727  19.019  1.00  0.00     0.211 HD
ENDBRANCH  15  40
ENDBRANCH   9  10
ENDBRANCH   8   9
ENDBRANCH   3   8
BRANCH   3  42
ATOM     42  C   UNL     1      30.029  31.416  16.860  1.00  0.00     0.364 C 
ATOM     43  O   UNL     1      30.923  31.322  15.986  1.00  0.00    -0.246 OA
BRANCH  42  44
ATOM     44  O   UNL     1      29.148  30.350  16.935  1.00  0.00    -0.477 OA
ATOM     45  H   UNL     1      28.202  30.458  17.332  1.00  0.00     0.296 HD
ENDBRANCH  42  44
ENDBRANCH   3  42
BRANCH   6  46
ATOM     46  O   UNL     1      29.981  35.102  18.637  1.00  0.00    -0.391 OA
ATOM     47  H   UNL     1      29.798  36.037  18.350  1.00  0.00     0.211 HD
ENDBRANCH   6  46
BRANCH   7  48
ATOM     48  N   UNL     1      32.252  34.450  15.862  1.00  0.00    -0.348 N 
ATOM     49  C   UNL     1      32.775  35.156  14.742  1.00  0.00     0.217 C 
ATOM     50  H   UNL     1      32.762  33.579  16.150  1.00  0.00     0.163 HD
ATOM     51  C   UNL     1      33.981  34.636  14.053  1.00  0.00     0.114 C 
ATOM     52  O   UNL     1      32.194  36.190  14.386  1.00  0.00    -0.275 OA
ENDBRANCH   7  48
ENDBRANCH   1   2
BRANCH   1  53
ATOM     53  O   UNL     1      29.531  36.382  15.344  1.00  0.00    -0.388 OA
ATOM     54  H   UNL     1      28.876  37.050  14.982  1.00  0.00     0.211 HD
ENDBRANCH   1  53
BRANCH   1  55
ATOM     55  C   UNL     1      28.615  34.629  13.968  1.00  0.00     0.165 C 
BRANCH  55  56
ATOM     56  O   UNL     1      29.722  34.635  13.115  1.00  0.00    -0.388 OA
ATOM     57  H   UNL     1      29.526  34.354  12.207  1.00  0.00     0.211 HD
ENDBRANCH  55  56
BRANCH  55  58
ATOM     58  C   UNL     1      27.592  35.536  13.318  1.00  0.00     0.154 C 
BRANCH  58  59
ATOM     59  N   UNL     1      27.327  35.214  11.944  1.00  0.00    -0.319 N 
ATOM     60  C   UNL     1      26.629  36.155  11.147  1.00  0.00     0.407 C 
ATOM     61  H   UNL     1      27.631  34.321  11.528  1.00  0.00     0.167 HD
ATOM     62  O   UNL     1      26.275  37.250  11.673  1.00  0.00    -0.225 OA
BRANCH  60  63
ATOM     63  O   UNL     1      26.300  35.966   9.824  1.00  0.00    -0.443 OA
BRANCH  63  64
ATOM     64  C   UNL     1      25.966  37.005   8.929  1.00  0.00     0.294 C 
BRANCH  64  65
ATOM     65  C   UNL     1      24.532  36.875   8.570  1.00  0.00     0.121 A 
ATOM     66  C   UNL     1      23.552  36.052   9.087  1.00  0.00     0.144 A 
ATOM     67  N   UNL     1      23.888  37.614   7.611  1.00  0.00    -0.131 NA
ATOM     68  N   UNL     1      22.371  36.309   8.446  1.00  0.00    -0.220 N 
ATOM     69  N   UNL     1      22.625  37.251   7.572  1.00  0.00    -0.062 NA
BRANCH  68  70
ATOM     70  C   UNL     1      21.112  35.710   8.669  1.00  0.00     0.066 A 
ATOM     71  C   UNL     1      20.261  35.425   7.597  1.00  0.00     0.030 A 
ATOM     72  C   UNL     1      20.649  35.377   9.917  1.00  0.00     0.030 A 
ATOM     73  C   UNL     1      19.028  34.845   7.761  1.00  0.00     0.023 A 
ATOM     74  C   UNL     1      19.396  34.787  10.091  1.00  0.00     0.023 A 
ATOM     75  C   UNL     1      18.575  34.516   9.019  1.00  0.00     0.072 A 
BRANCH  75  76
ATOM     76  S   UNL     1      17.005  33.771   9.240  1.00  0.00     0.206 S 
ATOM     77  O   UNL     1      15.990  34.544   8.414  1.00  0.00    -0.219 OA
ATOM     78  O   UNL     1      16.595  33.682  10.671  1.00  0.00    -0.219 OA
BRANCH  76  79
ATOM     79  C   UNL     1      17.044  32.154   8.536  1.00  0.00     0.072 A 
ATOM     80  C   UNL     1      16.985  31.988   7.179  1.00  0.00     0.023 A 
ATOM     81  C   UNL     1      17.133  31.040   9.339  1.00  0.00     0.023 A 
ATOM     82  C   UNL     1      17.014  30.732   6.645  1.00  0.00     0.027 A 
ATOM     83  C   UNL     1      17.160  29.784   8.788  1.00  0.00     0.027 A 
ATOM     84  C   UNL     1      17.103  29.589   7.438  1.00  0.00     0.031 A 
BRANCH  84  85
ATOM     85  N   UNL     1      17.127  28.309   6.844  1.00  0.00    -0.399 N 
ATOM     86  H   UNL     1      18.007  27.784   6.740  1.00  0.00     0.156 HD
ATOM     87  H   UNL     1      16.246  27.885   6.506  1.00  0.00     0.156 HD
ENDBRANCH  84  85
ENDBRANCH  76  79
ENDBRANCH  75  76
ENDBRANCH  68  70
ENDBRANCH  64  65
ENDBRANCH  63  64
ENDBRANCH  60  63
ENDBRANCH  58  59
ENDBRANCH  55  58
ENDBRANCH   1  55
TORSDOF 33
BEGIN_RES LYS A 131
REMARK  4 active torsions:
REMARK  status: ('A' for Active; 'I' for Inactive)
REMARK    1  A    between atoms: CA   and  CB  
REMARK    2  A    between atoms: CB   and  CG  
REMARK    3  A    between atoms: CG   and  CD  
REMARK    4  A    between atoms: CD   and  CE  
ROOT
ATOM      1  CA  LYS A 131      29.867  25.555  16.977  1.00 20.52     0.186 C 
ENDROOT
BRANCH   1   2
ATOM      2  CB  LYS A 131      28.345  25.722  17.026  1.00 20.94     0.034 C 
BRANCH   2   3
ATOM      3  CG  LYS A 131      27.601  24.405  16.871  1.00 22.96     0.005 C 
BRANCH   3   4
ATOM      4  CD  LYS A 131      26.600  24.187  17.972  1.00 24.33     0.041 C 
BRANCH   4   5
ATOM      5  CE  LYS A 131      25.476  23.287  17.467  1.00 26.91     0.338 C 
ATOM      6  NZ  LYS A 131      24.411  24.096  16.829  1.00 27.40     0.618 N 
ENDBRANCH   4   5
ENDBRANCH   3   4
ENDBRANCH   2   3
ENDBRANCH   1   2
END_RES LYS A 131
BEGIN_RES LYS A 135
REMARK  4 active torsions:
REMARK  status: ('A' for Active; 'I' for Inactive)
REMARK    5  A    between atoms: CA   and  CB  
REMARK    6  A    between atoms: CB   and  CG  
REMARK    7  A    between atoms: CG   and  CD  
REMARK    8  A    between atoms: CD   and  CE  
ROOT
ATOM      7  CA  LYS A 135      33.193  34.663   9.290  1.00 25.02     0.186 C 
ENDROOT
BRANCH   7   8
ATOM      8  CB  LYS A 135      32.060  35.360  10.034  1.00 26.63     0.034 C 
BRANCH   8   9
ATOM      9  CG  LYS A 135      30.696  34.809   9.708  1.00 29.45     0.005 C 
BRANCH   9  10
ATOM     10  CD  LYS A 135      30.544  34.606   8.208  1.00 32.00     0.041 C 
BRANCH  10  11
ATOM     11  CE  LYS A 135      29.095  34.772   7.792  1.00 34.25     0.338 C 
ATOM     12  NZ  LYS A 135      28.908  36.007   6.982  1.00 35.99     0.618 N 
ENDBRANCH  10  11
ENDBRANCH   9  10
ENDBRANCH   8   9
ENDBRANCH   7   8
END_RES LYS A 135
