REMARK VINA RESULT:    -4.797      3.520      6.472
REMARK INTER + INTRA:         -21.950
REMARK INTER:                 -13.164
REMARK INTRA:                  -8.786
REMARK UNBOUND:                -9.861
REMARK SMILES CC(=O)N[C@@H]1[C@@H](O)C[C@](OC[C@H]2O[C@@H](O[C@H]3[C@H](O)[C@@H](O)[C@H](OCCN=[N+]=[N-])O[C@@H]3CO)[C@H](O)[C@@H](O)[C@H]2O)(C(=O)O)O[C@H]1C(O)[C@H](O)CNC(=O)OCc1cn(-c2ccc([N+](=O)[O-])cc2)nn1
REMARK SMILES IDX 9 1 8 2 6 3 5 4 42 5 41 6 10 7 11 8 12 9 14 10 13 11 32 12
REMARK SMILES IDX 34 13 36 14 15 15 16 16 29 17 28 18 21 19 17 20 19 21 30 22
REMARK SMILES IDX 31 23 22 25 23 26 24 27 25 28 26 29 27 30 18 31 20 33 33 35
REMARK SMILES IDX 35 37 37 39 38 41 39 42 40 43 7 45 43 47 44 48 45 50 46 51
REMARK SMILES IDX 47 53 48 54 49 55 50 57 51 58 52 59 53 60 54 61 66 62 55 63
REMARK SMILES IDX 65 64 56 65 57 66 64 67 58 68 63 69 59 70 60 71 61 72 62 73
REMARK SMILES IDX 4 74 2 75 1 77 3 78
REMARK H PARENT 31 24 18 32 20 34 33 36 35 38 37 40 40 44 7 46 44 49 46 52
REMARK H PARENT 48 56 4 76
REMARK Flexibility Score: inf
ROOT
ATOM      1  C   UNL     1      27.770  39.057   9.744  1.00  0.00     0.272 C 
ATOM      2  C   UNL     1      26.952  40.302   9.636  1.00  0.00     0.113 C 
ATOM      3  C   UNL     1      26.876  40.741   8.237  1.00  0.00     0.145 C 
ATOM      4  C   UNL     1      27.867  40.069   7.269  1.00  0.00     0.142 C 
ATOM      5  C   UNL     1      29.120  39.823   7.969  1.00  0.00     0.178 C 
ATOM      6  O   UNL     1      29.040  39.332   9.268  1.00  0.00    -0.332 OA
ENDROOT
BRANCH   1   7
ATOM      7  O   UNL     1      27.211  37.934   9.219  1.00  0.00    -0.338 OA
BRANCH   7   8
ATOM      8  C   UNL     1      25.980  37.587   9.675  1.00  0.00     0.199 C 
BRANCH   8   9
ATOM      9  C   UNL     1      25.365  36.467   8.845  1.00  0.00     0.179 C 
ATOM     10  C   UNL     1      23.339  35.836   9.829  1.00  0.00     0.282 C 
ATOM     11  O   UNL     1      24.651  35.568   9.592  1.00  0.00    -0.341 OA
ATOM     12  C   UNL     1      22.741  37.041   9.226  1.00  0.00     0.202 C 
ATOM     13  C   UNL     1      23.248  37.269   7.827  1.00  0.00     0.179 C 
ATOM     14  C   UNL     1      24.675  36.914   7.606  1.00  0.00     0.177 C 
BRANCH  10  15
ATOM     15  O   UNL     1      23.131  35.720  11.200  1.00  0.00    -0.341 OA
BRANCH  15  16
ATOM     16  C   UNL     1      23.106  34.470  11.721  1.00  0.00     0.184 C 
ATOM     17  C   UNL     1      21.877  34.164  12.548  1.00  0.00     0.178 C 
ATOM     18  O   UNL     1      22.012  32.863  13.073  1.00  0.00    -0.341 OA
ATOM     19  C   UNL     1      22.966  32.882  14.090  1.00  0.00     0.281 C 
ATOM     20  C   UNL     1      24.265  34.403  12.734  1.00  0.00     0.180 C 
ATOM     21  C   UNL     1      24.307  33.020  13.356  1.00  0.00     0.202 C 
BRANCH  17  22
ATOM     22  C   UNL     1      20.589  34.164  11.766  1.00  0.00     0.191 C 
BRANCH  22  23
ATOM     23  O   UNL     1      20.275  35.532  11.570  1.00  0.00    -0.394 OA
ATOM     24  H   UNL     1      19.637  35.636  10.815  1.00  0.00     0.210 HD
ENDBRANCH  22  23
ENDBRANCH  17  22
BRANCH  19  25
ATOM     25  O   UNL     1      22.967  31.692  14.770  1.00  0.00    -0.350 OA
BRANCH  25  26
ATOM     26  C   UNL     1      22.126  30.722  14.287  1.00  0.00     0.169 C 
BRANCH  26  27
ATOM     27  C   UNL     1      22.805  29.462  13.827  1.00  0.00     0.119 C 
BRANCH  27  28
ATOM     28  N   UNL     1      22.496  29.267  12.408  1.00  0.00    -0.092 NA
ATOM     29  N   UNL     1      21.377  28.901  12.081  1.00  0.00     0.001 N 
ATOM     30  N   UNL     1      20.203  28.768  11.774  1.00  0.00    -0.003 NA
ENDBRANCH  27  28
ENDBRANCH  26  27
ENDBRANCH  25  26
ENDBRANCH  19  25
BRANCH  20  31
ATOM     31  O   UNL     1      25.456  34.784  12.182  1.00  0.00    -0.387 OA
ATOM     32  H   UNL     1      25.892  34.118  11.615  1.00  0.00     0.211 HD
ENDBRANCH  20  31
BRANCH  21  33
ATOM     33  O   UNL     1      25.377  32.920  14.202  1.00  0.00    -0.385 OA
ATOM     34  H   UNL     1      25.155  33.360  15.057  1.00  0.00     0.211 HD
ENDBRANCH  21  33
ENDBRANCH  15  16
ENDBRANCH  10  15
BRANCH  12  35
ATOM     35  O   UNL     1      21.358  36.830   9.068  1.00  0.00    -0.385 OA
ATOM     36  H   UNL     1      21.159  35.923   8.770  1.00  0.00     0.211 HD
ENDBRANCH  12  35
BRANCH  13  37
ATOM     37  O   UNL     1      22.983  38.611   7.461  1.00  0.00    -0.387 OA
ATOM     38  H   UNL     1      23.664  39.165   7.879  1.00  0.00     0.211 HD
ENDBRANCH  13  37
BRANCH  14  39
ATOM     39  O   UNL     1      25.429  37.892   6.972  1.00  0.00    -0.387 OA
ATOM     40  H   UNL     1      26.349  37.526   6.863  1.00  0.00     0.211 HD
ENDBRANCH  14  39
ENDBRANCH   8   9
ENDBRANCH   7   8
ENDBRANCH   1   7
BRANCH   1  41
ATOM     41  C   UNL     1      28.030  38.810  11.216  1.00  0.00     0.364 C 
ATOM     42  O   UNL     1      27.712  39.668  12.062  1.00  0.00    -0.246 OA
BRANCH  41  43
ATOM     43  O   UNL     1      28.620  37.642  11.611  1.00  0.00    -0.477 OA
ATOM     44  H   UNL     1      28.431  37.158  12.484  1.00  0.00     0.296 HD
ENDBRANCH  41  43
ENDBRANCH   1  41
BRANCH   3  45
ATOM     45  O   UNL     1      25.609  40.515   7.705  1.00  0.00    -0.391 OA
ATOM     46  H   UNL     1      25.606  39.731   7.121  1.00  0.00     0.211 HD
ENDBRANCH   3  45
BRANCH   5  47
ATOM     47  C   UNL     1      30.228  39.074   7.372  1.00  0.00     0.176 C 
BRANCH  47  48
ATOM     48  O   UNL     1      29.955  38.410   6.172  1.00  0.00    -0.388 OA
ATOM     49  H   UNL     1      30.734  38.218   5.622  1.00  0.00     0.211 HD
ENDBRANCH  47  48
BRANCH  47  50
ATOM     50  C   UNL     1      31.570  39.706   7.187  1.00  0.00     0.165 C 
BRANCH  50  51
ATOM     51  O   UNL     1      32.264  39.358   6.070  1.00  0.00    -0.388 OA
ATOM     52  H   UNL     1      32.221  40.048   5.358  1.00  0.00     0.211 HD
ENDBRANCH  50  51
BRANCH  50  53
ATOM     53  C   UNL     1      32.347  39.835   8.470  1.00  0.00     0.154 C 
BRANCH  53  54
ATOM     54  N   UNL     1      32.211  38.726   9.377  1.00  0.00    -0.319 N 
ATOM     55  C   UNL     1      31.850  38.845  10.740  1.00  0.00     0.407 C 
ATOM     56  H   UNL     1      32.385  37.741   9.042  1.00  0.00     0.167 HD
ATOM     57  O   UNL     1      31.636  39.961  11.223  1.00  0.00    -0.225 OA
BRANCH  55  58
ATOM     58  O   UNL     1      31.728  37.728  11.569  1.00  0.00    -0.443 OA
BRANCH  58  59
ATOM     59  C   UNL     1      31.539  37.792  12.957  1.00  0.00     0.294 C 
BRANCH  59  60
ATOM     60  C   UNL     1      31.627  36.444  13.556  1.00  0.00     0.121 A 
ATOM     61  C   UNL     1      30.604  35.670  14.101  1.00  0.00     0.144 A 
ATOM     62  N   UNL     1      32.739  35.661  13.687  1.00  0.00    -0.131 NA
ATOM     63  N   UNL     1      31.105  34.495  14.524  1.00  0.00    -0.220 N 
ATOM     64  N   UNL     1      32.392  34.523  14.260  1.00  0.00    -0.062 NA
BRANCH  63  65
ATOM     65  C   UNL     1      30.386  33.414  15.130  1.00  0.00     0.067 A 
ATOM     66  C   UNL     1      29.015  33.348  15.191  1.00  0.00     0.035 A 
ATOM     67  C   UNL     1      31.094  32.368  15.704  1.00  0.00     0.035 A 
ATOM     68  C   UNL     1      28.366  32.277  15.803  1.00  0.00     0.088 A 
ATOM     69  C   UNL     1      30.455  31.307  16.310  1.00  0.00     0.088 A 
ATOM     70  C   UNL     1      29.080  31.238  16.372  1.00  0.00     0.269 A 
BRANCH  70  71
ATOM     71  N   UNL     1      28.406  30.152  16.997  1.00  0.00     0.062 N 
ATOM     72  O   UNL     1      28.296  30.013  18.225  1.00  0.00    -0.258 OA
ATOM     73  O   UNL     1      27.846  29.197  16.187  1.00  0.00    -0.258 OA
ENDBRANCH  70  71
ENDBRANCH  63  65
ENDBRANCH  59  60
ENDBRANCH  58  59
ENDBRANCH  55  58
ENDBRANCH  53  54
ENDBRANCH  50  53
ENDBRANCH  47  50
ENDBRANCH   5  47
BRANCH   4  74
ATOM     74  N   UNL     1      28.053  41.147   6.284  1.00  0.00    -0.348 N 
ATOM     75  C   UNL     1      27.396  41.160   5.042  1.00  0.00     0.217 C 
ATOM     76  H   UNL     1      28.690  41.921   6.542  1.00  0.00     0.163 HD
ATOM     77  C   UNL     1      27.658  42.301   4.113  1.00  0.00     0.114 C 
ATOM     78  O   UNL     1      26.611  40.266   4.691  1.00  0.00    -0.275 OA
ENDBRANCH   4  74
TORSDOF 31
BEGIN_RES LYS A 131
REMARK  4 active torsions:
REMARK  status: ('A' for Active; 'I' for Inactive)
REMARK    1  A    between atoms: CA   and  CB  
REMARK    2  A    between atoms: CB   and  CG  
REMARK    3  A    between atoms: CG   and  CD  
REMARK    4  A    between atoms: CD   and  CE  
ROOT
ATOM      1  CA  LYS A 131      29.867  25.555  16.977  1.00 20.52     0.186 C 
ENDROOT
BRANCH   1   2
ATOM      2  CB  LYS A 131      28.345  25.722  17.026  1.00 20.94     0.034 C 
BRANCH   2   3
ATOM      3  CG  LYS A 131      27.602  24.399  16.922  1.00 22.96     0.005 C 
BRANCH   3   4
ATOM      4  CD  LYS A 131      26.496  24.290  17.934  1.00 24.33     0.041 C 
BRANCH   4   5
ATOM      5  CE  LYS A 131      25.170  24.672  17.284  1.00 26.91     0.338 C 
ATOM      6  NZ  LYS A 131      24.567  25.834  17.978  1.00 27.40     0.618 N 
ENDBRANCH   4   5
ENDBRANCH   3   4
ENDBRANCH   2   3
ENDBRANCH   1   2
END_RES LYS A 131
BEGIN_RES LYS A 135
REMARK  4 active torsions:
REMARK  status: ('A' for Active; 'I' for Inactive)
REMARK    5  A    between atoms: CA   and  CB  
REMARK    6  A    between atoms: CB   and  CG  
REMARK    7  A    between atoms: CG   and  CD  
REMARK    8  A    between atoms: CD   and  CE  
ROOT
ATOM      7  CA  LYS A 135      33.193  34.663   9.290  1.00 25.02     0.186 C 
ENDROOT
BRANCH   7   8
ATOM      8  CB  LYS A 135      32.060  35.360  10.034  1.00 26.63     0.034 C 
BRANCH   8   9
ATOM      9  CG  LYS A 135      30.799  35.498   9.220  1.00 29.45     0.005 C 
BRANCH   9  10
ATOM     10  CD  LYS A 135      30.057  34.172   9.153  1.00 32.00     0.041 C 
BRANCH  10  11
ATOM     11  CE  LYS A 135      28.610  34.392   8.754  1.00 34.25     0.338 C 
ATOM     12  NZ  LYS A 135      27.687  33.640   9.648  1.00 35.99     0.618 N 
ENDBRANCH  10  11
ENDBRANCH   9  10
ENDBRANCH   8   9
ENDBRANCH   7   8
END_RES LYS A 135
