REMARK VINA RESULT:    -4.859      2.450      5.705
REMARK INTER + INTRA:         -23.729
REMARK INTER:                  -9.436
REMARK INTRA:                 -14.293
REMARK UNBOUND:               -10.207
REMARK SMILES CC(=O)N[C@@H]1[C@@H](O)C[C@](OC[C@H]2O[C@@H](O[C@H]3[C@H](O)[C@@H](O)[C@H](OCCN=[N+]=[N-])O[C@@H]3CO)[C@H](O)[C@@H](O)[C@H]2O)(C(=O)O)O[C@H]1C(O)[C@H](O)CNC(=O)OCc1cn(C[C@H](CC(=O)O)CC(C)C)nn1
REMARK SMILES IDX 43 1 42 2 9 3 8 4 41 5 6 6 5 7 10 8 11 9 12 10 14 11 13 12
REMARK SMILES IDX 32 13 34 14 36 15 15 16 16 17 29 18 28 19 21 20 17 21 19 22
REMARK SMILES IDX 30 23 31 24 22 26 23 27 24 28 25 29 26 30 27 31 18 32 20 34
REMARK SMILES IDX 33 36 35 38 37 40 38 42 39 43 40 44 7 46 4 48 2 49 1 51 3 52
REMARK SMILES IDX 44 53 45 55 46 56 47 58 48 59 49 60 50 62 51 63 52 64 53 65
REMARK SMILES IDX 54 66 67 67 55 68 66 69 56 70 57 71 58 72 59 73 60 74 61 75
REMARK SMILES IDX 62 77 63 78 64 79 65 80
REMARK H PARENT 31 25 18 33 20 35 33 37 35 39 37 41 40 45 7 47 4 50 44 54
REMARK H PARENT 46 57 48 61 61 76
REMARK Flexibility Score: inf
ROOT
ATOM      1  C   UNL     1      28.638  28.933  20.253  1.00  0.00     0.176 C 
ENDROOT
BRANCH   1   2
ATOM      2  C   UNL     1      29.380  29.117  21.547  1.00  0.00     0.178 C 
ATOM      3  C   UNL     1      29.195  31.209  22.730  1.00  0.00     0.272 C 
ATOM      4  C   UNL     1      30.492  31.668  22.167  1.00  0.00     0.113 C 
ATOM      5  O   UNL     1      28.717  30.093  22.219  1.00  0.00    -0.332 OA
ATOM      6  C   UNL     1      31.084  30.875  21.074  1.00  0.00     0.145 C 
ATOM      7  C   UNL     1      30.810  29.376  21.219  1.00  0.00     0.142 C 
BRANCH   3   8
ATOM      8  O   UNL     1      28.225  32.236  22.567  1.00  0.00    -0.338 OA
BRANCH   8   9
ATOM      9  C   UNL     1      27.061  32.032  23.241  1.00  0.00     0.199 C 
BRANCH   9  10
ATOM     10  C   UNL     1      25.861  32.144  22.275  1.00  0.00     0.179 C 
ATOM     11  C   UNL     1      25.329  32.713  20.088  1.00  0.00     0.282 C 
ATOM     12  O   UNL     1      26.291  32.239  20.966  1.00  0.00    -0.341 OA
ATOM     13  C   UNL     1      23.979  32.169  20.583  1.00  0.00     0.202 C 
ATOM     14  C   UNL     1      24.159  30.786  21.173  1.00  0.00     0.179 C 
ATOM     15  C   UNL     1      25.032  30.856  22.380  1.00  0.00     0.177 C 
BRANCH  11  16
ATOM     16  O   UNL     1      25.521  32.125  18.863  1.00  0.00    -0.341 OA
BRANCH  16  17
ATOM     17  C   UNL     1      26.300  32.813  17.970  1.00  0.00     0.184 C 
ATOM     18  C   UNL     1      26.789  34.144  18.459  1.00  0.00     0.178 C 
ATOM     19  O   UNL     1      26.322  35.227  17.776  1.00  0.00    -0.341 OA
ATOM     20  C   UNL     1      26.551  35.215  16.414  1.00  0.00     0.281 C 
ATOM     21  C   UNL     1      25.457  33.062  16.736  1.00  0.00     0.180 C 
ATOM     22  C   UNL     1      26.295  33.902  15.761  1.00  0.00     0.202 C 
BRANCH  18  23
ATOM     23  C   UNL     1      28.305  34.084  18.522  1.00  0.00     0.191 C 
BRANCH  23  24
ATOM     24  O   UNL     1      28.744  32.865  19.030  1.00  0.00    -0.394 OA
ATOM     25  H   UNL     1      29.464  32.977  19.710  1.00  0.00     0.210 HD
ENDBRANCH  23  24
ENDBRANCH  18  23
BRANCH  20  26
ATOM     26  O   UNL     1      27.821  35.729  16.194  1.00  0.00    -0.350 OA
BRANCH  26  27
ATOM     27  C   UNL     1      28.234  35.619  14.878  1.00  0.00     0.169 C 
BRANCH  27  28
ATOM     28  C   UNL     1      28.411  37.037  14.350  1.00  0.00     0.119 C 
BRANCH  28  29
ATOM     29  N   UNL     1      29.845  37.287  14.359  1.00  0.00    -0.092 NA
ATOM     30  N   UNL     1      30.504  36.915  13.417  1.00  0.00     0.001 N 
ATOM     31  N   UNL     1      31.419  36.521  12.682  1.00  0.00    -0.003 NA
ENDBRANCH  28  29
ENDBRANCH  27  28
ENDBRANCH  26  27
ENDBRANCH  20  26
BRANCH  21  32
ATOM     32  O   UNL     1      25.068  31.861  16.171  1.00  0.00    -0.387 OA
ATOM     33  H   UNL     1      24.064  31.814  16.251  1.00  0.00     0.211 HD
ENDBRANCH  21  32
BRANCH  22  34
ATOM     34  O   UNL     1      25.494  34.013  14.605  1.00  0.00    -0.385 OA
ATOM     35  H   UNL     1      25.790  34.816  14.126  1.00  0.00     0.211 HD
ENDBRANCH  22  34
ENDBRANCH  16  17
ENDBRANCH  11  16
BRANCH  13  36
ATOM     36  O   UNL     1      23.318  33.047  21.406  1.00  0.00    -0.385 OA
ATOM     37  H   UNL     1      23.130  32.709  22.299  1.00  0.00     0.211 HD
ENDBRANCH  13  36
BRANCH  14  38
ATOM     38  O   UNL     1      24.817  30.036  20.177  1.00  0.00    -0.387 OA
ATOM     39  H   UNL     1      25.595  29.570  20.519  1.00  0.00     0.211 HD
ENDBRANCH  14  38
BRANCH  15  40
ATOM     40  O   UNL     1      25.893  29.739  22.343  1.00  0.00    -0.387 OA
ATOM     41  H   UNL     1      26.542  29.775  23.063  1.00  0.00     0.211 HD
ENDBRANCH  15  40
ENDBRANCH   9  10
ENDBRANCH   8   9
ENDBRANCH   3   8
BRANCH   3  42
ATOM     42  C   UNL     1      29.306  31.111  24.240  1.00  0.00     0.364 C 
ATOM     43  O   UNL     1      29.793  32.041  24.894  1.00  0.00    -0.246 OA
BRANCH  42  44
ATOM     44  O   UNL     1      28.872  29.994  24.894  1.00  0.00    -0.477 OA
ATOM     45  H   UNL     1      28.440  29.202  24.420  1.00  0.00     0.296 HD
ENDBRANCH  42  44
ENDBRANCH   3  42
BRANCH   6  46
ATOM     46  O   UNL     1      30.791  31.270  19.786  1.00  0.00    -0.391 OA
ATOM     47  H   UNL     1      31.656  31.451  19.340  1.00  0.00     0.211 HD
ENDBRANCH   6  46
BRANCH   7  48
ATOM     48  N   UNL     1      31.775  28.902  22.174  1.00  0.00    -0.348 N 
ATOM     49  C   UNL     1      32.125  27.500  22.148  1.00  0.00     0.217 C 
ATOM     50  H   UNL     1      32.254  29.478  22.900  1.00  0.00     0.163 HD
ATOM     51  C   UNL     1      33.139  27.008  23.145  1.00  0.00     0.114 C 
ATOM     52  O   UNL     1      31.613  26.695  21.333  1.00  0.00    -0.275 OA
ENDBRANCH   7  48
ENDBRANCH   1   2
BRANCH   1  53
ATOM     53  O   UNL     1      27.751  30.039  20.086  1.00  0.00    -0.388 OA
ATOM     54  H   UNL     1      28.020  30.549  19.278  1.00  0.00     0.211 HD
ENDBRANCH   1  53
BRANCH   1  55
ATOM     55  C   UNL     1      27.727  27.732  20.146  1.00  0.00     0.165 C 
BRANCH  55  56
ATOM     56  O   UNL     1      28.700  26.644  20.236  1.00  0.00    -0.388 OA
ATOM     57  H   UNL     1      28.743  26.340  19.273  1.00  0.00     0.211 HD
ENDBRANCH  55  56
BRANCH  55  58
ATOM     58  C   UNL     1      27.166  27.547  18.778  1.00  0.00     0.154 C 
BRANCH  58  59
ATOM     59  N   UNL     1      27.790  28.382  17.814  1.00  0.00    -0.319 N 
ATOM     60  C   UNL     1      26.919  29.268  17.076  1.00  0.00     0.407 C 
ATOM     61  H   UNL     1      28.794  28.439  17.564  1.00  0.00     0.167 HD
ATOM     62  O   UNL     1      25.678  29.265  17.315  1.00  0.00    -0.225 OA
BRANCH  60  63
ATOM     63  O   UNL     1      27.365  30.131  16.101  1.00  0.00    -0.443 OA
BRANCH  63  64
ATOM     64  C   UNL     1      28.600  30.040  15.421  1.00  0.00     0.294 C 
BRANCH  64  65
ATOM     65  C   UNL     1      29.550  31.128  15.789  1.00  0.00     0.120 A 
ATOM     66  C   UNL     1      29.919  32.232  15.056  1.00  0.00     0.138 A 
ATOM     67  N   UNL     1      30.213  31.195  16.948  1.00  0.00    -0.132 NA
ATOM     68  N   UNL     1      30.814  32.956  15.796  1.00  0.00    -0.252 N 
ATOM     69  N   UNL     1      30.952  32.289  16.918  1.00  0.00    -0.067 NA
BRANCH  68  70
ATOM     70  C   UNL     1      31.471  34.153  15.418  1.00  0.00     0.150 C 
BRANCH  70  71
ATOM     71  C   UNL     1      32.227  34.832  16.480  1.00  0.00     0.022 C 
BRANCH  71  72
ATOM     72  C   UNL     1      31.448  35.581  17.496  1.00  0.00     0.128 C 
BRANCH  72  73
ATOM     73  C   UNL     1      31.592  35.157  18.895  1.00  0.00     0.303 C 
ATOM     74  O   UNL     1      31.584  36.026  19.806  1.00  0.00    -0.252 OA
BRANCH  73  75
ATOM     75  O   UNL     1      31.740  33.833  19.286  1.00  0.00    -0.481 OA
ATOM     76  H   UNL     1      32.048  33.137  18.622  1.00  0.00     0.296 HD
ENDBRANCH  73  75
ENDBRANCH  72  73
ENDBRANCH  71  72
BRANCH  71  77
ATOM     77  C   UNL     1      33.445  35.575  16.009  1.00  0.00     0.009 C 
BRANCH  77  78
ATOM     78  C   UNL     1      34.247  36.330  16.970  1.00  0.00    -0.017 C 
ATOM     79  C   UNL     1      35.696  36.026  17.100  1.00  0.00     0.007 C 
ATOM     80  C   UNL     1      34.091  37.837  16.871  1.00  0.00     0.007 C 
ENDBRANCH  77  78
ENDBRANCH  71  77
ENDBRANCH  70  71
ENDBRANCH  68  70
ENDBRANCH  64  65
ENDBRANCH  63  64
ENDBRANCH  60  63
ENDBRANCH  58  59
ENDBRANCH  55  58
ENDBRANCH   1  55
TORSDOF 36
BEGIN_RES LYS A 131
REMARK  4 active torsions:
REMARK  status: ('A' for Active; 'I' for Inactive)
REMARK    1  A    between atoms: CA   and  CB  
REMARK    2  A    between atoms: CB   and  CG  
REMARK    3  A    between atoms: CG   and  CD  
REMARK    4  A    between atoms: CD   and  CE  
ROOT
ATOM      1  CA  LYS A 131      29.867  25.555  16.977  1.00 20.52     0.186 C 
ENDROOT
BRANCH   1   2
ATOM      2  CB  LYS A 131      28.345  25.722  17.026  1.00 20.94     0.034 C 
BRANCH   2   3
ATOM      3  CG  LYS A 131      27.599  24.438  16.699  1.00 22.96     0.005 C 
BRANCH   3   4
ATOM      4  CD  LYS A 131      26.995  23.807  17.923  1.00 24.33     0.041 C 
BRANCH   4   5
ATOM      5  CE  LYS A 131      25.570  23.357  17.614  1.00 26.91     0.338 C 
ATOM      6  NZ  LYS A 131      24.821  24.440  16.934  1.00 27.40     0.618 N 
ENDBRANCH   4   5
ENDBRANCH   3   4
ENDBRANCH   2   3
ENDBRANCH   1   2
END_RES LYS A 131
BEGIN_RES LYS A 135
REMARK  4 active torsions:
REMARK  status: ('A' for Active; 'I' for Inactive)
REMARK    5  A    between atoms: CA   and  CB  
REMARK    6  A    between atoms: CB   and  CG  
REMARK    7  A    between atoms: CG   and  CD  
REMARK    8  A    between atoms: CD   and  CE  
ROOT
ATOM      7  CA  LYS A 135      33.193  34.663   9.290  1.00 25.02     0.186 C 
ENDROOT
BRANCH   7   8
ATOM      8  CB  LYS A 135      32.060  35.360  10.034  1.00 26.63     0.034 C 
BRANCH   8   9
ATOM      9  CG  LYS A 135      30.799  35.497   9.220  1.00 29.45     0.005 C 
BRANCH   9  10
ATOM     10  CD  LYS A 135      30.113  34.149   9.063  1.00 32.00     0.041 C 
BRANCH  10  11
ATOM     11  CE  LYS A 135      28.671  34.333   8.629  1.00 34.25     0.338 C 
ATOM     12  NZ  LYS A 135      27.735  33.693   9.594  1.00 35.99     0.618 N 
ENDBRANCH  10  11
ENDBRANCH   9  10
ENDBRANCH   8   9
ENDBRANCH   7   8
END_RES LYS A 135
