REMARK VINA RESULT:    -4.816      4.892     10.563
REMARK INTER + INTRA:         -22.218
REMARK INTER:                 -11.566
REMARK INTRA:                 -10.652
REMARK UNBOUND:                -9.660
REMARK SMILES CC(=O)N[C@@H]1[C@@H](O)C[C@](OC[C@H]2O[C@@H](O[C@H]3[C@H](O)[C@@H](O)[C@H](OCCN=[N+]=[N-])O[C@@H]3CO)[C@H](O)[C@@H](O)[C@H]2O)(C(=O)O)O[C@H]1C(O)[C@H](O)CNC(=O)OCc1cn(CCC(=O)O)nn1
REMARK SMILES IDX 43 1 42 2 9 3 8 4 41 5 6 6 5 7 10 8 11 9 12 10 14 11 13 12
REMARK SMILES IDX 32 13 34 14 36 15 15 16 16 17 29 18 28 19 21 20 17 21 19 22
REMARK SMILES IDX 30 23 31 24 22 26 23 27 24 28 25 29 26 30 27 31 18 32 20 34
REMARK SMILES IDX 33 36 35 38 37 40 38 42 39 43 40 44 7 46 4 48 2 49 1 51 3 52
REMARK SMILES IDX 44 53 45 55 46 56 47 58 48 59 49 60 50 62 51 63 52 64 53 65
REMARK SMILES IDX 54 66 62 67 55 68 61 69 56 70 57 71 58 72 59 73 60 74
REMARK H PARENT 31 25 18 33 20 35 33 37 35 39 37 41 40 45 7 47 4 50 44 54
REMARK H PARENT 46 57 48 61 60 75
REMARK Flexibility Score: inf
ROOT
ATOM      1  C   UNL     1      29.028  35.867  12.792  1.00  0.00     0.176 C 
ENDROOT
BRANCH   1   2
ATOM      2  C   UNL     1      30.350  35.667  13.493  1.00  0.00     0.178 C 
ATOM      3  C   UNL     1      31.292  34.588  15.352  1.00  0.00     0.272 C 
ATOM      4  C   UNL     1      32.486  35.124  14.583  1.00  0.00     0.113 C 
ATOM      5  O   UNL     1      30.214  35.398  14.831  1.00  0.00    -0.332 OA
ATOM      6  C   UNL     1      32.374  36.648  14.370  1.00  0.00     0.145 C 
ATOM      7  C   UNL     1      31.233  36.904  13.394  1.00  0.00     0.142 C 
BRANCH   3   8
ATOM      8  O   UNL     1      31.422  34.833  16.669  1.00  0.00    -0.338 OA
BRANCH   8   9
ATOM      9  C   UNL     1      31.465  33.995  17.667  1.00  0.00     0.199 C 
BRANCH   9  10
ATOM     10  C   UNL     1      30.345  33.539  18.498  1.00  0.00     0.179 C 
ATOM     11  C   UNL     1      28.174  32.815  18.697  1.00  0.00     0.282 C 
ATOM     12  O   UNL     1      29.132  33.361  17.891  1.00  0.00    -0.341 OA
ATOM     13  C   UNL     1      28.588  32.533  20.114  1.00  0.00     0.202 C 
ATOM     14  C   UNL     1      29.932  31.835  20.186  1.00  0.00     0.179 C 
ATOM     15  C   UNL     1      30.744  32.081  18.934  1.00  0.00     0.177 C 
BRANCH  11  16
ATOM     16  O   UNL     1      27.637  31.628  18.200  1.00  0.00    -0.341 OA
BRANCH  16  17
ATOM     17  C   UNL     1      27.689  31.535  16.811  1.00  0.00     0.184 C 
ATOM     18  C   UNL     1      26.336  31.826  16.262  1.00  0.00     0.178 C 
ATOM     19  O   UNL     1      25.722  30.722  15.646  1.00  0.00    -0.341 OA
ATOM     20  C   UNL     1      25.787  29.693  16.607  1.00  0.00     0.281 C 
ATOM     21  C   UNL     1      28.216  30.171  16.473  1.00  0.00     0.180 C 
ATOM     22  C   UNL     1      27.171  29.100  16.472  1.00  0.00     0.202 C 
BRANCH  18  23
ATOM     23  C   UNL     1      26.381  32.960  15.249  1.00  0.00     0.191 C 
BRANCH  23  24
ATOM     24  O   UNL     1      27.409  33.845  15.561  1.00  0.00    -0.394 OA
ATOM     25  H   UNL     1      28.256  33.470  15.223  1.00  0.00     0.210 HD
ENDBRANCH  23  24
ENDBRANCH  18  23
BRANCH  20  26
ATOM     26  O   UNL     1      24.797  28.757  16.425  1.00  0.00    -0.350 OA
BRANCH  26  27
ATOM     27  C   UNL     1      23.788  28.968  17.361  1.00  0.00     0.169 C 
BRANCH  27  28
ATOM     28  C   UNL     1      22.460  29.137  16.635  1.00  0.00     0.119 C 
BRANCH  28  29
ATOM     29  N   UNL     1      21.932  30.424  17.041  1.00  0.00    -0.092 NA
ATOM     30  N   UNL     1      22.490  31.441  16.634  1.00  0.00     0.001 N 
ATOM     31  N   UNL     1      22.794  32.606  16.299  1.00  0.00    -0.003 NA
ENDBRANCH  28  29
ENDBRANCH  27  28
ENDBRANCH  26  27
ENDBRANCH  20  26
BRANCH  21  32
ATOM     32  O   UNL     1      28.775  30.246  15.201  1.00  0.00    -0.387 OA
ATOM     33  H   UNL     1      29.539  29.638  15.164  1.00  0.00     0.211 HD
ENDBRANCH  21  32
BRANCH  22  34
ATOM     34  O   UNL     1      27.416  28.161  17.476  1.00  0.00    -0.385 OA
ATOM     35  H   UNL     1      26.954  27.303  17.266  1.00  0.00     0.211 HD
ENDBRANCH  22  34
ENDBRANCH  16  17
ENDBRANCH  11  16
BRANCH  13  36
ATOM     36  O   UNL     1      28.544  33.667  20.939  1.00  0.00    -0.385 OA
ATOM     37  H   UNL     1      29.424  34.071  20.987  1.00  0.00     0.211 HD
ENDBRANCH  13  36
BRANCH  14  38
ATOM     38  O   UNL     1      29.768  30.499  20.471  1.00  0.00    -0.387 OA
ATOM     39  H   UNL     1      29.266  30.374  21.301  1.00  0.00     0.211 HD
ENDBRANCH  14  38
BRANCH  15  40
ATOM     40  O   UNL     1      30.367  31.273  17.888  1.00  0.00    -0.387 OA
ATOM     41  H   UNL     1      31.038  30.606  17.613  1.00  0.00     0.211 HD
ENDBRANCH  15  40
ENDBRANCH   9  10
ENDBRANCH   8   9
ENDBRANCH   3   8
BRANCH   3  42
ATOM     42  C   UNL     1      30.941  33.205  15.021  1.00  0.00     0.364 C 
ATOM     43  O   UNL     1      29.776  32.923  14.646  1.00  0.00    -0.246 OA
BRANCH  42  44
ATOM     44  O   UNL     1      31.860  32.191  15.110  1.00  0.00    -0.477 OA
ATOM     45  H   UNL     1      32.138  31.723  15.949  1.00  0.00     0.296 HD
ENDBRANCH  42  44
ENDBRANCH   3  42
BRANCH   6  46
ATOM     46  O   UNL     1      32.039  37.202  15.587  1.00  0.00    -0.391 OA
ATOM     47  H   UNL     1      31.118  36.888  15.825  1.00  0.00     0.211 HD
ENDBRANCH   6  46
BRANCH   7  48
ATOM     48  N   UNL     1      31.733  37.109  12.074  1.00  0.00    -0.348 N 
ATOM     49  C   UNL     1      31.528  38.361  11.436  1.00  0.00     0.217 C 
ATOM     50  H   UNL     1      32.250  36.374  11.545  1.00  0.00     0.163 HD
ATOM     51  C   UNL     1      32.011  38.658  10.066  1.00  0.00     0.114 C 
ATOM     52  O   UNL     1      30.908  39.295  12.024  1.00  0.00    -0.275 OA
ENDBRANCH   7  48
ENDBRANCH   1   2
BRANCH   1  53
ATOM     53  O   UNL     1      28.426  34.617  12.637  1.00  0.00    -0.388 OA
ATOM     54  H   UNL     1      29.047  33.966  12.254  1.00  0.00     0.211 HD
ENDBRANCH   1  53
BRANCH   1  55
ATOM     55  C   UNL     1      28.073  36.772  13.503  1.00  0.00     0.165 C 
BRANCH  55  56
ATOM     56  O   UNL     1      26.841  36.120  13.618  1.00  0.00    -0.388 OA
ATOM     57  H   UNL     1      26.202  36.545  12.997  1.00  0.00     0.211 HD
ENDBRANCH  55  56
BRANCH  55  58
ATOM     58  C   UNL     1      27.858  37.987  12.594  1.00  0.00     0.154 C 
BRANCH  58  59
ATOM     59  N   UNL     1      26.814  37.733  11.640  1.00  0.00    -0.319 N 
ATOM     60  C   UNL     1      27.012  37.633  10.235  1.00  0.00     0.407 C 
ATOM     61  H   UNL     1      25.809  37.601  11.964  1.00  0.00     0.167 HD
ATOM     62  O   UNL     1      28.183  37.777   9.800  1.00  0.00    -0.225 OA
BRANCH  60  63
ATOM     63  O   UNL     1      25.974  37.388   9.355  1.00  0.00    -0.443 OA
BRANCH  63  64
ATOM     64  C   UNL     1      25.619  36.059   9.064  1.00  0.00     0.294 C 
BRANCH  64  65
ATOM     65  C   UNL     1      25.333  35.308  10.301  1.00  0.00     0.120 A 
ATOM     66  C   UNL     1      24.100  35.339  10.938  1.00  0.00     0.138 A 
ATOM     67  N   UNL     1      26.152  34.486  11.002  1.00  0.00    -0.132 NA
ATOM     68  N   UNL     1      24.222  34.523  12.012  1.00  0.00    -0.252 N 
ATOM     69  N   UNL     1      25.454  34.033  12.022  1.00  0.00    -0.067 NA
BRANCH  68  70
ATOM     70  C   UNL     1      23.192  34.224  12.983  1.00  0.00     0.158 C 
BRANCH  70  71
ATOM     71  C   UNL     1      22.147  33.261  12.465  1.00  0.00     0.146 C 
BRANCH  71  72
ATOM     72  C   UNL     1      22.582  31.895  12.787  1.00  0.00     0.305 C 
ATOM     73  O   UNL     1      21.883  30.922  12.429  1.00  0.00    -0.252 OA
BRANCH  72  74
ATOM     74  O   UNL     1      23.761  31.645  13.487  1.00  0.00    -0.481 OA
ATOM     75  H   UNL     1      23.790  31.157  14.376  1.00  0.00     0.296 HD
ENDBRANCH  72  74
ENDBRANCH  71  72
ENDBRANCH  70  71
ENDBRANCH  68  70
ENDBRANCH  64  65
ENDBRANCH  63  64
ENDBRANCH  60  63
ENDBRANCH  58  59
ENDBRANCH  55  58
ENDBRANCH   1  55
TORSDOF 33
BEGIN_RES LYS A 131
REMARK  4 active torsions:
REMARK  status: ('A' for Active; 'I' for Inactive)
REMARK    1  A    between atoms: CA   and  CB  
REMARK    2  A    between atoms: CB   and  CG  
REMARK    3  A    between atoms: CG   and  CD  
REMARK    4  A    between atoms: CD   and  CE  
ROOT
ATOM      1  CA  LYS A 131      29.867  25.555  16.977  1.00 20.52     0.186 C 
ENDROOT
BRANCH   1   2
ATOM      2  CB  LYS A 131      28.345  25.722  17.026  1.00 20.94     0.034 C 
BRANCH   2   3
ATOM      3  CG  LYS A 131      27.599  24.445  16.672  1.00 22.96     0.005 C 
BRANCH   3   4
ATOM      4  CD  LYS A 131      26.785  23.926  17.824  1.00 24.33     0.041 C 
BRANCH   4   5
ATOM      5  CE  LYS A 131      26.137  25.096  18.558  1.00 26.91     0.338 C 
ATOM      6  NZ  LYS A 131      24.868  25.484  17.899  1.00 27.40     0.618 N 
ENDBRANCH   4   5
ENDBRANCH   3   4
ENDBRANCH   2   3
ENDBRANCH   1   2
END_RES LYS A 131
BEGIN_RES LYS A 135
REMARK  4 active torsions:
REMARK  status: ('A' for Active; 'I' for Inactive)
REMARK    5  A    between atoms: CA   and  CB  
REMARK    6  A    between atoms: CB   and  CG  
REMARK    7  A    between atoms: CG   and  CD  
REMARK    8  A    between atoms: CD   and  CE  
ROOT
ATOM      7  CA  LYS A 135      33.193  34.663   9.290  1.00 25.02     0.186 C 
ENDROOT
BRANCH   7   8
ATOM      8  CB  LYS A 135      32.060  35.360  10.034  1.00 26.63     0.034 C 
BRANCH   8   9
ATOM      9  CG  LYS A 135      30.709  34.738   9.793  1.00 29.45     0.005 C 
BRANCH   9  10
ATOM     10  CD  LYS A 135      30.453  34.569   8.304  1.00 32.00     0.041 C 
BRANCH  10  11
ATOM     11  CE  LYS A 135      28.999  34.848   7.977  1.00 34.25     0.338 C 
ATOM     12  NZ  LYS A 135      28.870  35.596   6.696  1.00 35.99     0.618 N 
ENDBRANCH  10  11
ENDBRANCH   9  10
ENDBRANCH   8   9
ENDBRANCH   7   8
END_RES LYS A 135
