REMARK VINA RESULT:    -4.109      5.711     10.076
REMARK INTER + INTRA:         -24.148
REMARK INTER:                 -12.971
REMARK INTRA:                 -11.176
REMARK UNBOUND:               -13.073
REMARK SMILES CC(=O)N[C@@H]1[C@@H](O)C[C@](OC[C@H]2O[C@@H](O[C@H]3[C@H](O)[C@@H](O)[C@H](OCCN=[N+]=[N-])O[C@@H]3CO)[C@H](O)[C@@H](O)[C@H]2O)(C(=O)O)O[C@H]1C(O)[C@H](O)CNC(=O)OCc1cn(C[C@@H](C)CN2CCN(c3ccc(Cl)cc3)CC2)nn1
REMARK SMILES IDX 43 1 42 2 9 3 8 4 41 5 6 6 5 7 10 8 11 9 12 10 14 11 13 12
REMARK SMILES IDX 32 13 34 14 36 15 15 16 16 17 29 18 28 19 21 20 17 21 19 22
REMARK SMILES IDX 30 23 31 24 22 26 23 27 24 28 25 29 26 30 27 31 18 32 20 34
REMARK SMILES IDX 33 36 35 38 37 40 38 42 39 43 40 44 7 46 4 48 2 49 1 51 3 52
REMARK SMILES IDX 44 53 45 55 46 56 47 58 48 59 49 60 50 62 51 63 52 64 53 65
REMARK SMILES IDX 54 66 74 67 55 68 73 69 56 70 57 71 58 72 59 73 60 74 61 75
REMARK SMILES IDX 72 76 62 77 71 78 63 79 64 80 65 81 70 82 66 83 69 84 67 85
REMARK SMILES IDX 68 86
REMARK H PARENT 31 25 18 33 20 35 33 37 35 39 37 41 40 45 7 47 4 50 44 54
REMARK H PARENT 46 57 48 61
REMARK Flexibility Score: inf
ROOT
ATOM      1  C   UNL     1      27.093  37.687   6.994  1.00  0.00     0.176 C 
ENDROOT
BRANCH   1   2
ATOM      2  C   UNL     1      26.815  39.181   6.921  1.00  0.00     0.178 C 
ATOM      3  C   UNL     1      27.646  41.239   6.111  1.00  0.00     0.272 C 
ATOM      4  C   UNL     1      26.832  41.837   7.148  1.00  0.00     0.113 C 
ATOM      5  O   UNL     1      27.869  39.857   6.402  1.00  0.00    -0.332 OA
ATOM      6  C   UNL     1      26.874  41.074   8.459  1.00  0.00     0.145 C 
ATOM      7  C   UNL     1      26.234  39.705   8.191  1.00  0.00     0.142 C 
BRANCH   3   8
ATOM      8  O   UNL     1      28.860  41.700   5.820  1.00  0.00    -0.338 OA
BRANCH   8   9
ATOM      9  C   UNL     1      30.020  41.106   5.915  1.00  0.00     0.199 C 
BRANCH   9  10
ATOM     10  C   UNL     1      31.074  41.508   6.905  1.00  0.00     0.179 C 
ATOM     11  C   UNL     1      32.588  40.310   8.215  1.00  0.00     0.282 C 
ATOM     12  O   UNL     1      31.287  40.596   7.899  1.00  0.00    -0.341 OA
ATOM     13  C   UNL     1      33.254  39.650   7.022  1.00  0.00     0.202 C 
ATOM     14  C   UNL     1      33.178  40.590   5.864  1.00  0.00     0.179 C 
ATOM     15  C   UNL     1      32.366  41.811   6.133  1.00  0.00     0.177 C 
BRANCH  11  16
ATOM     16  O   UNL     1      32.534  39.347   9.252  1.00  0.00    -0.341 OA
BRANCH  16  17
ATOM     17  C   UNL     1      31.336  39.450   9.912  1.00  0.00     0.184 C 
ATOM     18  C   UNL     1      31.489  39.980  11.323  1.00  0.00     0.178 C 
ATOM     19  O   UNL     1      31.233  39.074  12.306  1.00  0.00    -0.341 OA
ATOM     20  C   UNL     1      29.999  38.449  12.262  1.00  0.00     0.281 C 
ATOM     21  C   UNL     1      30.572  38.130   9.910  1.00  0.00     0.180 C 
ATOM     22  C   UNL     1      29.425  38.293  10.881  1.00  0.00     0.202 C 
BRANCH  18  23
ATOM     23  C   UNL     1      30.764  41.303  11.516  1.00  0.00     0.191 C 
BRANCH  23  24
ATOM     24  O   UNL     1      30.259  41.797  10.339  1.00  0.00    -0.394 OA
ATOM     25  H   UNL     1      31.036  42.168   9.820  1.00  0.00     0.210 HD
ENDBRANCH  23  24
ENDBRANCH  18  23
BRANCH  20  26
ATOM     26  O   UNL     1      29.066  39.059  13.092  1.00  0.00    -0.350 OA
BRANCH  26  27
ATOM     27  C   UNL     1      29.108  38.687  14.405  1.00  0.00     0.169 C 
BRANCH  27  28
ATOM     28  C   UNL     1      28.293  37.453  14.667  1.00  0.00     0.119 C 
BRANCH  28  29
ATOM     29  N   UNL     1      29.187  36.335  14.920  1.00  0.00    -0.092 NA
ATOM     30  N   UNL     1      29.190  35.365  14.140  1.00  0.00     0.001 N 
ATOM     31  N   UNL     1      29.093  34.479  13.301  1.00  0.00    -0.003 NA
ENDBRANCH  28  29
ENDBRANCH  27  28
ENDBRANCH  26  27
ENDBRANCH  20  26
BRANCH  21  32
ATOM     32  O   UNL     1      30.026  37.878   8.654  1.00  0.00    -0.387 OA
ATOM     33  H   UNL     1      30.580  37.139   8.266  1.00  0.00     0.211 HD
ENDBRANCH  21  32
BRANCH  22  34
ATOM     34  O   UNL     1      28.664  37.098  10.863  1.00  0.00    -0.385 OA
ATOM     35  H   UNL     1      27.903  37.119  11.465  1.00  0.00     0.211 HD
ENDBRANCH  22  34
ENDBRANCH  16  17
ENDBRANCH  11  16
BRANCH  13  36
ATOM     36  O   UNL     1      34.549  39.318   7.382  1.00  0.00    -0.385 OA
ATOM     37  H   UNL     1      34.551  38.335   7.572  1.00  0.00     0.211 HD
ENDBRANCH  13  36
BRANCH  14  38
ATOM     38  O   UNL     1      32.763  39.967   4.679  1.00  0.00    -0.387 OA
ATOM     39  H   UNL     1      31.800  39.765   4.702  1.00  0.00     0.211 HD
ENDBRANCH  14  38
BRANCH  15  40
ATOM     40  O   UNL     1      32.041  42.459   4.967  1.00  0.00    -0.387 OA
ATOM     41  H   UNL     1      32.555  43.289   4.839  1.00  0.00     0.211 HD
ENDBRANCH  15  40
ENDBRANCH   9  10
ENDBRANCH   8   9
ENDBRANCH   3   8
BRANCH   3  42
ATOM     42  C   UNL     1      26.847  41.115   4.829  1.00  0.00     0.364 C 
ATOM     43  O   UNL     1      25.751  41.761   4.686  1.00  0.00    -0.246 OA
BRANCH  42  44
ATOM     44  O   UNL     1      27.211  40.330   3.765  1.00  0.00    -0.477 OA
ATOM     45  H   UNL     1      26.604  40.205   2.964  1.00  0.00     0.296 HD
ENDBRANCH  42  44
ENDBRANCH   3  42
BRANCH   6  46
ATOM     46  O   UNL     1      28.218  40.919   8.797  1.00  0.00    -0.391 OA
ATOM     47  H   UNL     1      28.330  40.709   9.756  1.00  0.00     0.211 HD
ENDBRANCH   6  46
BRANCH   7  48
ATOM     48  N   UNL     1      24.803  39.914   8.107  1.00  0.00    -0.348 N 
ATOM     49  C   UNL     1      23.997  39.790   9.267  1.00  0.00     0.217 C 
ATOM     50  H   UNL     1      24.315  40.157   7.201  1.00  0.00     0.163 HD
ATOM     51  C   UNL     1      22.513  40.015   9.137  1.00  0.00     0.114 C 
ATOM     52  O   UNL     1      24.463  39.501  10.405  1.00  0.00    -0.275 OA
ENDBRANCH   7  48
ENDBRANCH   1   2
BRANCH   1  53
ATOM     53  O   UNL     1      25.870  37.032   6.858  1.00  0.00    -0.388 OA
ATOM     54  H   UNL     1      25.680  36.819   5.915  1.00  0.00     0.211 HD
ENDBRANCH   1  53
BRANCH   1  55
ATOM     55  C   UNL     1      27.977  37.175   5.892  1.00  0.00     0.165 C 
BRANCH  55  56
ATOM     56  O   UNL     1      27.557  37.461   4.620  1.00  0.00    -0.388 OA
ATOM     57  H   UNL     1      26.589  37.482   4.533  1.00  0.00     0.211 HD
ENDBRANCH  55  56
BRANCH  55  58
ATOM     58  C   UNL     1      28.366  35.742   6.022  1.00  0.00     0.154 C 
BRANCH  58  59
ATOM     59  N   UNL     1      28.110  35.316   7.400  1.00  0.00    -0.319 N 
ATOM     60  C   UNL     1      29.147  34.820   8.224  1.00  0.00     0.407 C 
ATOM     61  H   UNL     1      27.142  35.382   7.774  1.00  0.00     0.167 HD
ATOM     62  O   UNL     1      30.302  34.749   7.739  1.00  0.00    -0.225 OA
BRANCH  60  63
ATOM     63  O   UNL     1      28.882  34.429   9.530  1.00  0.00    -0.443 OA
BRANCH  63  64
ATOM     64  C   UNL     1      27.679  33.700   9.776  1.00  0.00     0.294 C 
BRANCH  64  65
ATOM     65  C   UNL     1      26.600  34.561  10.312  1.00  0.00     0.120 A 
ATOM     66  C   UNL     1      25.980  34.453  11.536  1.00  0.00     0.138 A 
ATOM     67  N   UNL     1      26.011  35.618   9.705  1.00  0.00    -0.132 NA
ATOM     68  N   UNL     1      25.071  35.420  11.609  1.00  0.00    -0.252 N 
ATOM     69  N   UNL     1      25.093  36.123  10.499  1.00  0.00    -0.067 NA
BRANCH  68  70
ATOM     70  C   UNL     1      24.187  35.639  12.755  1.00  0.00     0.150 C 
BRANCH  70  71
ATOM     71  C   UNL     1      25.001  35.979  14.007  1.00  0.00     0.022 C 
ATOM     72  C   UNL     1      24.440  37.288  14.520  1.00  0.00     0.011 C 
BRANCH  71  73
ATOM     73  C   UNL     1      24.841  34.879  15.008  1.00  0.00     0.089 C 
BRANCH  73  74
ATOM     74  N   UNL     1      25.993  34.247  15.502  1.00  0.00    -0.299 NA
ATOM     75  C   UNL     1      26.351  32.957  15.088  1.00  0.00     0.106 C 
ATOM     76  C   UNL     1      26.379  34.633  16.821  1.00  0.00     0.106 C 
ATOM     77  C   UNL     1      26.607  32.012  16.262  1.00  0.00     0.132 C 
ATOM     78  C   UNL     1      27.745  34.051  17.138  1.00  0.00     0.132 C 
ATOM     79  N   UNL     1      27.591  32.620  17.156  1.00  0.00    -0.369 N 
BRANCH  79  80
ATOM     80  C   UNL     1      28.345  31.799  18.003  1.00  0.00     0.037 A 
ATOM     81  C   UNL     1      29.686  32.053  18.280  1.00  0.00     0.027 A 
ATOM     82  C   UNL     1      27.813  30.682  18.634  1.00  0.00     0.027 A 
ATOM     83  C   UNL     1      30.447  31.267  19.113  1.00  0.00     0.022 A 
ATOM     84  C   UNL     1      28.574  29.891  19.472  1.00  0.00     0.022 A 
ATOM     85  C   UNL     1      29.899  30.169  19.724  1.00  0.00     0.041 A 
ATOM     86  Cl  UNL     1      30.857  29.179  20.774  1.00  0.00    -0.084 Cl
ENDBRANCH  79  80
ENDBRANCH  73  74
ENDBRANCH  71  73
ENDBRANCH  70  71
ENDBRANCH  68  70
ENDBRANCH  64  65
ENDBRANCH  63  64
ENDBRANCH  60  63
ENDBRANCH  58  59
ENDBRANCH  55  58
ENDBRANCH   1  55
TORSDOF 34
BEGIN_RES LYS A 131
REMARK  4 active torsions:
REMARK  status: ('A' for Active; 'I' for Inactive)
REMARK    1  A    between atoms: CA   and  CB  
REMARK    2  A    between atoms: CB   and  CG  
REMARK    3  A    between atoms: CG   and  CD  
REMARK    4  A    between atoms: CD   and  CE  
ROOT
ATOM      1  CA  LYS A 131      29.867  25.555  16.977  1.00 20.52     0.186 C 
ENDROOT
BRANCH   1   2
ATOM      2  CB  LYS A 131      28.345  25.722  17.026  1.00 20.94     0.034 C 
BRANCH   2   3
ATOM      3  CG  LYS A 131      27.601  24.403  16.888  1.00 22.96     0.005 C 
BRANCH   3   4
ATOM      4  CD  LYS A 131      26.461  24.291  17.862  1.00 24.33     0.041 C 
BRANCH   4   5
ATOM      5  CE  LYS A 131      25.662  23.026  17.567  1.00 26.91     0.338 C 
ATOM      6  NZ  LYS A 131      24.288  23.370  17.130  1.00 27.40     0.618 N 
ENDBRANCH   4   5
ENDBRANCH   3   4
ENDBRANCH   2   3
ENDBRANCH   1   2
END_RES LYS A 131
BEGIN_RES LYS A 135
REMARK  4 active torsions:
REMARK  status: ('A' for Active; 'I' for Inactive)
REMARK    5  A    between atoms: CA   and  CB  
REMARK    6  A    between atoms: CB   and  CG  
REMARK    7  A    between atoms: CG   and  CD  
REMARK    8  A    between atoms: CD   and  CE  
ROOT
ATOM      7  CA  LYS A 135      33.193  34.663   9.290  1.00 25.02     0.186 C 
ENDROOT
BRANCH   7   8
ATOM      8  CB  LYS A 135      32.060  35.360  10.034  1.00 26.63     0.034 C 
BRANCH   8   9
ATOM      9  CG  LYS A 135      31.925  34.925  11.470  1.00 29.45     0.005 C 
BRANCH   9  10
ATOM     10  CD  LYS A 135      32.653  35.889  12.394  1.00 32.00     0.041 C 
BRANCH  10  11
ATOM     11  CE  LYS A 135      33.187  35.159  13.612  1.00 34.25     0.338 C 
ATOM     12  NZ  LYS A 135      32.683  35.775  14.870  1.00 35.99     0.618 N 
ENDBRANCH  10  11
ENDBRANCH   9  10
ENDBRANCH   8   9
ENDBRANCH   7   8
END_RES LYS A 135
