REMARK VINA RESULT:    -5.041      2.602      5.304
REMARK INTER + INTRA:         -22.114
REMARK INTER:                 -13.497
REMARK INTRA:                  -8.617
REMARK UNBOUND:                -9.116
REMARK SMILES CC(=O)N[C@@H]1[C@@H](O)C[C@](OC[C@H]2O[C@@H](O[C@H]3[C@H](O)[C@@H](O)[C@H](OCCN=[N+]=[N-])O[C@@H]3CO)[C@H](O)[C@@H](O)[C@H]2O)(C(=O)O)O[C@H]1C(O)[C@H](O)CNC(=O)OCc1cn(CCC2OCCO2)nn1
REMARK SMILES IDX 9 1 8 2 6 3 5 4 42 5 41 6 10 7 11 8 12 9 14 10 13 11 32 12
REMARK SMILES IDX 34 13 36 14 15 15 16 16 29 17 28 18 21 19 17 20 19 21 30 22
REMARK SMILES IDX 31 23 22 25 23 26 24 27 25 28 26 29 27 30 18 31 20 33 33 35
REMARK SMILES IDX 35 37 37 39 38 41 39 42 40 43 7 45 43 47 44 48 45 50 46 51
REMARK SMILES IDX 47 53 48 54 49 55 50 57 51 58 52 59 53 60 54 61 64 62 55 63
REMARK SMILES IDX 63 64 56 65 57 66 58 67 59 68 62 69 60 70 61 71 4 72 2 73
REMARK SMILES IDX 1 75 3 76
REMARK H PARENT 31 24 18 32 20 34 33 36 35 38 37 40 40 44 7 46 44 49 46 52
REMARK H PARENT 48 56 4 74
REMARK Flexibility Score: inf
ROOT
ATOM      1  C   UNL     1      30.687  35.879  13.462  1.00  0.00     0.272 C 
ATOM      2  C   UNL     1      32.164  35.360  13.309  1.00  0.00     0.113 C 
ATOM      3  C   UNL     1      32.875  35.391  14.594  1.00  0.00     0.145 C 
ATOM      4  C   UNL     1      32.140  34.537  15.607  1.00  0.00     0.142 C 
ATOM      5  C   UNL     1      30.702  34.353  15.257  1.00  0.00     0.178 C 
ATOM      6  O   UNL     1      30.091  35.347  14.578  1.00  0.00    -0.332 OA
ENDROOT
BRANCH   1   7
ATOM      7  O   UNL     1      30.105  35.423  12.353  1.00  0.00    -0.338 OA
BRANCH   7   8
ATOM      8  C   UNL     1      28.914  34.892  12.195  1.00  0.00     0.199 C 
BRANCH   8   9
ATOM      9  C   UNL     1      27.671  35.569  12.680  1.00  0.00     0.179 C 
ATOM     10  C   UNL     1      25.588  36.304  11.906  1.00  0.00     0.282 C 
ATOM     11  O   UNL     1      26.897  35.976  11.618  1.00  0.00    -0.341 OA
ATOM     12  C   UNL     1      25.262  36.464  13.344  1.00  0.00     0.202 C 
ATOM     13  C   UNL     1      25.795  35.362  14.218  1.00  0.00     0.179 C 
ATOM     14  C   UNL     1      26.786  34.556  13.447  1.00  0.00     0.177 C 
BRANCH  10  15
ATOM     15  O   UNL     1      24.754  35.446  11.190  1.00  0.00    -0.341 OA
BRANCH  15  16
ATOM     16  C   UNL     1      23.742  36.099  10.500  1.00  0.00     0.184 C 
ATOM     17  C   UNL     1      22.450  35.343  10.437  1.00  0.00     0.178 C 
ATOM     18  O   UNL     1      21.513  36.154   9.792  1.00  0.00    -0.341 OA
ATOM     19  C   UNL     1      21.796  36.362   8.450  1.00  0.00     0.281 C 
ATOM     20  C   UNL     1      24.175  36.270   9.016  1.00  0.00     0.180 C 
ATOM     21  C   UNL     1      23.098  37.158   8.406  1.00  0.00     0.202 C 
BRANCH  17  22
ATOM     22  C   UNL     1      21.915  35.142  11.843  1.00  0.00     0.191 C 
BRANCH  22  23
ATOM     23  O   UNL     1      20.568  35.582  11.794  1.00  0.00    -0.394 OA
ATOM     24  H   UNL     1      20.133  35.559  12.672  1.00  0.00     0.210 HD
ENDBRANCH  22  23
ENDBRANCH  17  22
BRANCH  19  25
ATOM     25  O   UNL     1      20.770  37.066   7.885  1.00  0.00    -0.350 OA
BRANCH  25  26
ATOM     26  C   UNL     1      19.616  37.138   8.612  1.00  0.00     0.169 C 
BRANCH  26  27
ATOM     27  C   UNL     1      18.396  36.561   7.928  1.00  0.00     0.119 C 
BRANCH  27  28
ATOM     28  N   UNL     1      18.398  35.114   8.039  1.00  0.00    -0.092 NA
ATOM     29  N   UNL     1      18.652  34.524   9.086  1.00  0.00     0.001 N 
ATOM     30  N   UNL     1      18.733  33.864  10.118  1.00  0.00    -0.003 NA
ENDBRANCH  27  28
ENDBRANCH  26  27
ENDBRANCH  25  26
ENDBRANCH  19  25
BRANCH  20  31
ATOM     31  O   UNL     1      25.391  36.907   8.987  1.00  0.00    -0.387 OA
ATOM     32  H   UNL     1      25.647  37.061   8.036  1.00  0.00     0.211 HD
ENDBRANCH  20  31
BRANCH  21  33
ATOM     33  O   UNL     1      23.486  37.450   7.116  1.00  0.00    -0.385 OA
ATOM     34  H   UNL     1      23.058  38.301   6.847  1.00  0.00     0.211 HD
ENDBRANCH  21  33
ENDBRANCH  15  16
ENDBRANCH  10  15
BRANCH  12  35
ATOM     35  O   UNL     1      25.726  37.728  13.789  1.00  0.00    -0.385 OA
ATOM     36  H   UNL     1      25.034  38.042  14.430  1.00  0.00     0.211 HD
ENDBRANCH  12  35
BRANCH  13  37
ATOM     37  O   UNL     1      24.772  34.587  14.764  1.00  0.00    -0.387 OA
ATOM     38  H   UNL     1      24.336  34.096  14.018  1.00  0.00     0.211 HD
ENDBRANCH  13  37
BRANCH  14  39
ATOM     39  O   UNL     1      26.224  33.683  12.539  1.00  0.00    -0.387 OA
ATOM     40  H   UNL     1      25.458  34.060  12.037  1.00  0.00     0.211 HD
ENDBRANCH  14  39
ENDBRANCH   8   9
ENDBRANCH   7   8
ENDBRANCH   1   7
BRANCH   1  41
ATOM     41  C   UNL     1      30.868  37.313  13.690  1.00  0.00     0.364 C 
ATOM     42  O   UNL     1      30.358  37.854  14.756  1.00  0.00    -0.246 OA
BRANCH  41  43
ATOM     43  O   UNL     1      31.536  38.227  12.907  1.00  0.00    -0.477 OA
ATOM     44  H   UNL     1      31.165  38.483  12.003  1.00  0.00     0.296 HD
ENDBRANCH  41  43
ENDBRANCH   1  41
BRANCH   3  45
ATOM     45  O   UNL     1      34.166  34.839  14.349  1.00  0.00    -0.391 OA
ATOM     46  H   UNL     1      34.150  33.918  14.754  1.00  0.00     0.211 HD
ENDBRANCH   3  45
BRANCH   5  47
ATOM     47  C   UNL     1      30.476  32.977  14.707  1.00  0.00     0.176 C 
BRANCH  47  48
ATOM     48  O   UNL     1      31.523  32.090  15.001  1.00  0.00    -0.388 OA
ATOM     49  H   UNL     1      32.238  32.549  15.531  1.00  0.00     0.211 HD
ENDBRANCH  47  48
BRANCH  47  50
ATOM     50  C   UNL     1      29.258  32.323  15.419  1.00  0.00     0.165 C 
BRANCH  50  51
ATOM     51  O   UNL     1      28.772  33.210  16.350  1.00  0.00    -0.388 OA
ATOM     52  H   UNL     1      29.036  34.135  16.197  1.00  0.00     0.211 HD
ENDBRANCH  50  51
BRANCH  50  53
ATOM     53  C   UNL     1      29.664  30.987  15.890  1.00  0.00     0.154 C 
BRANCH  53  54
ATOM     54  N   UNL     1      28.544  30.143  16.167  1.00  0.00    -0.319 N 
ATOM     55  C   UNL     1      27.871  30.092  17.386  1.00  0.00     0.407 C 
ATOM     56  H   UNL     1      28.216  29.525  15.383  1.00  0.00     0.167 HD
ATOM     57  O   UNL     1      28.223  30.793  18.348  1.00  0.00    -0.225 OA
BRANCH  55  58
ATOM     58  O   UNL     1      26.766  29.261  17.619  1.00  0.00    -0.443 OA
BRANCH  58  59
ATOM     59  C   UNL     1      25.444  29.757  17.513  1.00  0.00     0.294 C 
BRANCH  59  60
ATOM     60  C   UNL     1      25.153  30.331  16.179  1.00  0.00     0.120 A 
ATOM     61  C   UNL     1      24.440  29.683  15.166  1.00  0.00     0.138 A 
ATOM     62  N   UNL     1      25.481  31.523  15.656  1.00  0.00    -0.132 NA
ATOM     63  N   UNL     1      24.365  30.501  14.082  1.00  0.00    -0.252 N 
ATOM     64  N   UNL     1      25.002  31.602  14.407  1.00  0.00    -0.067 NA
BRANCH  63  65
ATOM     65  C   UNL     1      23.677  30.120  12.856  1.00  0.00     0.151 C 
BRANCH  65  66
ATOM     66  C   UNL     1      22.416  30.953  12.673  1.00  0.00     0.086 C 
BRANCH  66  67
ATOM     67  C   UNL     1      21.183  30.096  12.689  1.00  0.00     0.251 C 
ATOM     68  O   UNL     1      20.129  30.794  12.098  1.00  0.00    -0.350 OA
ATOM     69  O   UNL     1      21.313  28.931  11.959  1.00  0.00    -0.350 OA
ATOM     70  C   UNL     1      19.196  29.815  11.776  1.00  0.00     0.192 C 
ATOM     71  C   UNL     1      19.962  28.510  11.911  1.00  0.00     0.192 C 
ENDBRANCH  66  67
ENDBRANCH  65  66
ENDBRANCH  63  65
ENDBRANCH  59  60
ENDBRANCH  58  59
ENDBRANCH  55  58
ENDBRANCH  53  54
ENDBRANCH  50  53
ENDBRANCH  47  50
ENDBRANCH   5  47
BRANCH   4  72
ATOM     72  N   UNL     1      32.338  35.056  16.958  1.00  0.00    -0.348 N 
ATOM     73  C   UNL     1      31.941  34.374  18.113  1.00  0.00     0.217 C 
ATOM     74  H   UNL     1      32.812  36.003  17.032  1.00  0.00     0.163 HD
ATOM     75  C   UNL     1      32.181  34.974  19.465  1.00  0.00     0.114 C 
ATOM     76  O   UNL     1      31.383  33.253  17.968  1.00  0.00    -0.275 OA
ENDBRANCH   4  72
TORSDOF 32
BEGIN_RES LYS A 131
REMARK  4 active torsions:
REMARK  status: ('A' for Active; 'I' for Inactive)
REMARK    1  A    between atoms: CA   and  CB  
REMARK    2  A    between atoms: CB   and  CG  
REMARK    3  A    between atoms: CG   and  CD  
REMARK    4  A    between atoms: CD   and  CE  
ROOT
ATOM      1  CA  LYS A 131      29.867  25.555  16.977  1.00 20.52     0.186 C 
ENDROOT
BRANCH   1   2
ATOM      2  CB  LYS A 131      28.345  25.722  17.026  1.00 20.94     0.034 C 
BRANCH   2   3
ATOM      3  CG  LYS A 131      27.601  24.401  16.905  1.00 22.96     0.005 C 
BRANCH   3   4
ATOM      4  CD  LYS A 131      26.151  24.531  17.280  1.00 24.33     0.041 C 
BRANCH   4   5
ATOM      5  CE  LYS A 131      25.924  25.866  17.982  1.00 26.91     0.338 C 
ATOM      6  NZ  LYS A 131      24.544  26.350  17.743  1.00 27.40     0.618 N 
ENDBRANCH   4   5
ENDBRANCH   3   4
ENDBRANCH   2   3
ENDBRANCH   1   2
END_RES LYS A 131
BEGIN_RES LYS A 135
REMARK  4 active torsions:
REMARK  status: ('A' for Active; 'I' for Inactive)
REMARK    5  A    between atoms: CA   and  CB  
REMARK    6  A    between atoms: CB   and  CG  
REMARK    7  A    between atoms: CG   and  CD  
REMARK    8  A    between atoms: CD   and  CE  
ROOT
ATOM      7  CA  LYS A 135      33.193  34.663   9.290  1.00 25.02     0.186 C 
ENDROOT
BRANCH   7   8
ATOM      8  CB  LYS A 135      32.060  35.360  10.034  1.00 26.63     0.034 C 
BRANCH   8   9
ATOM      9  CG  LYS A 135      30.846  35.618   9.179  1.00 29.45     0.005 C 
BRANCH   9  10
ATOM     10  CD  LYS A 135      30.237  34.308   8.703  1.00 32.00     0.041 C 
BRANCH  10  11
ATOM     11  CE  LYS A 135      28.746  34.466   8.476  1.00 34.25     0.338 C 
ATOM     12  NZ  LYS A 135      28.433  35.789   7.869  1.00 35.99     0.618 N 
ENDBRANCH  10  11
ENDBRANCH   9  10
ENDBRANCH   8   9
ENDBRANCH   7   8
END_RES LYS A 135
