REMARK VINA RESULT:    -4.242      2.919      7.353
REMARK INTER + INTRA:         -22.001
REMARK INTER:                  -9.737
REMARK INTRA:                 -12.265
REMARK UNBOUND:               -11.064
REMARK SMILES CC(=O)N[C@@H]1[C@@H](O)C[C@](OC[C@H]2O[C@@H](O[C@H]3[C@H](O)[C@@H](O)[C@H](OCCN=[N+]=[N-])O[C@@H]3CO)[C@H](O)[C@@H](O)[C@H]2O)(C(=O)O)O[C@H]1C(O)[C@H](O)CNC(=O)OCc1cn(CC(=O)Nc2ncccn2)nn1
REMARK SMILES IDX 9 1 8 2 6 3 5 4 42 5 41 6 10 7 11 8 12 9 14 10 13 11 32 12
REMARK SMILES IDX 34 13 36 14 15 15 16 16 29 17 28 18 21 19 17 20 19 21 30 22
REMARK SMILES IDX 31 23 22 25 23 26 24 27 25 28 26 29 27 30 18 31 20 33 33 35
REMARK SMILES IDX 35 37 37 39 38 41 39 42 40 43 7 45 43 47 44 48 45 50 46 51
REMARK SMILES IDX 47 53 48 54 49 55 50 57 51 58 52 59 53 60 54 61 67 62 55 63
REMARK SMILES IDX 66 64 56 65 57 66 58 67 59 68 60 70 61 71 65 72 62 73 64 74
REMARK SMILES IDX 63 75 4 76 2 77 1 79 3 80
REMARK H PARENT 31 24 18 32 20 34 33 36 35 38 37 40 40 44 7 46 44 49 46 52
REMARK H PARENT 48 56 59 69 4 78
REMARK Flexibility Score: inf
ROOT
ATOM      1  C   UNL     1      20.865  36.088  10.146  1.00  0.00     0.272 C 
ATOM      2  C   UNL     1      21.294  35.837   8.710  1.00  0.00     0.113 C 
ATOM      3  C   UNL     1      21.406  37.104   7.965  1.00  0.00     0.145 C 
ATOM      4  C   UNL     1      22.126  38.232   8.689  1.00  0.00     0.142 C 
ATOM      5  C   UNL     1      22.039  38.143  10.146  1.00  0.00     0.178 C 
ATOM      6  O   UNL     1      22.014  36.834  10.607  1.00  0.00    -0.332 OA
ENDROOT
BRANCH   1   7
ATOM      7  O   UNL     1      20.885  34.938  10.808  1.00  0.00    -0.338 OA
BRANCH   7   8
ATOM      8  C   UNL     1      21.355  34.435  11.877  1.00  0.00     0.199 C 
BRANCH   8   9
ATOM      9  C   UNL     1      22.633  33.688  12.070  1.00  0.00     0.179 C 
ATOM     10  C   UNL     1      24.780  34.112  12.884  1.00  0.00     0.282 C 
ATOM     11  O   UNL     1      23.593  34.682  12.543  1.00  0.00    -0.341 OA
ATOM     12  C   UNL     1      24.654  33.457  14.297  1.00  0.00     0.202 C 
ATOM     13  C   UNL     1      23.153  33.318  14.454  1.00  0.00     0.179 C 
ATOM     14  C   UNL     1      22.685  32.659  13.137  1.00  0.00     0.177 C 
BRANCH  10  15
ATOM     15  O   UNL     1      25.764  35.105  12.986  1.00  0.00    -0.341 OA
BRANCH  15  16
ATOM     16  C   UNL     1      26.837  34.887  12.130  1.00  0.00     0.184 C 
ATOM     17  C   UNL     1      27.672  36.173  12.098  1.00  0.00     0.178 C 
ATOM     18  O   UNL     1      27.898  36.590  10.795  1.00  0.00    -0.341 OA
ATOM     19  C   UNL     1      26.695  36.922  10.154  1.00  0.00     0.281 C 
ATOM     20  C   UNL     1      26.353  34.503  10.783  1.00  0.00     0.180 C 
ATOM     21  C   UNL     1      26.003  35.624   9.852  1.00  0.00     0.202 C 
BRANCH  17  22
ATOM     22  C   UNL     1      29.032  35.914  12.723  1.00  0.00     0.191 C 
BRANCH  22  23
ATOM     23  O   UNL     1      29.407  36.968  13.558  1.00  0.00    -0.394 OA
ATOM     24  H   UNL     1      29.452  36.690  14.514  1.00  0.00     0.210 HD
ENDBRANCH  22  23
ENDBRANCH  17  22
BRANCH  19  25
ATOM     25  O   UNL     1      27.057  37.569   8.987  1.00  0.00    -0.350 OA
BRANCH  25  26
ATOM     26  C   UNL     1      26.609  38.871   8.910  1.00  0.00     0.169 C 
BRANCH  26  27
ATOM     27  C   UNL     1      26.891  39.697  10.146  1.00  0.00     0.119 C 
BRANCH  27  28
ATOM     28  N   UNL     1      28.229  40.265  10.120  1.00  0.00    -0.092 NA
ATOM     29  N   UNL     1      29.149  39.800  10.801  1.00  0.00     0.001 N 
ATOM     30  N   UNL     1      29.888  39.294  11.638  1.00  0.00    -0.003 NA
ENDBRANCH  27  28
ENDBRANCH  26  27
ENDBRANCH  25  26
ENDBRANCH  19  25
BRANCH  20  31
ATOM     31  O   UNL     1      27.376  33.768  10.122  1.00  0.00    -0.387 OA
ATOM     32  H   UNL     1      26.963  33.006   9.622  1.00  0.00     0.211 HD
ENDBRANCH  20  31
BRANCH  21  33
ATOM     33  O   UNL     1      24.625  35.814   9.880  1.00  0.00    -0.385 OA
ATOM     34  H   UNL     1      24.325  36.195   9.021  1.00  0.00     0.211 HD
ENDBRANCH  21  33
ENDBRANCH  15  16
ENDBRANCH  10  15
BRANCH  12  35
ATOM     35  O   UNL     1      25.149  32.150  14.205  1.00  0.00    -0.385 OA
ATOM     36  H   UNL     1      25.523  32.061  13.287  1.00  0.00     0.211 HD
ENDBRANCH  12  35
BRANCH  13  37
ATOM     37  O   UNL     1      22.514  34.499  14.718  1.00  0.00    -0.387 OA
ATOM     38  H   UNL     1      23.020  35.293  14.456  1.00  0.00     0.211 HD
ENDBRANCH  13  37
BRANCH  14  39
ATOM     39  O   UNL     1      21.607  31.895  13.414  1.00  0.00    -0.387 OA
ATOM     40  H   UNL     1      21.844  31.062  13.889  1.00  0.00     0.211 HD
ENDBRANCH  14  39
ENDBRANCH   8   9
ENDBRANCH   7   8
ENDBRANCH   1   7
BRANCH   1  41
ATOM     41  C   UNL     1      19.686  36.908  10.324  1.00  0.00     0.364 C 
ATOM     42  O   UNL     1      18.745  36.869   9.459  1.00  0.00    -0.246 OA
BRANCH  41  43
ATOM     43  O   UNL     1      19.463  37.773  11.369  1.00  0.00    -0.477 OA
ATOM     44  H   UNL     1      18.878  38.573  11.348  1.00  0.00     0.296 HD
ENDBRANCH  41  43
ENDBRANCH   1  41
BRANCH   3  45
ATOM     45  O   UNL     1      22.091  36.812   6.759  1.00  0.00    -0.391 OA
ATOM     46  H   UNL     1      21.471  36.305   6.153  1.00  0.00     0.211 HD
ENDBRANCH   3  45
BRANCH   5  47
ATOM     47  C   UNL     1      23.232  38.776  10.909  1.00  0.00     0.176 C 
BRANCH  47  48
ATOM     48  O   UNL     1      23.420  40.088  10.705  1.00  0.00    -0.388 OA
ATOM     49  H   UNL     1      23.121  40.686  11.446  1.00  0.00     0.211 HD
ENDBRANCH  47  48
BRANCH  47  50
ATOM     50  C   UNL     1      23.576  38.161  12.176  1.00  0.00     0.165 C 
BRANCH  50  51
ATOM     51  O   UNL     1      22.289  38.207  12.942  1.00  0.00    -0.388 OA
ATOM     52  H   UNL     1      22.493  38.016  13.871  1.00  0.00     0.211 HD
ENDBRANCH  50  51
BRANCH  50  53
ATOM     53  C   UNL     1      24.603  38.592  13.101  1.00  0.00     0.154 C 
BRANCH  53  54
ATOM     54  N   UNL     1      25.162  37.892  14.163  1.00  0.00    -0.319 N 
ATOM     55  C   UNL     1      24.647  37.215  15.286  1.00  0.00     0.407 C 
ATOM     56  H   UNL     1      26.279  37.859  14.119  1.00  0.00     0.167 HD
ATOM     57  O   UNL     1      23.422  37.162  15.501  1.00  0.00    -0.225 OA
BRANCH  55  58
ATOM     58  O   UNL     1      25.471  36.582  16.182  1.00  0.00    -0.443 OA
BRANCH  58  59
ATOM     59  C   UNL     1      26.678  36.957  16.672  1.00  0.00     0.294 C 
BRANCH  59  60
ATOM     60  C   UNL     1      27.782  36.020  16.360  1.00  0.00     0.120 A 
ATOM     61  C   UNL     1      27.649  34.693  15.929  1.00  0.00     0.138 A 
ATOM     62  N   UNL     1      29.130  36.183  16.473  1.00  0.00    -0.132 NA
ATOM     63  N   UNL     1      28.851  34.121  15.803  1.00  0.00    -0.243 N 
ATOM     64  N   UNL     1      29.721  35.057  16.142  1.00  0.00    -0.067 NA
BRANCH  63  65
ATOM     65  C   UNL     1      29.198  32.776  15.390  1.00  0.00     0.246 C 
BRANCH  65  66
ATOM     66  C   UNL     1      28.409  31.816  16.255  1.00  0.00     0.248 C 
ATOM     67  O   UNL     1      28.465  31.857  17.508  1.00  0.00    -0.272 OA
ATOM     68  N   UNL     1      27.580  30.839  15.653  1.00  0.00    -0.293 N 
ATOM     69  H   UNL     1      27.571  30.850  14.602  1.00  0.00     0.173 HD
BRANCH  68  70
ATOM     70  C   UNL     1      26.780  29.891  16.327  1.00  0.00     0.229 A 
ATOM     71  N   UNL     1      25.439  29.943  16.406  1.00  0.00    -0.221 NA
ATOM     72  N   UNL     1      27.402  28.865  16.942  1.00  0.00    -0.221 NA
ATOM     73  C   UNL     1      24.703  29.010  17.078  1.00  0.00     0.117 A 
ATOM     74  C   UNL     1      26.732  27.925  17.611  1.00  0.00     0.117 A 
ATOM     75  C   UNL     1      25.367  27.974  17.697  1.00  0.00     0.040 A 
ENDBRANCH  68  70
ENDBRANCH  65  66
ENDBRANCH  63  65
ENDBRANCH  59  60
ENDBRANCH  58  59
ENDBRANCH  55  58
ENDBRANCH  53  54
ENDBRANCH  50  53
ENDBRANCH  47  50
ENDBRANCH   5  47
BRANCH   4  76
ATOM     76  N   UNL     1      21.678  39.442   8.069  1.00  0.00    -0.348 N 
ATOM     77  C   UNL     1      22.616  40.420   7.565  1.00  0.00     0.217 C 
ATOM     78  H   UNL     1      20.655  39.668   7.954  1.00  0.00     0.163 HD
ATOM     79  C   UNL     1      22.085  41.645   6.930  1.00  0.00     0.114 C 
ATOM     80  O   UNL     1      23.843  40.223   7.672  1.00  0.00    -0.275 OA
ENDBRANCH   4  76
TORSDOF 32
BEGIN_RES LYS A 131
REMARK  4 active torsions:
REMARK  status: ('A' for Active; 'I' for Inactive)
REMARK    1  A    between atoms: CA   and  CB  
REMARK    2  A    between atoms: CB   and  CG  
REMARK    3  A    between atoms: CG   and  CD  
REMARK    4  A    between atoms: CD   and  CE  
ROOT
ATOM      1  CA  LYS A 131      29.867  25.555  16.977  1.00 20.52     0.186 C 
ENDROOT
BRANCH   1   2
ATOM      2  CB  LYS A 131      28.345  25.722  17.026  1.00 20.94     0.034 C 
BRANCH   2   3
ATOM      3  CG  LYS A 131      27.602  24.400  16.911  1.00 22.96     0.005 C 
BRANCH   3   4
ATOM      4  CD  LYS A 131      26.577  24.230  17.998  1.00 24.33     0.041 C 
BRANCH   4   5
ATOM      5  CE  LYS A 131      25.342  23.538  17.430  1.00 26.91     0.338 C 
ATOM      6  NZ  LYS A 131      24.393  24.537  16.885  1.00 27.40     0.618 N 
ENDBRANCH   4   5
ENDBRANCH   3   4
ENDBRANCH   2   3
ENDBRANCH   1   2
END_RES LYS A 131
BEGIN_RES LYS A 135
REMARK  4 active torsions:
REMARK  status: ('A' for Active; 'I' for Inactive)
REMARK    5  A    between atoms: CA   and  CB  
REMARK    6  A    between atoms: CB   and  CG  
REMARK    7  A    between atoms: CG   and  CD  
REMARK    8  A    between atoms: CD   and  CE  
ROOT
ATOM      7  CA  LYS A 135      33.193  34.663   9.290  1.00 25.02     0.186 C 
ENDROOT
BRANCH   7   8
ATOM      8  CB  LYS A 135      32.060  35.360  10.034  1.00 26.63     0.034 C 
BRANCH   8   9
ATOM      9  CG  LYS A 135      30.724  34.684   9.866  1.00 29.45     0.005 C 
BRANCH   9  10
ATOM     10  CD  LYS A 135      30.399  34.496   8.393  1.00 32.00     0.041 C 
BRANCH  10  11
ATOM     11  CE  LYS A 135      29.617  35.683   7.863  1.00 34.25     0.338 C 
ATOM     12  NZ  LYS A 135      28.462  35.239   7.035  1.00 35.99     0.618 N 
ENDBRANCH  10  11
ENDBRANCH   9  10
ENDBRANCH   8   9
ENDBRANCH   7   8
END_RES LYS A 135
