REMARK VINA RESULT:    -4.593      3.725      7.662
REMARK INTER + INTRA:         -21.592
REMARK INTER:                 -12.605
REMARK INTRA:                  -8.987
REMARK UNBOUND:               -10.018
REMARK SMILES COc1ccc(-n2cc(COC(=O)NC[C@@H](O)C(O)[C@@H]3O[C@@](OC[C@H]4O[C@@H](O[C@H]5[C@H](O)[C@@H](O)[C@H](OCCN=[N+]=[N-])O[C@@H]5CO)[C@H](O)[C@@H](O)[C@H]4O)(C(=O)O)C[C@H](O)[C@H]3NC(C)=O)nn2)cc1
REMARK SMILES IDX 22 1 54 2 55 3 57 4 20 5 21 6 23 7 24 8 25 9 27 10 26 11
REMARK SMILES IDX 45 12 47 13 49 14 28 15 29 16 42 17 41 18 34 19 30 20 32 21
REMARK SMILES IDX 43 22 44 23 35 25 36 26 37 27 38 28 39 29 40 30 31 31 33 33
REMARK SMILES IDX 46 35 48 37 50 39 51 41 52 42 53 43 56 45 18 47 19 48 16 50
REMARK SMILES IDX 17 51 15 53 14 54 12 55 13 57 11 58 10 59 9 60 8 61 62 62
REMARK SMILES IDX 7 63 63 64 6 65 5 66 64 67 4 68 65 69 3 70 2 71 1 72 58 73
REMARK SMILES IDX 59 74 60 76 61 77
REMARK H PARENT 44 24 31 32 33 34 46 36 48 38 50 40 53 44 56 46 19 49 17 52
REMARK H PARENT 14 56 58 75
REMARK Flexibility Score: inf
ROOT
ATOM      1  C   UNL     1      26.265  38.192   7.738  1.00  0.00     0.272 C 
ATOM      2  C   UNL     1      25.707  36.826   7.596  1.00  0.00     0.113 C 
ATOM      3  C   UNL     1      25.029  36.249   8.776  1.00  0.00     0.145 C 
ATOM      4  C   UNL     1      25.556  36.975  10.030  1.00  0.00     0.142 C 
ATOM      5  C   UNL     1      26.999  37.253   9.797  1.00  0.00     0.178 C 
ATOM      6  O   UNL     1      27.074  38.303   8.884  1.00  0.00    -0.332 OA
ENDROOT
BRANCH   1   7
ATOM      7  O   UNL     1      25.591  39.290   7.596  1.00  0.00    -0.338 OA
BRANCH   7   8
ATOM      8  C   UNL     1      24.523  39.758   7.069  1.00  0.00     0.199 C 
BRANCH   8   9
ATOM      9  C   UNL     1      23.237  39.986   7.810  1.00  0.00     0.179 C 
ATOM     10  C   UNL     1      21.520  39.076   9.013  1.00  0.00     0.282 C 
ATOM     11  O   UNL     1      22.798  38.884   8.461  1.00  0.00    -0.341 OA
ATOM     12  C   UNL     1      21.451  40.193  10.005  1.00  0.00     0.202 C 
ATOM     13  C   UNL     1      22.554  41.182   9.941  1.00  0.00     0.179 C 
ATOM     14  C   UNL     1      23.286  41.231   8.661  1.00  0.00     0.177 C 
BRANCH  10  15
ATOM     15  O   UNL     1      21.166  37.885   9.639  1.00  0.00    -0.341 OA
BRANCH  15  16
ATOM     16  C   UNL     1      20.025  37.328   9.130  1.00  0.00     0.184 C 
ATOM     17  C   UNL     1      19.087  36.866  10.185  1.00  0.00     0.178 C 
ATOM     18  O   UNL     1      17.968  36.207   9.610  1.00  0.00    -0.341 OA
ATOM     19  C   UNL     1      18.477  34.978   9.115  1.00  0.00     0.281 C 
ATOM     20  C   UNL     1      20.432  36.133   8.250  1.00  0.00     0.180 C 
ATOM     21  C   UNL     1      19.199  35.380   7.827  1.00  0.00     0.202 C 
BRANCH  17  22
ATOM     22  C   UNL     1      18.596  38.002  11.043  1.00  0.00     0.191 C 
BRANCH  22  23
ATOM     23  O   UNL     1      18.170  39.035  10.226  1.00  0.00    -0.394 OA
ATOM     24  H   UNL     1      18.150  39.904  10.684  1.00  0.00     0.210 HD
ENDBRANCH  22  23
ENDBRANCH  17  22
BRANCH  19  25
ATOM     25  O   UNL     1      17.488  34.085   8.890  1.00  0.00    -0.350 OA
BRANCH  25  26
ATOM     26  C   UNL     1      16.351  34.476   8.253  1.00  0.00     0.169 C 
BRANCH  26  27
ATOM     27  C   UNL     1      15.833  33.598   7.165  1.00  0.00     0.119 C 
BRANCH  27  28
ATOM     28  N   UNL     1      16.820  32.868   6.428  1.00  0.00    -0.092 NA
ATOM     29  N   UNL     1      16.797  31.643   6.371  1.00  0.00     0.001 N 
ATOM     30  N   UNL     1      16.725  30.416   6.498  1.00  0.00    -0.003 NA
ENDBRANCH  27  28
ENDBRANCH  26  27
ENDBRANCH  25  26
ENDBRANCH  19  25
BRANCH  20  31
ATOM     31  O   UNL     1      21.152  36.605   7.168  1.00  0.00    -0.387 OA
ATOM     32  H   UNL     1      21.669  35.823   6.798  1.00  0.00     0.211 HD
ENDBRANCH  20  31
BRANCH  21  33
ATOM     33  O   UNL     1      19.544  34.229   7.156  1.00  0.00    -0.385 OA
ATOM     34  H   UNL     1      20.518  34.183   6.991  1.00  0.00     0.211 HD
ENDBRANCH  21  33
ENDBRANCH  15  16
ENDBRANCH  10  15
BRANCH  12  35
ATOM     35  O   UNL     1      20.252  40.915   9.884  1.00  0.00    -0.385 OA
ATOM     36  H   UNL     1      19.572  40.403   9.392  1.00  0.00     0.211 HD
ENDBRANCH  12  35
BRANCH  13  37
ATOM     37  O   UNL     1      23.388  41.047  11.057  1.00  0.00    -0.387 OA
ATOM     38  H   UNL     1      24.323  40.880  10.823  1.00  0.00     0.211 HD
ENDBRANCH  13  37
BRANCH  14  39
ATOM     39  O   UNL     1      24.600  41.635   8.910  1.00  0.00    -0.387 OA
ATOM     40  H   UNL     1      24.594  42.111   9.778  1.00  0.00     0.211 HD
ENDBRANCH  14  39
ENDBRANCH   8   9
ENDBRANCH   7   8
ENDBRANCH   1   7
BRANCH   1  41
ATOM     41  C   UNL     1      27.363  38.221   6.627  1.00  0.00     0.364 C 
ATOM     42  O   UNL     1      28.474  38.701   6.861  1.00  0.00    -0.246 OA
BRANCH  41  43
ATOM     43  O   UNL     1      27.009  37.689   5.412  1.00  0.00    -0.477 OA
ATOM     44  H   UNL     1      26.881  36.675   5.281  1.00  0.00     0.296 HD
ENDBRANCH  41  43
ENDBRANCH   1  41
BRANCH   3  45
ATOM     45  O   UNL     1      23.666  36.191   8.743  1.00  0.00    -0.391 OA
ATOM     46  H   UNL     1      23.270  35.767   7.949  1.00  0.00     0.211 HD
ENDBRANCH   3  45
BRANCH   5  47
ATOM     47  C   UNL     1      27.733  37.775  11.054  1.00  0.00     0.176 C 
BRANCH  47  48
ATOM     48  O   UNL     1      28.307  36.751  11.743  1.00  0.00    -0.388 OA
ATOM     49  H   UNL     1      28.468  37.028  12.674  1.00  0.00     0.211 HD
ENDBRANCH  47  48
BRANCH  47  50
ATOM     50  C   UNL     1      28.406  39.029  10.825  1.00  0.00     0.165 C 
BRANCH  50  51
ATOM     51  O   UNL     1      29.463  39.007   9.874  1.00  0.00    -0.388 OA
ATOM     52  H   UNL     1      30.238  39.382  10.337  1.00  0.00     0.211 HD
ENDBRANCH  50  51
BRANCH  50  53
ATOM     53  C   UNL     1      28.889  39.926  11.887  1.00  0.00     0.154 C 
BRANCH  53  54
ATOM     54  N   UNL     1      29.453  39.383  13.039  1.00  0.00    -0.319 N 
ATOM     55  C   UNL     1      30.723  38.799  13.161  1.00  0.00     0.407 C 
ATOM     56  H   UNL     1      28.865  39.404  13.942  1.00  0.00     0.167 HD
ATOM     57  O   UNL     1      31.510  38.729  12.203  1.00  0.00    -0.225 OA
BRANCH  55  58
ATOM     58  O   UNL     1      31.123  38.275  14.411  1.00  0.00    -0.443 OA
BRANCH  58  59
ATOM     59  C   UNL     1      31.930  37.125  14.399  1.00  0.00     0.294 C 
BRANCH  59  60
ATOM     60  C   UNL     1      31.080  35.917  14.276  1.00  0.00     0.121 A 
ATOM     61  C   UNL     1      30.639  35.041  15.251  1.00  0.00     0.144 A 
ATOM     62  N   UNL     1      30.562  35.474  13.114  1.00  0.00    -0.131 NA
ATOM     63  N   UNL     1      29.883  34.116  14.648  1.00  0.00    -0.220 N 
ATOM     64  N   UNL     1      29.852  34.402  13.343  1.00  0.00    -0.062 NA
BRANCH  63  65
ATOM     65  C   UNL     1      29.177  32.995  15.158  1.00  0.00     0.067 A 
ATOM     66  C   UNL     1      27.838  32.995  15.443  1.00  0.00     0.032 A 
ATOM     67  C   UNL     1      29.879  31.815  15.398  1.00  0.00     0.032 A 
ATOM     68  C   UNL     1      27.212  31.865  15.950  1.00  0.00     0.048 A 
ATOM     69  C   UNL     1      29.255  30.691  15.903  1.00  0.00     0.048 A 
ATOM     70  C   UNL     1      27.907  30.693  16.190  1.00  0.00     0.119 A 
BRANCH  70  71
ATOM     71  O   UNL     1      27.258  29.555  16.706  1.00  0.00    -0.497 OA
ATOM     72  C   UNL     1      27.071  29.504  18.128  1.00  0.00     0.278 C 
ENDBRANCH  70  71
ENDBRANCH  63  65
ENDBRANCH  59  60
ENDBRANCH  58  59
ENDBRANCH  55  58
ENDBRANCH  53  54
ENDBRANCH  50  53
ENDBRANCH  47  50
ENDBRANCH   5  47
BRANCH   4  73
ATOM     73  N   UNL     1      25.196  36.206  11.188  1.00  0.00    -0.348 N 
ATOM     74  C   UNL     1      25.726  34.908  11.405  1.00  0.00     0.217 C 
ATOM     75  H   UNL     1      24.562  36.618  11.895  1.00  0.00     0.163 HD
ATOM     76  C   UNL     1      25.336  34.133  12.611  1.00  0.00     0.114 C 
ATOM     77  O   UNL     1      26.532  34.361  10.607  1.00  0.00    -0.275 OA
ENDBRANCH   4  73
TORSDOF 31
BEGIN_RES LYS A 131
REMARK  4 active torsions:
REMARK  status: ('A' for Active; 'I' for Inactive)
REMARK    1  A    between atoms: CA   and  CB  
REMARK    2  A    between atoms: CB   and  CG  
REMARK    3  A    between atoms: CG   and  CD  
REMARK    4  A    between atoms: CD   and  CE  
ROOT
ATOM      1  CA  LYS A 131      29.867  25.555  16.977  1.00 20.52     0.186 C 
ENDROOT
BRANCH   1   2
ATOM      2  CB  LYS A 131      28.345  25.722  17.026  1.00 20.94     0.034 C 
BRANCH   2   3
ATOM      3  CG  LYS A 131      27.601  24.403  16.886  1.00 22.96     0.005 C 
BRANCH   3   4
ATOM      4  CD  LYS A 131      26.220  24.466  17.477  1.00 24.33     0.041 C 
BRANCH   4   5
ATOM      5  CE  LYS A 131      26.145  25.617  18.475  1.00 26.91     0.338 C 
ATOM      6  NZ  LYS A 131      25.517  25.166  19.740  1.00 27.40     0.618 N 
ENDBRANCH   4   5
ENDBRANCH   3   4
ENDBRANCH   2   3
ENDBRANCH   1   2
END_RES LYS A 131
BEGIN_RES LYS A 135
REMARK  4 active torsions:
REMARK  status: ('A' for Active; 'I' for Inactive)
REMARK    5  A    between atoms: CA   and  CB  
REMARK    6  A    between atoms: CB   and  CG  
REMARK    7  A    between atoms: CG   and  CD  
REMARK    8  A    between atoms: CD   and  CE  
ROOT
ATOM      7  CA  LYS A 135      33.193  34.663   9.290  1.00 25.02     0.186 C 
ENDROOT
BRANCH   7   8
ATOM      8  CB  LYS A 135      32.060  35.360  10.034  1.00 26.63     0.034 C 
BRANCH   8   9
ATOM      9  CG  LYS A 135      30.692  34.850   9.663  1.00 29.45     0.005 C 
BRANCH   9  10
ATOM     10  CD  LYS A 135      30.021  35.785   8.668  1.00 32.00     0.041 C 
BRANCH  10  11
ATOM     11  CE  LYS A 135      29.001  35.034   7.835  1.00 34.25     0.338 C 
ATOM     12  NZ  LYS A 135      29.228  35.257   6.380  1.00 35.99     0.618 N 
ENDBRANCH  10  11
ENDBRANCH   9  10
ENDBRANCH   8   9
ENDBRANCH   7   8
END_RES LYS A 135
