REMARK VINA RESULT:    -4.942      3.853      7.712
REMARK INTER + INTRA:         -23.403
REMARK INTER:                  -8.408
REMARK INTRA:                 -14.995
REMARK UNBOUND:               -10.372
REMARK SMILES CC(=O)N[C@@H]1[C@@H](O)C[C@](OC[C@H]2O[C@@H](O[C@H]3[C@H](O)[C@@H](O)[C@H](OCCN=[N+]=[N-])O[C@@H]3CO)[C@H](O)[C@@H](O)[C@H]2O)(C(=O)O)O[C@H]1C(O)[C@H](O)CNC(=O)OCc1cn(CC(=O)NCc2cccs2)nn1
REMARK SMILES IDX 43 1 42 2 9 3 8 4 41 5 6 6 5 7 10 8 11 9 12 10 14 11 13 12
REMARK SMILES IDX 32 13 34 14 36 15 15 16 16 17 29 18 28 19 21 20 17 21 19 22
REMARK SMILES IDX 30 23 31 24 22 26 23 27 24 28 25 29 26 30 27 31 18 32 20 34
REMARK SMILES IDX 33 36 35 38 37 40 38 42 39 43 40 44 7 46 4 48 2 49 1 51 3 52
REMARK SMILES IDX 44 53 45 55 46 56 47 58 48 59 49 60 50 62 51 63 52 64 53 65
REMARK SMILES IDX 54 66 67 67 55 68 66 69 56 70 57 71 58 72 59 73 60 75 61 76
REMARK SMILES IDX 62 77 65 78 63 79 64 80
REMARK H PARENT 31 25 18 33 20 35 33 37 35 39 37 41 40 45 7 47 4 50 44 54
REMARK H PARENT 46 57 48 61 59 74
REMARK Flexibility Score: inf
ROOT
ATOM      1  C   UNL     1      27.520  38.445  15.230  1.00  0.00     0.176 C 
ENDROOT
BRANCH   1   2
ATOM      2  C   UNL     1      28.339  39.701  15.370  1.00  0.00     0.178 C 
ATOM      3  C   UNL     1      30.455  39.376  16.376  1.00  0.00     0.272 C 
ATOM      4  C   UNL     1      29.747  39.516  17.734  1.00  0.00     0.113 C 
ATOM      5  O   UNL     1      29.646  39.364  15.311  1.00  0.00    -0.332 OA
ATOM      6  C   UNL     1      28.798  40.643  17.656  1.00  0.00     0.145 C 
ATOM      7  C   UNL     1      27.917  40.636  16.435  1.00  0.00     0.142 C 
BRANCH   3   8
ATOM      8  O   UNL     1      31.155  38.198  16.488  1.00  0.00    -0.338 OA
BRANCH   8   9
ATOM      9  C   UNL     1      32.296  37.999  15.824  1.00  0.00     0.199 C 
BRANCH   9  10
ATOM     10  C   UNL     1      32.530  36.695  15.118  1.00  0.00     0.179 C 
ATOM     11  C   UNL     1      32.320  34.468  15.636  1.00  0.00     0.282 C 
ATOM     12  O   UNL     1      31.783  35.744  15.856  1.00  0.00    -0.341 OA
ATOM     13  C   UNL     1      32.610  34.231  14.191  1.00  0.00     0.202 C 
ATOM     14  C   UNL     1      32.004  35.215  13.246  1.00  0.00     0.179 C 
ATOM     15  C   UNL     1      31.934  36.628  13.728  1.00  0.00     0.177 C 
BRANCH  11  16
ATOM     16  O   UNL     1      31.538  33.470  16.146  1.00  0.00    -0.341 OA
BRANCH  16  17
ATOM     17  C   UNL     1      30.387  33.934  16.779  1.00  0.00     0.184 C 
ATOM     18  C   UNL     1      30.228  33.464  18.157  1.00  0.00     0.178 C 
ATOM     19  O   UNL     1      29.230  32.568  18.433  1.00  0.00    -0.341 OA
ATOM     20  C   UNL     1      28.579  31.991  17.391  1.00  0.00     0.281 C 
ATOM     21  C   UNL     1      29.237  33.708  15.838  1.00  0.00     0.180 C 
ATOM     22  C   UNL     1      28.023  33.133  16.522  1.00  0.00     0.202 C 
BRANCH  18  23
ATOM     23  C   UNL     1      29.958  34.657  19.096  1.00  0.00     0.191 C 
BRANCH  23  24
ATOM     24  O   UNL     1      30.340  35.858  18.540  1.00  0.00    -0.394 OA
ATOM     25  H   UNL     1      29.667  36.544  18.799  1.00  0.00     0.210 HD
ENDBRANCH  23  24
ENDBRANCH  18  23
BRANCH  20  26
ATOM     26  O   UNL     1      27.431  31.348  17.883  1.00  0.00    -0.350 OA
BRANCH  26  27
ATOM     27  C   UNL     1      27.672  30.023  18.184  1.00  0.00     0.169 C 
BRANCH  27  28
ATOM     28  C   UNL     1      27.431  29.218  16.903  1.00  0.00     0.119 C 
BRANCH  28  29
ATOM     29  N   UNL     1      27.004  27.873  17.258  1.00  0.00    -0.092 NA
ATOM     30  N   UNL     1      26.017  27.719  17.975  1.00  0.00     0.001 N 
ATOM     31  N   UNL     1      24.922  27.494  18.523  1.00  0.00    -0.003 NA
ENDBRANCH  28  29
ENDBRANCH  27  28
ENDBRANCH  26  27
ENDBRANCH  20  26
BRANCH  21  32
ATOM     32  O   UNL     1      28.905  34.846  15.097  1.00  0.00    -0.387 OA
ATOM     33  H   UNL     1      29.041  35.681  15.640  1.00  0.00     0.211 HD
ENDBRANCH  21  32
BRANCH  22  34
ATOM     34  O   UNL     1      27.170  32.642  15.553  1.00  0.00    -0.385 OA
ATOM     35  H   UNL     1      27.642  32.003  14.961  1.00  0.00     0.211 HD
ENDBRANCH  22  34
ENDBRANCH  16  17
ENDBRANCH  11  16
BRANCH  13  36
ATOM     36  O   UNL     1      33.999  34.125  13.949  1.00  0.00    -0.385 OA
ATOM     37  H   UNL     1      34.397  34.942  13.609  1.00  0.00     0.211 HD
ENDBRANCH  13  36
BRANCH  14  38
ATOM     38  O   UNL     1      30.745  34.757  12.792  1.00  0.00    -0.387 OA
ATOM     39  H   UNL     1      30.292  35.477  12.288  1.00  0.00     0.211 HD
ENDBRANCH  14  38
BRANCH  15  40
ATOM     40  O   UNL     1      30.559  36.952  13.812  1.00  0.00    -0.387 OA
ATOM     41  H   UNL     1      30.188  37.226  12.943  1.00  0.00     0.211 HD
ENDBRANCH  15  40
ENDBRANCH   9  10
ENDBRANCH   8   9
ENDBRANCH   3   8
BRANCH   3  42
ATOM     42  C   UNL     1      31.373  40.556  16.320  1.00  0.00     0.364 C 
ATOM     43  O   UNL     1      32.028  40.993  17.293  1.00  0.00    -0.246 OA
BRANCH  42  44
ATOM     44  O   UNL     1      31.533  41.230  15.116  1.00  0.00    -0.477 OA
ATOM     45  H   UNL     1      30.737  41.651  14.654  1.00  0.00     0.296 HD
ENDBRANCH  42  44
ENDBRANCH   3  42
BRANCH   6  46
ATOM     46  O   UNL     1      28.016  40.678  18.847  1.00  0.00    -0.391 OA
ATOM     47  H   UNL     1      27.956  41.590  19.206  1.00  0.00     0.211 HD
ENDBRANCH   6  46
BRANCH   7  48
ATOM     48  N   UNL     1      27.726  41.982  15.931  1.00  0.00    -0.348 N 
ATOM     49  C   UNL     1      26.444  42.414  15.529  1.00  0.00     0.217 C 
ATOM     50  H   UNL     1      28.524  42.665  15.845  1.00  0.00     0.163 HD
ATOM     51  C   UNL     1      26.267  43.802  15.011  1.00  0.00     0.114 C 
ATOM     52  O   UNL     1      25.419  41.695  15.576  1.00  0.00    -0.275 OA
ENDBRANCH   7  48
ENDBRANCH   1   2
BRANCH   1  53
ATOM     53  O   UNL     1      27.872  37.618  14.203  1.00  0.00    -0.388 OA
ATOM     54  H   UNL     1      27.196  37.467  13.509  1.00  0.00     0.211 HD
ENDBRANCH   1  53
BRANCH   1  55
ATOM     55  C   UNL     1      27.248  37.710  16.525  1.00  0.00     0.165 C 
BRANCH  55  56
ATOM     56  O   UNL     1      28.271  36.900  16.916  1.00  0.00    -0.388 OA
ATOM     57  H   UNL     1      28.032  36.208  17.571  1.00  0.00     0.211 HD
ENDBRANCH  55  56
BRANCH  55  58
ATOM     58  C   UNL     1      25.944  36.939  16.423  1.00  0.00     0.154 C 
BRANCH  58  59
ATOM     59  N   UNL     1      26.043  35.777  15.591  1.00  0.00    -0.319 N 
ATOM     60  C   UNL     1      25.135  35.370  14.582  1.00  0.00     0.407 C 
ATOM     61  H   UNL     1      26.880  35.099  15.695  1.00  0.00     0.167 HD
ATOM     62  O   UNL     1      24.125  36.019  14.310  1.00  0.00    -0.225 OA
BRANCH  60  63
ATOM     63  O   UNL     1      25.348  34.193  13.838  1.00  0.00    -0.443 OA
BRANCH  63  64
ATOM     64  C   UNL     1      25.663  34.147  12.485  1.00  0.00     0.294 C 
BRANCH  64  65
ATOM     65  C   UNL     1      26.676  35.120  12.055  1.00  0.00     0.120 A 
ATOM     66  C   UNL     1      26.495  36.187  11.203  1.00  0.00     0.138 A 
ATOM     67  N   UNL     1      27.985  35.154  12.420  1.00  0.00    -0.132 NA
ATOM     68  N   UNL     1      27.662  36.831  11.070  1.00  0.00    -0.243 N 
ATOM     69  N   UNL     1      28.531  36.186  11.812  1.00  0.00    -0.067 NA
BRANCH  68  70
ATOM     70  C   UNL     1      28.006  38.005  10.300  1.00  0.00     0.245 C 
BRANCH  70  71
ATOM     71  C   UNL     1      28.775  38.921  11.162  1.00  0.00     0.242 C 
ATOM     72  O   UNL     1      28.188  39.747  11.884  1.00  0.00    -0.273 OA
ATOM     73  N   UNL     1      30.190  38.871  11.179  1.00  0.00    -0.350 N 
ATOM     74  H   UNL     1      30.728  38.185  10.580  1.00  0.00     0.163 HD
BRANCH  73  75
ATOM     75  C   UNL     1      30.973  39.740  12.002  1.00  0.00     0.162 C 
BRANCH  75  76
ATOM     76  C   UNL     1      31.693  40.697  11.150  1.00  0.00     0.024 A 
ATOM     77  C   UNL     1      32.157  41.949  11.393  1.00  0.00     0.017 A 
ATOM     78  S   UNL     1      32.161  40.405   9.481  1.00  0.00    -0.147 S 
ATOM     79  C   UNL     1      32.798  42.614  10.420  1.00  0.00     0.012 A 
ATOM     80  C   UNL     1      32.977  42.043   9.215  1.00  0.00     0.065 A 
ENDBRANCH  75  76
ENDBRANCH  73  75
ENDBRANCH  70  71
ENDBRANCH  68  70
ENDBRANCH  64  65
ENDBRANCH  63  64
ENDBRANCH  60  63
ENDBRANCH  58  59
ENDBRANCH  55  58
ENDBRANCH   1  55
TORSDOF 33
BEGIN_RES LYS A 131
REMARK  4 active torsions:
REMARK  status: ('A' for Active; 'I' for Inactive)
REMARK    1  A    between atoms: CA   and  CB  
REMARK    2  A    between atoms: CB   and  CG  
REMARK    3  A    between atoms: CG   and  CD  
REMARK    4  A    between atoms: CD   and  CE  
ROOT
ATOM      1  CA  LYS A 131      29.867  25.555  16.977  1.00 20.52     0.186 C 
ENDROOT
BRANCH   1   2
ATOM      2  CB  LYS A 131      28.345  25.722  17.026  1.00 20.94     0.034 C 
BRANCH   2   3
ATOM      3  CG  LYS A 131      27.600  24.409  16.839  1.00 22.96     0.005 C 
BRANCH   3   4
ATOM      4  CD  LYS A 131      26.611  24.157  17.942  1.00 24.33     0.041 C 
BRANCH   4   5
ATOM      5  CE  LYS A 131      25.221  23.961  17.345  1.00 26.91     0.338 C 
ATOM      6  NZ  LYS A 131      24.817  22.537  17.427  1.00 27.40     0.618 N 
ENDBRANCH   4   5
ENDBRANCH   3   4
ENDBRANCH   2   3
ENDBRANCH   1   2
END_RES LYS A 131
BEGIN_RES LYS A 135
REMARK  4 active torsions:
REMARK  status: ('A' for Active; 'I' for Inactive)
REMARK    5  A    between atoms: CA   and  CB  
REMARK    6  A    between atoms: CB   and  CG  
REMARK    7  A    between atoms: CG   and  CD  
REMARK    8  A    between atoms: CD   and  CE  
ROOT
ATOM      7  CA  LYS A 135      33.193  34.663   9.290  1.00 25.02     0.186 C 
ENDROOT
BRANCH   7   8
ATOM      8  CB  LYS A 135      32.060  35.360  10.034  1.00 26.63     0.034 C 
BRANCH   8   9
ATOM      9  CG  LYS A 135      30.963  35.861   9.130  1.00 29.45     0.005 C 
BRANCH   9  10
ATOM     10  CD  LYS A 135      30.346  34.711   8.348  1.00 32.00     0.041 C 
BRANCH  10  11
ATOM     11  CE  LYS A 135      29.305  33.995   9.188  1.00 34.25     0.338 C 
ATOM     12  NZ  LYS A 135      27.935  34.215   8.647  1.00 35.99     0.618 N 
ENDBRANCH  10  11
ENDBRANCH   9  10
ENDBRANCH   8   9
ENDBRANCH   7   8
END_RES LYS A 135
