REMARK VINA RESULT:    -7.307      6.020     11.663
REMARK INTER + INTRA:         -20.900
REMARK INTER:                 -12.103
REMARK INTRA:                  -8.797
REMARK UNBOUND:                -1.206
REMARK SMILES CC(=O)N[C@@H]1[C@@H](O)C[C@](OC[C@H]2O[C@@H](O[C@H]3[C@H](O)[C@@H](O)[C@H](OCCN=[N+]=[N-])O[C@@H]3CO)[C@H](O)[C@@H](O)[C@H]2O)(C(=O)O)O[C@H]1C(O)[C@H](O)CNC(=O)OCc1cn(C2CCc3ccccc3NC2=O)nn1
REMARK SMILES IDX 43 1 42 2 9 3 8 4 41 5 6 6 5 7 10 8 11 9 12 10 14 11 13 12
REMARK SMILES IDX 32 13 34 14 36 15 15 16 16 17 29 18 28 19 21 20 17 21 19 22
REMARK SMILES IDX 30 23 31 24 22 26 23 27 24 28 25 29 26 30 27 31 18 32 20 34
REMARK SMILES IDX 33 36 35 38 37 40 38 42 39 43 40 44 7 46 4 48 2 49 1 51 3 52
REMARK SMILES IDX 44 53 45 55 46 56 47 58 48 59 49 60 50 62 51 63 52 64 53 65
REMARK SMILES IDX 54 66 69 67 55 68 68 69 56 70 57 71 66 73 65 74 67 75 64 77
REMARK SMILES IDX 59 78 63 79 60 80 62 81 61 82 58 83
REMARK H PARENT 31 25 18 33 20 35 33 37 35 39 37 41 40 45 7 47 4 50 44 54
REMARK H PARENT 46 57 48 61 65 76
REMARK Flexibility Score: 90.00
ROOT
ATOM      1  C   UNL     1      28.424  32.365  17.082  1.00  0.00     0.176 C 
ENDROOT
BRANCH   1   2
ATOM      2  C   UNL     1      29.336  33.606  17.013  1.00  0.00     0.178 C 
ATOM      3  C   UNL     1      29.839  34.725  14.968  1.00  0.00     0.272 C 
ATOM      4  C   UNL     1      31.248  34.296  15.058  1.00  0.00     0.113 C 
ATOM      5  O   UNL     1      29.013  34.462  16.062  1.00  0.00    -0.332 OA
ATOM      6  C   UNL     1      31.415  33.003  15.782  1.00  0.00     0.145 C 
ATOM      7  C   UNL     1      30.767  33.161  17.150  1.00  0.00     0.142 C 
BRANCH   3   8
ATOM      8  O   UNL     1      29.152  34.280  13.894  1.00  0.00    -0.338 OA
BRANCH   8   9
ATOM      9  C   UNL     1      29.180  34.822  12.687  1.00  0.00     0.199 C 
BRANCH   9  10
ATOM     10  C   UNL     1      28.013  35.169  11.869  1.00  0.00     0.179 C 
ATOM     11  C   UNL     1      25.758  34.671  11.739  1.00  0.00     0.282 C 
ATOM     12  O   UNL     1      26.877  34.639  12.569  1.00  0.00    -0.341 OA
ATOM     13  C   UNL     1      25.839  35.569  10.568  1.00  0.00     0.202 C 
ATOM     14  C   UNL     1      26.674  36.796  10.700  1.00  0.00     0.179 C 
ATOM     15  C   UNL     1      27.668  36.657  11.825  1.00  0.00     0.177 C 
BRANCH  11  16
ATOM     16  O   UNL     1      24.618  34.872  12.545  1.00  0.00    -0.341 OA
BRANCH  16  17
ATOM     17  C   UNL     1      24.548  33.984  13.586  1.00  0.00     0.184 C 
ATOM     18  C   UNL     1      23.190  33.382  13.835  1.00  0.00     0.178 C 
ATOM     19  O   UNL     1      23.378  32.415  14.824  1.00  0.00    -0.341 OA
ATOM     20  C   UNL     1      23.508  32.987  16.081  1.00  0.00     0.281 C 
ATOM     21  C   UNL     1      24.980  34.633  14.892  1.00  0.00     0.180 C 
ATOM     22  C   UNL     1      24.065  34.379  16.034  1.00  0.00     0.202 C 
BRANCH  18  23
ATOM     23  C   UNL     1      22.660  32.655  12.615  1.00  0.00     0.191 C 
BRANCH  23  24
ATOM     24  O   UNL     1      22.399  31.314  12.884  1.00  0.00    -0.394 OA
ATOM     25  H   UNL     1      21.611  30.971  12.410  1.00  0.00     0.210 HD
ENDBRANCH  23  24
ENDBRANCH  18  23
BRANCH  20  26
ATOM     26  O   UNL     1      24.264  32.141  16.872  1.00  0.00    -0.350 OA
BRANCH  26  27
ATOM     27  C   UNL     1      24.628  30.991  16.195  1.00  0.00     0.169 C 
BRANCH  27  28
ATOM     28  C   UNL     1      24.161  29.715  16.818  1.00  0.00     0.119 C 
BRANCH  28  29
ATOM     29  N   UNL     1      25.134  29.286  17.809  1.00  0.00    -0.092 NA
ATOM     30  N   UNL     1      26.043  28.482  17.531  1.00  0.00     0.001 N 
ATOM     31  N   UNL     1      27.106  28.107  17.016  1.00  0.00    -0.003 NA
ENDBRANCH  28  29
ENDBRANCH  27  28
ENDBRANCH  26  27
ENDBRANCH  20  26
BRANCH  21  32
ATOM     32  O   UNL     1      26.317  34.331  15.194  1.00  0.00    -0.387 OA
ATOM     33  H   UNL     1      26.611  34.918  15.938  1.00  0.00     0.211 HD
ENDBRANCH  21  32
BRANCH  22  34
ATOM     34  O   UNL     1      22.998  35.307  16.091  1.00  0.00    -0.385 OA
ATOM     35  H   UNL     1      23.314  36.226  16.179  1.00  0.00     0.211 HD
ENDBRANCH  22  34
ENDBRANCH  16  17
ENDBRANCH  11  16
BRANCH  13  36
ATOM     36  O   UNL     1      26.141  34.828   9.421  1.00  0.00    -0.385 OA
ATOM     37  H   UNL     1      26.484  33.935   9.682  1.00  0.00     0.211 HD
ENDBRANCH  13  36
BRANCH  14  38
ATOM     38  O   UNL     1      25.921  37.965  10.794  1.00  0.00    -0.387 OA
ATOM     39  H   UNL     1      26.292  38.469  11.564  1.00  0.00     0.211 HD
ENDBRANCH  14  38
BRANCH  15  40
ATOM     40  O   UNL     1      27.056  37.020  13.050  1.00  0.00    -0.387 OA
ATOM     41  H   UNL     1      27.563  36.550  13.748  1.00  0.00     0.211 HD
ENDBRANCH  15  40
ENDBRANCH   9  10
ENDBRANCH   8   9
ENDBRANCH   3   8
BRANCH   3  42
ATOM     42  C   UNL     1      29.863  36.237  15.011  1.00  0.00     0.364 C 
ATOM     43  O   UNL     1      28.884  36.886  15.297  1.00  0.00    -0.246 OA
BRANCH  42  44
ATOM     44  O   UNL     1      31.048  36.917  14.710  1.00  0.00    -0.477 OA
ATOM     45  H   UNL     1      31.110  37.589  13.964  1.00  0.00     0.296 HD
ENDBRANCH  42  44
ENDBRANCH   3  42
BRANCH   6  46
ATOM     46  O   UNL     1      30.737  32.019  15.044  1.00  0.00    -0.391 OA
ATOM     47  H   UNL     1      31.323  31.503  14.466  1.00  0.00     0.211 HD
ENDBRANCH   6  46
BRANCH   7  48
ATOM     48  N   UNL     1      31.595  34.011  17.938  1.00  0.00    -0.348 N 
ATOM     49  C   UNL     1      31.758  33.776  19.332  1.00  0.00     0.217 C 
ATOM     50  H   UNL     1      32.098  34.827  17.516  1.00  0.00     0.163 HD
ATOM     51  C   UNL     1      32.610  34.636  20.197  1.00  0.00     0.114 C 
ATOM     52  O   UNL     1      31.162  32.813  19.827  1.00  0.00    -0.275 OA
ENDBRANCH   7  48
ENDBRANCH   1   2
BRANCH   1  53
ATOM     53  O   UNL     1      27.969  32.054  15.797  1.00  0.00    -0.388 OA
ATOM     54  H   UNL     1      27.977  31.091  15.602  1.00  0.00     0.211 HD
ENDBRANCH   1  53
BRANCH   1  55
ATOM     55  C   UNL     1      29.107  31.167  17.634  1.00  0.00     0.165 C 
BRANCH  55  56
ATOM     56  O   UNL     1      29.238  30.103  16.749  1.00  0.00    -0.388 OA
ATOM     57  H   UNL     1      28.394  30.041  16.227  1.00  0.00     0.211 HD
ENDBRANCH  55  56
BRANCH  55  58
ATOM     58  C   UNL     1      28.561  30.623  18.913  1.00  0.00     0.154 C 
BRANCH  58  59
ATOM     59  N   UNL     1      29.032  29.324  19.284  1.00  0.00    -0.319 N 
ATOM     60  C   UNL     1      28.604  28.618  20.432  1.00  0.00     0.407 C 
ATOM     61  H   UNL     1      29.736  28.865  18.670  1.00  0.00     0.167 HD
ATOM     62  O   UNL     1      27.757  29.111  21.217  1.00  0.00    -0.225 OA
BRANCH  60  63
ATOM     63  O   UNL     1      29.128  27.373  20.686  1.00  0.00    -0.443 OA
BRANCH  63  64
ATOM     64  C   UNL     1      29.949  27.084  21.763  1.00  0.00     0.294 C 
BRANCH  64  65
ATOM     65  C   UNL     1      31.100  27.988  21.797  1.00  0.00     0.120 A 
ATOM     66  C   UNL     1      31.737  28.460  22.918  1.00  0.00     0.139 A 
ATOM     67  N   UNL     1      31.764  28.543  20.754  1.00  0.00    -0.132 NA
ATOM     68  N   UNL     1      32.755  29.275  22.546  1.00  0.00    -0.240 N 
ATOM     69  N   UNL     1      32.739  29.301  21.229  1.00  0.00    -0.066 NA
BRANCH  68  70
ATOM     70  C   UNL     1      33.689  29.984  23.437  1.00  0.00     0.198 C 
BRANCH  70  71
ATOM     71  C   UNL     1      35.035  29.428  23.160  1.00  0.00     0.042 CG0
ATOM     72  G   UNL     1      36.204  30.202  23.662  1.00  0.00     0.000 G0
ENDBRANCH  70  71
BRANCH  70  73
ATOM     73  C   UNL     1      33.501  31.411  23.156  1.00  0.00     0.249 C 
ATOM     74  N   UNL     1      34.273  32.298  22.361  1.00  0.00    -0.324 N 
ATOM     75  O   UNL     1      32.494  31.928  23.710  1.00  0.00    -0.272 OA
ATOM     76  H   UNL     1      33.816  33.152  21.974  1.00  0.00     0.170 HD
BRANCH  74  77
ATOM     77  C   UNL     1      35.667  32.090  22.047  1.00  0.00     0.044 A 
ATOM     78  C   UNL     1      36.563  31.179  22.596  1.00  0.00    -0.024 A 
ATOM     79  C   UNL     1      36.099  32.949  21.061  1.00  0.00     0.026 A 
ATOM     80  C   UNL     1      37.871  31.112  22.177  1.00  0.00     0.006 A 
ATOM     81  C   UNL     1      37.408  32.904  20.622  1.00  0.00     0.002 A 
ATOM     82  C   UNL     1      38.285  31.975  21.193  1.00  0.00     0.000 A 
BRANCH  78  83
ATOM     83  C   UNL     1      36.193  30.209  23.665  1.00  0.00     0.040 CG0
ATOM     84  G   UNL     1      35.028  29.431  23.161  1.00  0.00     0.000 G0
ENDBRANCH  78  83
ENDBRANCH  74  77
ENDBRANCH  70  73
ENDBRANCH  68  70
ENDBRANCH  64  65
ENDBRANCH  63  64
ENDBRANCH  60  63
ENDBRANCH  58  59
ENDBRANCH  55  58
ENDBRANCH   1  55
TORSDOF 30
BEGIN_RES LYS A 131
REMARK  4 active torsions:
REMARK  status: ('A' for Active; 'I' for Inactive)
REMARK    1  A    between atoms: CA   and  CB  
REMARK    2  A    between atoms: CB   and  CG  
REMARK    3  A    between atoms: CG   and  CD  
REMARK    4  A    between atoms: CD   and  CE  
ROOT
ATOM      1  CA  LYS A 131      29.867  25.555  16.977  1.00 20.52     0.186 C 
ENDROOT
BRANCH   1   2
ATOM      2  CB  LYS A 131      28.345  25.722  17.026  1.00 20.94     0.034 C 
BRANCH   2   3
ATOM      3  CG  LYS A 131      27.601  24.404  16.877  1.00 22.96     0.005 C 
BRANCH   3   4
ATOM      4  CD  LYS A 131      26.165  24.512  17.310  1.00 24.33     0.041 C 
BRANCH   4   5
ATOM      5  CE  LYS A 131      26.026  24.007  18.742  1.00 26.91     0.338 C 
ATOM      6  NZ  LYS A 131      25.027  24.814  19.482  1.00 27.40     0.618 N 
ENDBRANCH   4   5
ENDBRANCH   3   4
ENDBRANCH   2   3
ENDBRANCH   1   2
END_RES LYS A 131
BEGIN_RES LYS A 135
REMARK  4 active torsions:
REMARK  status: ('A' for Active; 'I' for Inactive)
REMARK    5  A    between atoms: CA   and  CB  
REMARK    6  A    between atoms: CB   and  CG  
REMARK    7  A    between atoms: CG   and  CD  
REMARK    8  A    between atoms: CD   and  CE  
ROOT
ATOM      7  CA  LYS A 135      33.193  34.663   9.290  1.00 25.02     0.186 C 
ENDROOT
BRANCH   7   8
ATOM      8  CB  LYS A 135      32.060  35.360  10.034  1.00 26.63     0.034 C 
BRANCH   8   9
ATOM      9  CG  LYS A 135      30.691  34.854   9.658  1.00 29.45     0.005 C 
BRANCH   9  10
ATOM     10  CD  LYS A 135      30.074  35.729   8.578  1.00 32.00     0.041 C 
BRANCH  10  11
ATOM     11  CE  LYS A 135      29.244  34.891   7.624  1.00 34.25     0.338 C 
ATOM     12  NZ  LYS A 135      28.561  35.747   6.614  1.00 35.99     0.618 N 
ENDBRANCH  10  11
ENDBRANCH   9  10
ENDBRANCH   8   9
ENDBRANCH   7   8
END_RES LYS A 135
