REMARK VINA RESULT:    -5.143      3.913     10.474
REMARK INTER + INTRA:         -21.781
REMARK INTER:                 -11.699
REMARK INTRA:                 -10.081
REMARK UNBOUND:                -9.122
REMARK SMILES CC(=O)N[C@@H]1[C@@H](O)C[C@](OC[C@H]2O[C@@H](O[C@H]3[C@H](O)[C@@H](O)[C@H](OCCN=[N+]=[N-])O[C@@H]3CO)[C@H](O)[C@@H](O)[C@H]2O)(C(=O)O)O[C@H]1C(O)[C@H](O)CNC(=O)OCc1cn(-c2ccc(Cl)cc2)nn1
REMARK SMILES IDX 9 1 8 2 6 3 5 4 42 5 41 6 10 7 11 8 12 9 14 10 13 11 32 12
REMARK SMILES IDX 34 13 36 14 15 15 16 16 29 17 28 18 21 19 17 20 19 21 30 22
REMARK SMILES IDX 31 23 22 25 23 26 24 27 25 28 26 29 27 30 18 31 20 33 33 35
REMARK SMILES IDX 35 37 37 39 38 41 39 42 40 43 7 45 43 47 44 48 45 50 46 51
REMARK SMILES IDX 47 53 48 54 49 55 50 57 51 58 52 59 53 60 54 61 64 62 55 63
REMARK SMILES IDX 63 64 56 65 57 66 62 67 58 68 61 69 59 70 60 71 4 72 2 73
REMARK SMILES IDX 1 75 3 76
REMARK H PARENT 31 24 18 32 20 34 33 36 35 38 37 40 40 44 7 46 44 49 46 52
REMARK H PARENT 48 56 4 74
REMARK Flexibility Score: inf
ROOT
ATOM      1  C   UNL     1      26.556  33.601  16.361  1.00  0.00     0.272 C 
ATOM      2  C   UNL     1      26.117  32.289  16.866  1.00  0.00     0.113 C 
ATOM      3  C   UNL     1      25.023  31.571  16.187  1.00  0.00     0.145 C 
ATOM      4  C   UNL     1      24.649  32.276  14.901  1.00  0.00     0.142 C 
ATOM      5  C   UNL     1      24.555  33.768  15.289  1.00  0.00     0.178 C 
ATOM      6  O   UNL     1      25.938  34.125  15.257  1.00  0.00    -0.332 OA
ENDROOT
BRANCH   1   7
ATOM      7  O   UNL     1      27.949  33.496  16.087  1.00  0.00    -0.338 OA
BRANCH   7   8
ATOM      8  C   UNL     1      28.310  32.288  15.557  1.00  0.00     0.199 C 
BRANCH   8   9
ATOM      9  C   UNL     1      29.804  32.021  15.716  1.00  0.00     0.179 C 
ATOM     10  C   UNL     1      31.472  33.271  16.806  1.00  0.00     0.282 C 
ATOM     11  O   UNL     1      30.527  33.169  15.784  1.00  0.00    -0.341 OA
ATOM     12  C   UNL     1      30.773  33.141  18.094  1.00  0.00     0.202 C 
ATOM     13  C   UNL     1      30.109  31.773  18.174  1.00  0.00     0.179 C 
ATOM     14  C   UNL     1      30.078  31.066  16.856  1.00  0.00     0.177 C 
BRANCH  10  15
ATOM     15  O   UNL     1      32.098  34.487  16.541  1.00  0.00    -0.341 OA
BRANCH  15  16
ATOM     16  C   UNL     1      31.576  35.258  15.593  1.00  0.00     0.184 C 
ATOM     17  C   UNL     1      32.563  35.777  14.610  1.00  0.00     0.178 C 
ATOM     18  O   UNL     1      31.929  36.302  13.488  1.00  0.00    -0.341 OA
ATOM     19  C   UNL     1      31.073  37.329  13.722  1.00  0.00     0.281 C 
ATOM     20  C   UNL     1      30.824  36.500  16.116  1.00  0.00     0.180 C 
ATOM     21  C   UNL     1      30.938  37.639  15.168  1.00  0.00     0.202 C 
BRANCH  17  22
ATOM     22  C   UNL     1      33.631  34.832  14.157  1.00  0.00     0.191 C 
BRANCH  22  23
ATOM     23  O   UNL     1      33.679  34.713  12.768  1.00  0.00    -0.394 OA
ATOM     24  H   UNL     1      33.028  34.031  12.479  1.00  0.00     0.210 HD
ENDBRANCH  22  23
ENDBRANCH  17  22
BRANCH  19  25
ATOM     25  O   UNL     1      29.799  37.021  13.231  1.00  0.00    -0.350 OA
BRANCH  25  26
ATOM     26  C   UNL     1      29.799  35.829  12.522  1.00  0.00     0.169 C 
BRANCH  26  27
ATOM     27  C   UNL     1      28.762  34.850  12.980  1.00  0.00     0.119 C 
BRANCH  27  28
ATOM     28  N   UNL     1      27.773  34.746  11.910  1.00  0.00    -0.092 NA
ATOM     29  N   UNL     1      27.001  35.716  11.802  1.00  0.00     0.001 N 
ATOM     30  N   UNL     1      26.463  36.784  11.438  1.00  0.00    -0.003 NA
ENDBRANCH  27  28
ENDBRANCH  26  27
ENDBRANCH  25  26
ENDBRANCH  19  25
BRANCH  20  31
ATOM     31  O   UNL     1      29.497  36.130  16.244  1.00  0.00    -0.387 OA
ATOM     32  H   UNL     1      29.370  35.865  17.210  1.00  0.00     0.211 HD
ENDBRANCH  20  31
BRANCH  21  33
ATOM     33  O   UNL     1      31.939  38.557  15.547  1.00  0.00    -0.385 OA
ATOM     34  H   UNL     1      31.756  39.368  15.022  1.00  0.00     0.211 HD
ENDBRANCH  21  33
ENDBRANCH  15  16
ENDBRANCH  10  15
BRANCH  12  35
ATOM     35  O   UNL     1      31.570  33.295  19.230  1.00  0.00    -0.385 OA
ATOM     36  H   UNL     1      31.501  34.234  19.599  1.00  0.00     0.211 HD
ENDBRANCH  12  35
BRANCH  13  37
ATOM     37  O   UNL     1      28.852  31.935  18.749  1.00  0.00    -0.387 OA
ATOM     38  H   UNL     1      28.646  32.839  19.033  1.00  0.00     0.211 HD
ENDBRANCH  13  37
BRANCH  14  39
ATOM     39  O   UNL     1      28.998  30.150  16.836  1.00  0.00    -0.387 OA
ATOM     40  H   UNL     1      28.318  30.534  16.255  1.00  0.00     0.211 HD
ENDBRANCH  14  39
ENDBRANCH   8   9
ENDBRANCH   7   8
ENDBRANCH   1   7
BRANCH   1  41
ATOM     41  C   UNL     1      26.455  34.604  17.481  1.00  0.00     0.364 C 
ATOM     42  O   UNL     1      26.207  34.259  18.657  1.00  0.00    -0.246 OA
BRANCH  41  43
ATOM     43  O   UNL     1      26.641  35.936  17.205  1.00  0.00    -0.477 OA
ATOM     44  H   UNL     1      27.545  36.349  16.985  1.00  0.00     0.296 HD
ENDBRANCH  41  43
ENDBRANCH   1  41
BRANCH   3  45
ATOM     45  O   UNL     1      25.405  30.276  15.838  1.00  0.00    -0.391 OA
ATOM     46  H   UNL     1      26.092  30.339  15.148  1.00  0.00     0.211 HD
ENDBRANCH   3  45
BRANCH   5  47
ATOM     47  C   UNL     1      23.834  34.589  14.282  1.00  0.00     0.176 C 
BRANCH  47  48
ATOM     48  O   UNL     1      22.475  34.496  14.549  1.00  0.00    -0.388 OA
ATOM     49  H   UNL     1      21.911  35.105  14.014  1.00  0.00     0.211 HD
ENDBRANCH  47  48
BRANCH  47  50
ATOM     50  C   UNL     1      24.245  35.979  14.043  1.00  0.00     0.165 C 
BRANCH  50  51
ATOM     51  O   UNL     1      24.334  36.566  15.358  1.00  0.00    -0.388 OA
ATOM     52  H   UNL     1      24.057  35.907  16.036  1.00  0.00     0.211 HD
ENDBRANCH  50  51
BRANCH  50  53
ATOM     53  C   UNL     1      23.161  36.828  13.394  1.00  0.00     0.154 C 
BRANCH  53  54
ATOM     54  N   UNL     1      23.230  36.878  11.960  1.00  0.00    -0.319 N 
ATOM     55  C   UNL     1      22.333  36.081  11.204  1.00  0.00     0.407 C 
ATOM     56  H   UNL     1      23.915  37.473  11.436  1.00  0.00     0.167 HD
ATOM     57  O   UNL     1      21.485  35.317  11.757  1.00  0.00    -0.225 OA
BRANCH  55  58
ATOM     58  O   UNL     1      22.351  36.110   9.822  1.00  0.00    -0.443 OA
BRANCH  58  59
ATOM     59  C   UNL     1      23.497  35.705   9.069  1.00  0.00     0.294 C 
BRANCH  59  60
ATOM     60  C   UNL     1      24.188  36.898   8.499  1.00  0.00     0.121 A 
ATOM     61  C   UNL     1      25.505  36.928   8.064  1.00  0.00     0.144 A 
ATOM     62  N   UNL     1      23.689  38.127   8.306  1.00  0.00    -0.131 NA
ATOM     63  N   UNL     1      25.763  38.166   7.623  1.00  0.00    -0.220 N 
ATOM     64  N   UNL     1      24.670  38.855   7.778  1.00  0.00    -0.062 NA
BRANCH  63  65
ATOM     65  C   UNL     1      27.037  38.547   7.100  1.00  0.00     0.066 A 
ATOM     66  C   UNL     1      27.608  39.753   7.422  1.00  0.00     0.030 A 
ATOM     67  C   UNL     1      27.719  37.711   6.260  1.00  0.00     0.030 A 
ATOM     68  C   UNL     1      28.851  40.154   6.927  1.00  0.00     0.023 A 
ATOM     69  C   UNL     1      28.956  38.083   5.753  1.00  0.00     0.023 A 
ATOM     70  C   UNL     1      29.529  39.311   6.086  1.00  0.00     0.041 A 
ATOM     71  Cl  UNL     1      31.103  39.773   5.433  1.00  0.00    -0.084 Cl
ENDBRANCH  63  65
ENDBRANCH  59  60
ENDBRANCH  58  59
ENDBRANCH  55  58
ENDBRANCH  53  54
ENDBRANCH  50  53
ENDBRANCH  47  50
ENDBRANCH   5  47
BRANCH   4  72
ATOM     72  N   UNL     1      23.474  31.736  14.332  1.00  0.00    -0.348 N 
ATOM     73  C   UNL     1      23.575  30.786  13.254  1.00  0.00     0.217 C 
ATOM     74  H   UNL     1      22.511  31.954  14.636  1.00  0.00     0.163 HD
ATOM     75  C   UNL     1      22.355  30.196  12.632  1.00  0.00     0.114 C 
ATOM     76  O   UNL     1      24.722  30.465  12.850  1.00  0.00    -0.275 OA
ENDBRANCH   4  72
TORSDOF 30
BEGIN_RES LYS A 131
REMARK  4 active torsions:
REMARK  status: ('A' for Active; 'I' for Inactive)
REMARK    1  A    between atoms: CA   and  CB  
REMARK    2  A    between atoms: CB   and  CG  
REMARK    3  A    between atoms: CG   and  CD  
REMARK    4  A    between atoms: CD   and  CE  
ROOT
ATOM      1  CA  LYS A 131      29.867  25.555  16.977  1.00 20.52     0.186 C 
ENDROOT
BRANCH   1   2
ATOM      2  CB  LYS A 131      28.345  25.722  17.026  1.00 20.94     0.034 C 
BRANCH   2   3
ATOM      3  CG  LYS A 131      27.599  24.439  16.694  1.00 22.96     0.005 C 
BRANCH   3   4
ATOM      4  CD  LYS A 131      27.006  23.796  17.916  1.00 24.33     0.041 C 
BRANCH   4   5
ATOM      5  CE  LYS A 131      25.576  23.356  17.618  1.00 26.91     0.338 C 
ATOM      6  NZ  LYS A 131      24.848  24.420  16.887  1.00 27.40     0.618 N 
ENDBRANCH   4   5
ENDBRANCH   3   4
ENDBRANCH   2   3
ENDBRANCH   1   2
END_RES LYS A 131
BEGIN_RES LYS A 135
REMARK  4 active torsions:
REMARK  status: ('A' for Active; 'I' for Inactive)
REMARK    5  A    between atoms: CA   and  CB  
REMARK    6  A    between atoms: CB   and  CG  
REMARK    7  A    between atoms: CG   and  CD  
REMARK    8  A    between atoms: CD   and  CE  
ROOT
ATOM      7  CA  LYS A 135      33.193  34.663   9.290  1.00 25.02     0.186 C 
ENDROOT
BRANCH   7   8
ATOM      8  CB  LYS A 135      32.060  35.360  10.034  1.00 26.63     0.034 C 
BRANCH   8   9
ATOM      9  CG  LYS A 135      30.864  35.658   9.167  1.00 29.45     0.005 C 
BRANCH   9  10
ATOM     10  CD  LYS A 135      29.981  34.428   9.028  1.00 32.00     0.041 C 
BRANCH  10  11
ATOM     11  CE  LYS A 135      28.771  34.735   8.168  1.00 34.25     0.338 C 
ATOM     12  NZ  LYS A 135      27.553  34.058   8.694  1.00 35.99     0.618 N 
ENDBRANCH  10  11
ENDBRANCH   9  10
ENDBRANCH   8   9
ENDBRANCH   7   8
END_RES LYS A 135
