REMARK VINA RESULT:    -5.409      2.613      6.423
REMARK INTER + INTRA:         -21.420
REMARK INTER:                 -11.715
REMARK INTRA:                  -9.705
REMARK UNBOUND:                -8.107
REMARK SMILES CC(=O)N[C@@H]1[C@@H](O)C[C@](OC[C@H]2O[C@@H](O[C@H]3[C@H](O)[C@@H](O)[C@H](OCCN=[N+]=[N-])O[C@@H]3CO)[C@H](O)[C@@H](O)[C@H]2O)(C(=O)O)O[C@H]1C(O)[C@H](O)CNC(=O)OCc1cn(C2CCN(C)CC2)nn1
REMARK SMILES IDX 9 1 8 2 6 3 5 4 42 5 41 6 10 7 11 8 12 9 14 10 13 11 32 12
REMARK SMILES IDX 34 13 36 14 15 15 16 16 29 17 28 18 21 19 17 20 19 21 30 22
REMARK SMILES IDX 31 23 22 25 23 26 24 27 25 28 26 29 27 30 18 31 20 33 33 35
REMARK SMILES IDX 35 37 37 39 38 41 39 42 40 43 7 45 43 47 44 48 45 50 46 51
REMARK SMILES IDX 47 53 48 54 49 55 50 57 51 58 52 59 53 60 54 61 64 62 55 63
REMARK SMILES IDX 63 64 56 65 57 66 62 67 58 68 61 69 59 70 60 71 4 72 2 73
REMARK SMILES IDX 1 75 3 76
REMARK H PARENT 31 24 18 32 20 34 33 36 35 38 37 40 40 44 7 46 44 49 46 52
REMARK H PARENT 48 56 4 74
REMARK Flexibility Score: inf
ROOT
ATOM      1  C   UNL     1      26.783  38.257   7.823  1.00  0.00     0.272 C 
ATOM      2  C   UNL     1      27.547  37.512   6.743  1.00  0.00     0.113 C 
ATOM      3  C   UNL     1      28.450  38.319   5.908  1.00  0.00     0.145 C 
ATOM      4  C   UNL     1      29.207  39.400   6.649  1.00  0.00     0.142 C 
ATOM      5  C   UNL     1      28.569  39.797   7.924  1.00  0.00     0.178 C 
ATOM      6  O   UNL     1      27.775  38.960   8.580  1.00  0.00    -0.332 OA
ENDROOT
BRANCH   1   7
ATOM      7  O   UNL     1      26.326  37.361   8.713  1.00  0.00    -0.338 OA
BRANCH   7   8
ATOM      8  C   UNL     1      26.664  37.057   9.919  1.00  0.00     0.199 C 
BRANCH   8   9
ATOM      9  C   UNL     1      26.007  37.611  11.145  1.00  0.00     0.179 C 
ATOM     10  C   UNL     1      24.404  36.013  11.907  1.00  0.00     0.282 C 
ATOM     11  O   UNL     1      24.738  37.101  11.174  1.00  0.00    -0.341 OA
ATOM     12  C   UNL     1      25.522  35.382  12.616  1.00  0.00     0.202 C 
ATOM     13  C   UNL     1      26.200  36.511  13.412  1.00  0.00     0.179 C 
ATOM     14  C   UNL     1      26.793  37.422  12.400  1.00  0.00     0.177 C 
BRANCH  10  15
ATOM     15  O   UNL     1      23.657  35.231  11.036  1.00  0.00    -0.341 OA
BRANCH  15  16
ATOM     16  C   UNL     1      22.581  35.782  10.472  1.00  0.00     0.184 C 
ATOM     17  C   UNL     1      21.345  35.014  10.788  1.00  0.00     0.178 C 
ATOM     18  O   UNL     1      20.237  35.835  10.549  1.00  0.00    -0.341 OA
ATOM     19  C   UNL     1      20.119  36.080   9.201  1.00  0.00     0.281 C 
ATOM     20  C   UNL     1      22.621  35.797   8.935  1.00  0.00     0.180 C 
ATOM     21  C   UNL     1      21.373  36.577   8.532  1.00  0.00     0.202 C 
BRANCH  17  22
ATOM     22  C   UNL     1      21.310  34.388  12.139  1.00  0.00     0.191 C 
BRANCH  22  23
ATOM     23  O   UNL     1      21.711  33.064  12.030  1.00  0.00    -0.394 OA
ATOM     24  H   UNL     1      21.017  32.437  12.358  1.00  0.00     0.210 HD
ENDBRANCH  22  23
ENDBRANCH  17  22
BRANCH  19  25
ATOM     25  O   UNL     1      19.178  37.111   9.067  1.00  0.00    -0.350 OA
BRANCH  25  26
ATOM     26  C   UNL     1      19.430  38.206   9.852  1.00  0.00     0.169 C 
BRANCH  26  27
ATOM     27  C   UNL     1      19.127  39.525   9.170  1.00  0.00     0.119 C 
BRANCH  27  28
ATOM     28  N   UNL     1      20.298  40.038   8.485  1.00  0.00    -0.092 NA
ATOM     29  N   UNL     1      20.276  41.133   7.927  1.00  0.00     0.001 N 
ATOM     30  N   UNL     1      20.267  41.929   6.985  1.00  0.00    -0.003 NA
ENDBRANCH  27  28
ENDBRANCH  26  27
ENDBRANCH  25  26
ENDBRANCH  19  25
BRANCH  20  31
ATOM     31  O   UNL     1      23.692  36.483   8.429  1.00  0.00    -0.387 OA
ATOM     32  H   UNL     1      23.387  37.352   8.091  1.00  0.00     0.211 HD
ENDBRANCH  20  31
BRANCH  21  33
ATOM     33  O   UNL     1      21.234  36.538   7.167  1.00  0.00    -0.385 OA
ATOM     34  H   UNL     1      21.466  35.676   6.784  1.00  0.00     0.211 HD
ENDBRANCH  21  33
ENDBRANCH  15  16
ENDBRANCH  10  15
BRANCH  12  35
ATOM     35  O   UNL     1      25.156  34.472  13.606  1.00  0.00    -0.385 OA
ATOM     36  H   UNL     1      25.637  33.618  13.480  1.00  0.00     0.211 HD
ENDBRANCH  12  35
BRANCH  13  37
ATOM     37  O   UNL     1      27.120  36.041  14.315  1.00  0.00    -0.387 OA
ATOM     38  H   UNL     1      26.777  36.234  15.224  1.00  0.00     0.211 HD
ENDBRANCH  13  37
BRANCH  14  39
ATOM     39  O   UNL     1      28.060  36.948  12.070  1.00  0.00    -0.387 OA
ATOM     40  H   UNL     1      28.039  36.184  11.449  1.00  0.00     0.211 HD
ENDBRANCH  14  39
ENDBRANCH   8   9
ENDBRANCH   7   8
ENDBRANCH   1   7
BRANCH   1  41
ATOM     41  C   UNL     1      25.905  39.234   7.196  1.00  0.00     0.364 C 
ATOM     42  O   UNL     1      25.128  39.913   7.983  1.00  0.00    -0.246 OA
BRANCH  41  43
ATOM     43  O   UNL     1      25.740  39.576   5.881  1.00  0.00    -0.477 OA
ATOM     44  H   UNL     1      26.454  40.029   5.310  1.00  0.00     0.296 HD
ENDBRANCH  41  43
ENDBRANCH   1  41
BRANCH   3  45
ATOM     45  O   UNL     1      29.398  37.450   5.289  1.00  0.00    -0.391 OA
ATOM     46  H   UNL     1      30.137  37.960   4.896  1.00  0.00     0.211 HD
ENDBRANCH   3  45
BRANCH   5  47
ATOM     47  C   UNL     1      29.635  40.298   8.938  1.00  0.00     0.176 C 
BRANCH  47  48
ATOM     48  O   UNL     1      30.882  39.822   8.557  1.00  0.00    -0.388 OA
ATOM     49  H   UNL     1      30.930  38.844   8.533  1.00  0.00     0.211 HD
ENDBRANCH  47  48
BRANCH  47  50
ATOM     50  C   UNL     1      29.288  39.893  10.296  1.00  0.00     0.165 C 
BRANCH  50  51
ATOM     51  O   UNL     1      28.169  40.728  10.688  1.00  0.00    -0.388 OA
ATOM     52  H   UNL     1      27.637  40.944   9.885  1.00  0.00     0.211 HD
ENDBRANCH  50  51
BRANCH  50  53
ATOM     53  C   UNL     1      30.273  39.960  11.382  1.00  0.00     0.154 C 
BRANCH  53  54
ATOM     54  N   UNL     1      30.793  38.827  12.022  1.00  0.00    -0.319 N 
ATOM     55  C   UNL     1      31.730  37.899  11.503  1.00  0.00     0.407 C 
ATOM     56  H   UNL     1      30.447  38.626  13.022  1.00  0.00     0.167 HD
ATOM     57  O   UNL     1      32.232  38.046  10.371  1.00  0.00    -0.225 OA
BRANCH  55  58
ATOM     58  O   UNL     1      32.090  36.790  12.301  1.00  0.00    -0.443 OA
BRANCH  58  59
ATOM     59  C   UNL     1      31.850  36.845  13.684  1.00  0.00     0.294 C 
BRANCH  59  60
ATOM     60  C   UNL     1      30.901  35.765  14.044  1.00  0.00     0.120 A 
ATOM     61  C   UNL     1      30.804  35.141  15.301  1.00  0.00     0.138 A 
ATOM     62  N   UNL     1      29.955  35.158  13.314  1.00  0.00    -0.132 NA
ATOM     63  N   UNL     1      29.831  34.214  15.273  1.00  0.00    -0.249 N 
ATOM     64  N   UNL     1      29.336  34.246  14.064  1.00  0.00    -0.067 NA
BRANCH  63  65
ATOM     65  C   UNL     1      29.425  33.363  16.367  1.00  0.00     0.111 C 
ATOM     66  C   UNL     1      28.384  32.415  15.845  1.00  0.00     0.043 C 
ATOM     67  C   UNL     1      30.575  32.577  16.934  1.00  0.00     0.043 C 
ATOM     68  C   UNL     1      29.010  31.056  15.629  1.00  0.00     0.086 C 
ATOM     69  C   UNL     1      30.136  31.372  17.723  1.00  0.00     0.086 C 
ATOM     70  N   UNL     1      29.294  30.486  16.946  1.00  0.00    -0.306 NA
ATOM     71  C   UNL     1      28.025  30.314  17.632  1.00  0.00     0.105 C 
ENDBRANCH  63  65
ENDBRANCH  59  60
ENDBRANCH  58  59
ENDBRANCH  55  58
ENDBRANCH  53  54
ENDBRANCH  50  53
ENDBRANCH  47  50
ENDBRANCH   5  47
BRANCH   4  72
ATOM     72  N   UNL     1      29.461  40.549   5.802  1.00  0.00    -0.348 N 
ATOM     73  C   UNL     1      30.729  40.692   5.195  1.00  0.00     0.217 C 
ATOM     74  H   UNL     1      28.734  41.284   5.623  1.00  0.00     0.163 HD
ATOM     75  C   UNL     1      31.045  41.863   4.314  1.00  0.00     0.114 C 
ATOM     76  O   UNL     1      31.630  39.815   5.393  1.00  0.00    -0.275 OA
ENDBRANCH   4  72
TORSDOF 30
BEGIN_RES LYS A 131
REMARK  4 active torsions:
REMARK  status: ('A' for Active; 'I' for Inactive)
REMARK    1  A    between atoms: CA   and  CB  
REMARK    2  A    between atoms: CB   and  CG  
REMARK    3  A    between atoms: CG   and  CD  
REMARK    4  A    between atoms: CD   and  CE  
ROOT
ATOM      1  CA  LYS A 131      29.867  25.555  16.977  1.00 20.52     0.186 C 
ENDROOT
BRANCH   1   2
ATOM      2  CB  LYS A 131      28.345  25.722  17.026  1.00 20.94     0.034 C 
BRANCH   2   3
ATOM      3  CG  LYS A 131      27.600  24.413  16.815  1.00 22.96     0.005 C 
BRANCH   3   4
ATOM      4  CD  LYS A 131      26.542  24.189  17.860  1.00 24.33     0.041 C 
BRANCH   4   5
ATOM      5  CE  LYS A 131      25.307  25.018  17.519  1.00 26.91     0.338 C 
ATOM      6  NZ  LYS A 131      24.149  24.135  17.245  1.00 27.40     0.618 N 
ENDBRANCH   4   5
ENDBRANCH   3   4
ENDBRANCH   2   3
ENDBRANCH   1   2
END_RES LYS A 131
BEGIN_RES LYS A 135
REMARK  4 active torsions:
REMARK  status: ('A' for Active; 'I' for Inactive)
REMARK    5  A    between atoms: CA   and  CB  
REMARK    6  A    between atoms: CB   and  CG  
REMARK    7  A    between atoms: CG   and  CD  
REMARK    8  A    between atoms: CD   and  CE  
ROOT
ATOM      7  CA  LYS A 135      33.193  34.663   9.290  1.00 25.02     0.186 C 
ENDROOT
BRANCH   7   8
ATOM      8  CB  LYS A 135      32.060  35.360  10.034  1.00 26.63     0.034 C 
BRANCH   8   9
ATOM      9  CG  LYS A 135      30.717  34.705   9.837  1.00 29.45     0.005 C 
BRANCH   9  10
ATOM     10  CD  LYS A 135      30.186  34.981   8.439  1.00 32.00     0.041 C 
BRANCH  10  11
ATOM     11  CE  LYS A 135      28.778  34.438   8.287  1.00 34.25     0.338 C 
ATOM     12  NZ  LYS A 135      28.304  33.815   9.554  1.00 35.99     0.618 N 
ENDBRANCH  10  11
ENDBRANCH   9  10
ENDBRANCH   8   9
ENDBRANCH   7   8
END_RES LYS A 135
