REMARK VINA RESULT:    -4.927      3.311      6.876
REMARK INTER + INTRA:         -21.250
REMARK INTER:                  -9.081
REMARK INTRA:                 -12.169
REMARK UNBOUND:                -9.122
REMARK SMILES CC(=O)N[C@@H]1[C@@H](O)C[C@](OC[C@H]2O[C@@H](O[C@H]3[C@H](O)[C@@H](O)[C@H](OCCN=[N+]=[N-])O[C@@H]3CO)[C@H](O)[C@@H](O)[C@H]2O)(C(=O)O)O[C@H]1C(O)[C@H](O)CNC(=O)OCc1cn(-c2ccc(Cl)cc2)nn1
REMARK SMILES IDX 9 1 8 2 6 3 5 4 42 5 41 6 10 7 11 8 12 9 14 10 13 11 32 12
REMARK SMILES IDX 34 13 36 14 15 15 16 16 29 17 28 18 21 19 17 20 19 21 30 22
REMARK SMILES IDX 31 23 22 25 23 26 24 27 25 28 26 29 27 30 18 31 20 33 33 35
REMARK SMILES IDX 35 37 37 39 38 41 39 42 40 43 7 45 43 47 44 48 45 50 46 51
REMARK SMILES IDX 47 53 48 54 49 55 50 57 51 58 52 59 53 60 54 61 64 62 55 63
REMARK SMILES IDX 63 64 56 65 57 66 62 67 58 68 61 69 59 70 60 71 4 72 2 73
REMARK SMILES IDX 1 75 3 76
REMARK H PARENT 31 24 18 32 20 34 33 36 35 38 37 40 40 44 7 46 44 49 46 52
REMARK H PARENT 48 56 4 74
REMARK Flexibility Score: inf
ROOT
ATOM      1  C   UNL     1      31.062  35.153  13.940  1.00  0.00     0.272 C 
ATOM      2  C   UNL     1      31.146  33.683  13.908  1.00  0.00     0.113 C 
ATOM      3  C   UNL     1      31.221  32.926  15.171  1.00  0.00     0.145 C 
ATOM      4  C   UNL     1      31.000  33.848  16.351  1.00  0.00     0.142 C 
ATOM      5  C   UNL     1      31.892  35.074  16.058  1.00  0.00     0.178 C 
ATOM      6  O   UNL     1      31.049  35.789  15.153  1.00  0.00    -0.332 OA
ENDROOT
BRANCH   1   7
ATOM      7  O   UNL     1      29.885  35.519  13.229  1.00  0.00    -0.338 OA
BRANCH   7   8
ATOM      8  C   UNL     1      28.879  34.598  13.334  1.00  0.00     0.199 C 
BRANCH   8   9
ATOM      9  C   UNL     1      27.529  35.259  13.598  1.00  0.00     0.179 C 
ATOM     10  C   UNL     1      25.345  34.504  13.155  1.00  0.00     0.282 C 
ATOM     11  O   UNL     1      26.594  34.905  12.678  1.00  0.00    -0.341 OA
ATOM     12  C   UNL     1      25.539  33.333  14.024  1.00  0.00     0.202 C 
ATOM     13  C   UNL     1      26.415  33.721  15.208  1.00  0.00     0.179 C 
ATOM     14  C   UNL     1      27.079  35.048  15.027  1.00  0.00     0.177 C 
BRANCH  10  15
ATOM     15  O   UNL     1      24.604  34.316  11.990  1.00  0.00    -0.341 OA
BRANCH  15  16
ATOM     16  C   UNL     1      23.525  35.072  11.815  1.00  0.00     0.184 C 
ATOM     17  C   UNL     1      23.766  36.316  11.038  1.00  0.00     0.178 C 
ATOM     18  O   UNL     1      22.569  36.892  10.625  1.00  0.00    -0.341 OA
ATOM     19  C   UNL     1      21.711  37.242  11.617  1.00  0.00     0.281 C 
ATOM     20  C   UNL     1      22.842  35.528  13.121  1.00  0.00     0.180 C 
ATOM     21  C   UNL     1      22.214  36.866  12.964  1.00  0.00     0.202 C 
BRANCH  17  22
ATOM     22  C   UNL     1      24.679  36.213   9.857  1.00  0.00     0.191 C 
BRANCH  22  23
ATOM     23  O   UNL     1      26.018  36.386  10.205  1.00  0.00    -0.394 OA
ATOM     24  H   UNL     1      26.584  35.885   9.572  1.00  0.00     0.210 HD
ENDBRANCH  22  23
ENDBRANCH  17  22
BRANCH  19  25
ATOM     25  O   UNL     1      20.473  36.616  11.432  1.00  0.00    -0.350 OA
BRANCH  25  26
ATOM     26  C   UNL     1      20.345  36.107  10.149  1.00  0.00     0.169 C 
BRANCH  26  27
ATOM     27  C   UNL     1      19.578  34.822  10.080  1.00  0.00     0.119 C 
BRANCH  27  28
ATOM     28  N   UNL     1      19.836  34.105  11.327  1.00  0.00    -0.092 NA
ATOM     29  N   UNL     1      19.128  33.099  11.518  1.00  0.00     0.001 N 
ATOM     30  N   UNL     1      18.708  31.924  11.578  1.00  0.00    -0.003 NA
ENDBRANCH  27  28
ENDBRANCH  26  27
ENDBRANCH  25  26
ENDBRANCH  19  25
BRANCH  20  31
ATOM     31  O   UNL     1      21.870  34.585  13.406  1.00  0.00    -0.387 OA
ATOM     32  H   UNL     1      21.666  34.679  14.390  1.00  0.00     0.211 HD
ENDBRANCH  20  31
BRANCH  21  33
ATOM     33  O   UNL     1      23.021  37.904  13.471  1.00  0.00    -0.385 OA
ATOM     34  H   UNL     1      22.586  38.735  13.177  1.00  0.00     0.211 HD
ENDBRANCH  21  33
ENDBRANCH  15  16
ENDBRANCH  10  15
BRANCH  12  35
ATOM     35  O   UNL     1      24.372  32.757  14.529  1.00  0.00    -0.385 OA
ATOM     36  H   UNL     1      23.563  33.044  13.994  1.00  0.00     0.211 HD
ENDBRANCH  12  35
BRANCH  13  37
ATOM     37  O   UNL     1      27.308  32.678  15.445  1.00  0.00    -0.387 OA
ATOM     38  H   UNL     1      27.797  32.741  16.280  1.00  0.00     0.211 HD
ENDBRANCH  13  37
BRANCH  14  39
ATOM     39  O   UNL     1      28.268  35.091  15.797  1.00  0.00    -0.387 OA
ATOM     40  H   UNL     1      29.000  34.890  15.188  1.00  0.00     0.211 HD
ENDBRANCH  14  39
ENDBRANCH   8   9
ENDBRANCH   7   8
ENDBRANCH   1   7
BRANCH   1  41
ATOM     41  C   UNL     1      32.198  35.716  13.124  1.00  0.00     0.364 C 
ATOM     42  O   UNL     1      32.207  36.905  12.736  1.00  0.00    -0.246 OA
BRANCH  41  43
ATOM     43  O   UNL     1      33.254  34.902  12.796  1.00  0.00    -0.477 OA
ATOM     44  H   UNL     1      33.746  34.315  13.466  1.00  0.00     0.296 HD
ENDBRANCH  41  43
ENDBRANCH   1  41
BRANCH   3  45
ATOM     45  O   UNL     1      30.230  31.947  15.236  1.00  0.00    -0.391 OA
ATOM     46  H   UNL     1      30.118  31.690  16.170  1.00  0.00     0.211 HD
ENDBRANCH   3  45
BRANCH   5  47
ATOM     47  C   UNL     1      32.126  35.925  17.254  1.00  0.00     0.176 C 
BRANCH  47  48
ATOM     48  O   UNL     1      33.375  35.604  17.768  1.00  0.00    -0.388 OA
ATOM     49  H   UNL     1      33.403  34.756  18.275  1.00  0.00     0.211 HD
ENDBRANCH  47  48
BRANCH  47  50
ATOM     50  C   UNL     1      31.934  37.379  17.165  1.00  0.00     0.165 C 
BRANCH  50  51
ATOM     51  O   UNL     1      32.948  37.936  18.028  1.00  0.00    -0.388 OA
ATOM     52  H   UNL     1      33.550  38.513  17.503  1.00  0.00     0.211 HD
ENDBRANCH  50  51
BRANCH  50  53
ATOM     53  C   UNL     1      30.655  37.863  17.832  1.00  0.00     0.154 C 
BRANCH  53  54
ATOM     54  N   UNL     1      29.450  37.461  17.161  1.00  0.00    -0.319 N 
ATOM     55  C   UNL     1      28.287  38.260  17.307  1.00  0.00     0.407 C 
ATOM     56  H   UNL     1      29.381  36.601  16.567  1.00  0.00     0.167 HD
ATOM     57  O   UNL     1      28.278  39.307  18.023  1.00  0.00    -0.225 OA
BRANCH  55  58
ATOM     58  O   UNL     1      27.111  37.921  16.666  1.00  0.00    -0.443 OA
BRANCH  58  59
ATOM     59  C   UNL     1      26.371  38.866  15.887  1.00  0.00     0.294 C 
BRANCH  59  60
ATOM     60  C   UNL     1      26.741  38.747  14.447  1.00  0.00     0.121 A 
ATOM     61  C   UNL     1      28.007  38.976  13.925  1.00  0.00     0.144 A 
ATOM     62  N   UNL     1      25.953  38.411  13.416  1.00  0.00    -0.131 NA
ATOM     63  N   UNL     1      27.948  38.772  12.602  1.00  0.00    -0.220 N 
ATOM     64  N   UNL     1      26.719  38.439  12.329  1.00  0.00    -0.062 NA
BRANCH  63  65
ATOM     65  C   UNL     1      29.083  38.922  11.748  1.00  0.00     0.066 A 
ATOM     66  C   UNL     1      29.223  38.170  10.609  1.00  0.00     0.030 A 
ATOM     67  C   UNL     1      30.063  39.827  12.051  1.00  0.00     0.030 A 
ATOM     68  C   UNL     1      30.321  38.294   9.754  1.00  0.00     0.023 A 
ATOM     69  C   UNL     1      31.165  39.971  11.221  1.00  0.00     0.023 A 
ATOM     70  C   UNL     1      31.298  39.201  10.064  1.00  0.00     0.041 A 
ATOM     71  Cl  UNL     1      32.706  39.394   9.016  1.00  0.00    -0.084 Cl
ENDBRANCH  63  65
ENDBRANCH  59  60
ENDBRANCH  58  59
ENDBRANCH  55  58
ENDBRANCH  53  54
ENDBRANCH  50  53
ENDBRANCH  47  50
ENDBRANCH   5  47
BRANCH   4  72
ATOM     72  N   UNL     1      31.269  33.198  17.577  1.00  0.00    -0.348 N 
ATOM     73  C   UNL     1      30.176  32.714  18.381  1.00  0.00     0.217 C 
ATOM     74  H   UNL     1      32.210  33.018  17.962  1.00  0.00     0.163 HD
ATOM     75  C   UNL     1      30.424  32.025  19.680  1.00  0.00     0.114 C 
ATOM     76  O   UNL     1      29.004  32.888  17.959  1.00  0.00    -0.275 OA
ENDBRANCH   4  72
TORSDOF 30
BEGIN_RES LYS A 131
REMARK  4 active torsions:
REMARK  status: ('A' for Active; 'I' for Inactive)
REMARK    1  A    between atoms: CA   and  CB  
REMARK    2  A    between atoms: CB   and  CG  
REMARK    3  A    between atoms: CG   and  CD  
REMARK    4  A    between atoms: CD   and  CE  
ROOT
ATOM      1  CA  LYS A 131      29.867  25.555  16.977  1.00 20.52     0.186 C 
ENDROOT
BRANCH   1   2
ATOM      2  CB  LYS A 131      28.345  25.722  17.026  1.00 20.94     0.034 C 
BRANCH   2   3
ATOM      3  CG  LYS A 131      27.601  24.401  16.900  1.00 22.96     0.005 C 
BRANCH   3   4
ATOM      4  CD  LYS A 131      26.194  24.492  17.420  1.00 24.33     0.041 C 
BRANCH   4   5
ATOM      5  CE  LYS A 131      25.859  23.228  18.206  1.00 26.91     0.338 C 
ATOM      6  NZ  LYS A 131      25.403  23.573  19.573  1.00 27.40     0.618 N 
ENDBRANCH   4   5
ENDBRANCH   3   4
ENDBRANCH   2   3
ENDBRANCH   1   2
END_RES LYS A 131
BEGIN_RES LYS A 135
REMARK  4 active torsions:
REMARK  status: ('A' for Active; 'I' for Inactive)
REMARK    5  A    between atoms: CA   and  CB  
REMARK    6  A    between atoms: CB   and  CG  
REMARK    7  A    between atoms: CG   and  CD  
REMARK    8  A    between atoms: CD   and  CE  
ROOT
ATOM      7  CA  LYS A 135      33.193  34.663   9.290  1.00 25.02     0.186 C 
ENDROOT
BRANCH   7   8
ATOM      8  CB  LYS A 135      32.060  35.360  10.034  1.00 26.63     0.034 C 
BRANCH   8   9
ATOM      9  CG  LYS A 135      30.739  34.642   9.929  1.00 29.45     0.005 C 
BRANCH   9  10
ATOM     10  CD  LYS A 135      30.306  34.524   8.476  1.00 32.00     0.041 C 
BRANCH  10  11
ATOM     11  CE  LYS A 135      28.793  34.556   8.367  1.00 34.25     0.338 C 
ATOM     12  NZ  LYS A 135      28.159  33.826   9.500  1.00 35.99     0.618 N 
ENDBRANCH  10  11
ENDBRANCH   9  10
ENDBRANCH   8   9
ENDBRANCH   7   8
END_RES LYS A 135
