REMARK VINA RESULT:    -4.533      4.746      9.243
REMARK INTER + INTRA:         -23.196
REMARK INTER:                 -14.528
REMARK INTRA:                  -8.668
REMARK UNBOUND:               -11.507
REMARK SMILES COc1ccc(Cn2cc(COC(=O)NC[C@@H](O)C(O)[C@@H]3O[C@@](OC[C@H]4O[C@@H](O[C@H]5[C@H](O)[C@@H](O)[C@H](OCCN=[N+]=[N-])O[C@@H]5CO)[C@H](O)[C@@H](O)[C@H]4O)(C(=O)O)C[C@H](O)[C@H]3NC(C)=O)nn2)cc1
REMARK SMILES IDX 23 1 55 2 56 3 58 4 21 5 22 6 24 7 25 8 26 9 28 10 27 11
REMARK SMILES IDX 46 12 48 13 50 14 29 15 30 16 43 17 42 18 35 19 31 20 33 21
REMARK SMILES IDX 44 22 45 23 36 25 37 26 38 27 39 28 40 29 41 30 32 31 34 33
REMARK SMILES IDX 47 35 49 37 51 39 52 41 53 42 54 43 57 45 19 47 20 48 17 50
REMARK SMILES IDX 18 51 16 53 15 54 13 55 14 57 12 58 11 59 10 60 9 61 63 62
REMARK SMILES IDX 8 63 64 64 7 65 6 66 5 67 65 68 4 69 66 70 3 71 2 72 1 73
REMARK SMILES IDX 59 74 60 75 61 77 62 78
REMARK H PARENT 45 24 32 32 34 34 47 36 49 38 51 40 54 44 57 46 20 49 18 52
REMARK H PARENT 15 56 59 76
REMARK Flexibility Score: inf
ROOT
ATOM      1  C   UNL     1      29.465  33.132  15.934  1.00  0.00     0.272 C 
ATOM      2  C   UNL     1      28.944  31.715  15.812  1.00  0.00     0.113 C 
ATOM      3  C   UNL     1      29.366  30.906  17.022  1.00  0.00     0.145 C 
ATOM      4  C   UNL     1      29.147  31.614  18.327  1.00  0.00     0.142 C 
ATOM      5  C   UNL     1      28.637  33.036  18.163  1.00  0.00     0.178 C 
ATOM      6  O   UNL     1      29.270  33.697  17.128  1.00  0.00    -0.332 OA
ENDROOT
BRANCH   1   7
ATOM      7  O   UNL     1      29.212  33.866  14.826  1.00  0.00    -0.338 OA
BRANCH   7   8
ATOM      8  C   UNL     1      28.581  35.045  14.843  1.00  0.00     0.199 C 
BRANCH   8   9
ATOM      9  C   UNL     1      27.421  35.115  13.873  1.00  0.00     0.179 C 
ATOM     10  C   UNL     1      27.076  35.053  11.624  1.00  0.00     0.282 C 
ATOM     11  O   UNL     1      27.757  34.412  12.682  1.00  0.00    -0.341 OA
ATOM     12  C   UNL     1      25.688  35.420  11.999  1.00  0.00     0.202 C 
ATOM     13  C   UNL     1      25.130  34.785  13.227  1.00  0.00     0.179 C 
ATOM     14  C   UNL     1      26.134  34.543  14.336  1.00  0.00     0.177 C 
BRANCH  10  15
ATOM     15  O   UNL     1      27.262  34.413  10.431  1.00  0.00    -0.341 OA
BRANCH  15  16
ATOM     16  C   UNL     1      27.865  35.135   9.423  1.00  0.00     0.184 C 
ATOM     17  C   UNL     1      27.112  35.154   8.115  1.00  0.00     0.178 C 
ATOM     18  O   UNL     1      27.989  35.298   7.040  1.00  0.00    -0.341 OA
ATOM     19  C   UNL     1      29.123  36.064   7.360  1.00  0.00     0.281 C 
ATOM     20  C   UNL     1      29.142  34.347   9.076  1.00  0.00     0.180 C 
ATOM     21  C   UNL     1      30.038  35.302   8.337  1.00  0.00     0.202 C 
BRANCH  17  22
ATOM     22  C   UNL     1      26.087  36.236   7.991  1.00  0.00     0.191 C 
BRANCH  22  23
ATOM     23  O   UNL     1      26.232  37.134   9.046  1.00  0.00    -0.394 OA
ATOM     24  H   UNL     1      25.314  37.356   9.371  1.00  0.00     0.210 HD
ENDBRANCH  22  23
ENDBRANCH  17  22
BRANCH  19  25
ATOM     25  O   UNL     1      28.850  37.311   7.821  1.00  0.00    -0.350 OA
BRANCH  25  26
ATOM     26  C   UNL     1      29.822  38.263   7.794  1.00  0.00     0.169 C 
BRANCH  26  27
ATOM     27  C   UNL     1      30.586  38.514   9.039  1.00  0.00     0.119 C 
BRANCH  27  28
ATOM     28  N   UNL     1      29.887  39.262  10.027  1.00  0.00    -0.092 NA
ATOM     29  N   UNL     1      28.755  38.984  10.449  1.00  0.00     0.001 N 
ATOM     30  N   UNL     1      27.863  38.589  11.234  1.00  0.00    -0.003 NA
ENDBRANCH  27  28
ENDBRANCH  26  27
ENDBRANCH  25  26
ENDBRANCH  19  25
BRANCH  20  31
ATOM     31  O   UNL     1      29.708  33.762  10.174  1.00  0.00    -0.387 OA
ATOM     32  H   UNL     1      30.603  34.171  10.405  1.00  0.00     0.211 HD
ENDBRANCH  20  31
BRANCH  21  33
ATOM     33  O   UNL     1      31.058  34.630   7.662  1.00  0.00    -0.385 OA
ATOM     34  H   UNL     1      31.927  35.054   7.888  1.00  0.00     0.211 HD
ENDBRANCH  21  33
ENDBRANCH  15  16
ENDBRANCH  10  15
BRANCH  12  35
ATOM     35  O   UNL     1      25.508  36.826  12.056  1.00  0.00    -0.385 OA
ATOM     36  H   UNL     1      25.885  37.238  11.220  1.00  0.00     0.211 HD
ENDBRANCH  12  35
BRANCH  13  37
ATOM     37  O   UNL     1      24.416  33.600  12.925  1.00  0.00    -0.387 OA
ATOM     38  H   UNL     1      25.068  32.854  12.893  1.00  0.00     0.211 HD
ENDBRANCH  13  37
BRANCH  14  39
ATOM     39  O   UNL     1      26.218  33.194  14.669  1.00  0.00    -0.387 OA
ATOM     40  H   UNL     1      25.405  32.694  14.412  1.00  0.00     0.211 HD
ENDBRANCH  14  39
ENDBRANCH   8   9
ENDBRANCH   7   8
ENDBRANCH   1   7
BRANCH   1  41
ATOM     41  C   UNL     1      31.002  32.914  15.737  1.00  0.00     0.364 C 
ATOM     42  O   UNL     1      31.807  33.418  16.550  1.00  0.00    -0.246 OA
BRANCH  41  43
ATOM     43  O   UNL     1      31.517  32.194  14.714  1.00  0.00    -0.477 OA
ATOM     44  H   UNL     1      31.370  31.244  14.478  1.00  0.00     0.296 HD
ENDBRANCH  41  43
ENDBRANCH   1  41
BRANCH   3  45
ATOM     45  O   UNL     1      28.536  29.749  16.958  1.00  0.00    -0.391 OA
ATOM     46  H   UNL     1      27.903  29.741  17.721  1.00  0.00     0.211 HD
ENDBRANCH   3  45
BRANCH   5  47
ATOM     47  C   UNL     1      27.159  32.983  18.157  1.00  0.00     0.176 C 
BRANCH  47  48
ATOM     48  O   UNL     1      26.548  34.098  17.512  1.00  0.00    -0.388 OA
ATOM     49  H   UNL     1      25.595  33.891  17.408  1.00  0.00     0.211 HD
ENDBRANCH  47  48
BRANCH  47  50
ATOM     50  C   UNL     1      26.521  33.190  19.563  1.00  0.00     0.165 C 
BRANCH  50  51
ATOM     51  O   UNL     1      26.736  32.248  20.488  1.00  0.00    -0.388 OA
ATOM     52  H   UNL     1      27.303  31.518  20.134  1.00  0.00     0.211 HD
ENDBRANCH  50  51
BRANCH  50  53
ATOM     53  C   UNL     1      25.011  33.406  19.322  1.00  0.00     0.154 C 
BRANCH  53  54
ATOM     54  N   UNL     1      24.427  32.386  18.515  1.00  0.00    -0.319 N 
ATOM     55  C   UNL     1      23.814  31.252  19.143  1.00  0.00     0.407 C 
ATOM     56  H   UNL     1      24.435  32.440  17.491  1.00  0.00     0.167 HD
ATOM     57  O   UNL     1      23.801  31.181  20.403  1.00  0.00    -0.225 OA
BRANCH  55  58
ATOM     58  O   UNL     1      23.258  30.277  18.335  1.00  0.00    -0.443 OA
BRANCH  58  59
ATOM     59  C   UNL     1      24.117  29.312  17.697  1.00  0.00     0.294 C 
BRANCH  59  60
ATOM     60  C   UNL     1      24.270  29.703  16.280  1.00  0.00     0.120 A 
ATOM     61  C   UNL     1      23.675  29.093  15.170  1.00  0.00     0.138 A 
ATOM     62  N   UNL     1      25.011  30.700  15.784  1.00  0.00    -0.132 NA
ATOM     63  N   UNL     1      24.092  29.753  14.084  1.00  0.00    -0.248 N 
ATOM     64  N   UNL     1      24.902  30.727  14.470  1.00  0.00    -0.067 NA
BRANCH  63  65
ATOM     65  C   UNL     1      23.726  29.458  12.721  1.00  0.00     0.181 C 
BRANCH  65  66
ATOM     66  C   UNL     1      22.322  29.866  12.498  1.00  0.00    -0.026 A 
ATOM     67  C   UNL     1      21.372  28.906  12.161  1.00  0.00     0.009 A 
ATOM     68  C   UNL     1      21.894  31.161  12.624  1.00  0.00     0.009 A 
ATOM     69  C   UNL     1      20.047  29.227  11.959  1.00  0.00     0.047 A 
ATOM     70  C   UNL     1      20.549  31.486  12.419  1.00  0.00     0.047 A 
ATOM     71  C   UNL     1      19.618  30.540  12.088  1.00  0.00     0.118 A 
BRANCH  71  72
ATOM     72  O   UNL     1      18.279  30.812  11.875  1.00  0.00    -0.497 OA
ATOM     73  C   UNL     1      17.595  30.580  10.678  1.00  0.00     0.278 C 
ENDBRANCH  71  72
ENDBRANCH  65  66
ENDBRANCH  63  65
ENDBRANCH  59  60
ENDBRANCH  58  59
ENDBRANCH  55  58
ENDBRANCH  53  54
ENDBRANCH  50  53
ENDBRANCH  47  50
ENDBRANCH   5  47
BRANCH   4  74
ATOM     74  N   UNL     1      30.250  31.537  19.260  1.00  0.00    -0.348 N 
ATOM     75  C   UNL     1      30.511  30.429  20.113  1.00  0.00     0.217 C 
ATOM     76  H   UNL     1      30.894  32.338  19.337  1.00  0.00     0.163 HD
ATOM     77  C   UNL     1      31.694  30.461  21.056  1.00  0.00     0.114 C 
ATOM     78  O   UNL     1      29.759  29.427  20.081  1.00  0.00    -0.275 OA
ENDBRANCH   4  74
TORSDOF 32
BEGIN_RES LYS A 131
REMARK  4 active torsions:
REMARK  status: ('A' for Active; 'I' for Inactive)
REMARK    1  A    between atoms: CA   and  CB  
REMARK    2  A    between atoms: CB   and  CG  
REMARK    3  A    between atoms: CG   and  CD  
REMARK    4  A    between atoms: CD   and  CE  
ROOT
ATOM      1  CA  LYS A 131      29.867  25.555  16.977  1.00 20.52     0.186 C 
ENDROOT
BRANCH   1   2
ATOM      2  CB  LYS A 131      28.345  25.722  17.026  1.00 20.94     0.034 C 
BRANCH   2   3
ATOM      3  CG  LYS A 131      27.602  24.398  16.931  1.00 22.96     0.005 C 
BRANCH   3   4
ATOM      4  CD  LYS A 131      26.329  24.404  17.730  1.00 24.33     0.041 C 
BRANCH   4   5
ATOM      5  CE  LYS A 131      26.368  25.546  18.741  1.00 26.91     0.338 C 
ATOM      6  NZ  LYS A 131      25.493  25.245  19.899  1.00 27.40     0.618 N 
ENDBRANCH   4   5
ENDBRANCH   3   4
ENDBRANCH   2   3
ENDBRANCH   1   2
END_RES LYS A 131
BEGIN_RES LYS A 135
REMARK  4 active torsions:
REMARK  status: ('A' for Active; 'I' for Inactive)
REMARK    5  A    between atoms: CA   and  CB  
REMARK    6  A    between atoms: CB   and  CG  
REMARK    7  A    between atoms: CG   and  CD  
REMARK    8  A    between atoms: CD   and  CE  
ROOT
ATOM      7  CA  LYS A 135      33.193  34.663   9.290  1.00 25.02     0.186 C 
ENDROOT
BRANCH   7   8
ATOM      8  CB  LYS A 135      32.060  35.360  10.034  1.00 26.63     0.034 C 
BRANCH   8   9
ATOM      9  CG  LYS A 135      32.499  36.027  11.312  1.00 29.45     0.005 C 
BRANCH   9  10
ATOM     10  CD  LYS A 135      31.764  35.438  12.505  1.00 32.00     0.041 C 
BRANCH  10  11
ATOM     11  CE  LYS A 135      32.600  35.568  13.764  1.00 34.25     0.338 C 
ATOM     12  NZ  LYS A 135      32.024  36.584  14.688  1.00 35.99     0.618 N 
ENDBRANCH  10  11
ENDBRANCH   9  10
ENDBRANCH   8   9
ENDBRANCH   7   8
END_RES LYS A 135
