REMARK VINA RESULT:    -5.715      0.000      0.000
REMARK INTER + INTRA:         -26.252
REMARK INTER:                 -13.808
REMARK INTRA:                 -12.444
REMARK UNBOUND:               -11.349
REMARK SMILES CC(=O)N[C@@H]1[C@@H](O)C[C@](OC[C@H]2O[C@@H](O[C@H]3[C@H](O)[C@@H](O)[C@H](OCCN=[N+]=[N-])O[C@@H]3CO)[C@H](O)[C@@H](O)[C@H]2O)(C(=O)O)O[C@H]1C(O)[C@H](O)CNC(=O)OCc1cn(-c2ccc(-c3c4ccc(=O)cc-4oc4cc(O)ccc34)c(C(=O)[O-])c2)nn1
REMARK SMILES IDX 9 1 8 2 6 3 5 4 42 5 41 6 10 7 11 8 12 9 14 10 13 11 32 12
REMARK SMILES IDX 34 13 36 14 15 15 16 16 29 17 28 18 21 19 17 20 19 21 30 22
REMARK SMILES IDX 31 23 22 25 23 26 24 27 25 28 26 29 27 30 18 31 20 33 33 35
REMARK SMILES IDX 35 37 37 39 38 41 39 42 40 43 7 45 43 47 44 48 45 50 46 51
REMARK SMILES IDX 47 53 48 54 49 55 50 57 51 58 52 59 53 60 54 61 82 62 55 63
REMARK SMILES IDX 81 64 56 65 80 66 57 67 76 68 58 69 59 70 77 71 78 72 79 73
REMARK SMILES IDX 60 74 75 75 61 76 74 77 69 78 67 79 62 80 73 81 70 82 68 83
REMARK SMILES IDX 66 84 63 85 71 86 64 87 65 88 72 89 4 91 2 92 1 94 3 95
REMARK H PARENT 31 24 18 32 20 34 33 36 35 38 37 40 40 44 7 46 44 49 46 52
REMARK H PARENT 48 56 72 90 4 93
REMARK Flexibility Score: inf
ROOT
ATOM      1  C   UNL     1      28.140  39.926   5.984  1.00  0.00     0.272 C 
ATOM      2  C   UNL     1      28.071  38.855   4.923  1.00  0.00     0.113 C 
ATOM      3  C   UNL     1      28.218  37.465   5.473  1.00  0.00     0.145 C 
ATOM      4  C   UNL     1      28.781  37.574   6.867  1.00  0.00     0.142 C 
ATOM      5  C   UNL     1      29.890  38.591   6.805  1.00  0.00     0.178 C 
ATOM      6  O   UNL     1      29.355  39.852   6.707  1.00  0.00    -0.332 OA
ENDROOT
BRANCH   1   7
ATOM      7  O   UNL     1      27.093  39.969   6.861  1.00  0.00    -0.338 OA
BRANCH   7   8
ATOM      8  C   UNL     1      25.889  40.203   6.297  1.00  0.00     0.199 C 
BRANCH   8   9
ATOM      9  C   UNL     1      24.759  40.180   7.337  1.00  0.00     0.179 C 
ATOM     10  C   UNL     1      22.849  39.024   7.915  1.00  0.00     0.282 C 
ATOM     11  O   UNL     1      23.686  39.474   6.932  1.00  0.00    -0.341 OA
ATOM     12  C   UNL     1      22.817  39.841   9.146  1.00  0.00     0.202 C 
ATOM     13  C   UNL     1      24.193  40.136   9.694  1.00  0.00     0.179 C 
ATOM     14  C   UNL     1      25.254  39.762   8.672  1.00  0.00     0.177 C 
BRANCH  10  15
ATOM     15  O   UNL     1      23.107  37.663   8.069  1.00  0.00    -0.341 OA
BRANCH  15  16
ATOM     16  C   UNL     1      22.103  36.979   8.671  1.00  0.00     0.184 C 
ATOM     17  C   UNL     1      22.509  35.600   9.091  1.00  0.00     0.178 C 
ATOM     18  O   UNL     1      21.624  35.108  10.061  1.00  0.00    -0.341 OA
ATOM     19  C   UNL     1      20.305  35.394   9.730  1.00  0.00     0.281 C 
ATOM     20  C   UNL     1      20.891  36.756   7.748  1.00  0.00     0.180 C 
ATOM     21  C   UNL     1      20.105  35.570   8.267  1.00  0.00     0.202 C 
BRANCH  17  22
ATOM     22  C   UNL     1      23.888  35.617   9.676  1.00  0.00     0.191 C 
BRANCH  22  23
ATOM     23  O   UNL     1      23.975  36.667  10.592  1.00  0.00    -0.394 OA
ATOM     24  H   UNL     1      24.074  36.261  11.482  1.00  0.00     0.210 HD
ENDBRANCH  22  23
ENDBRANCH  17  22
BRANCH  19  25
ATOM     25  O   UNL     1      19.829  36.470  10.449  1.00  0.00    -0.350 OA
BRANCH  25  26
ATOM     26  C   UNL     1      20.105  36.414  11.809  1.00  0.00     0.169 C 
BRANCH  26  27
ATOM     27  C   UNL     1      19.875  37.814  12.351  1.00  0.00     0.119 C 
BRANCH  27  28
ATOM     28  N   UNL     1      20.107  38.821  11.351  1.00  0.00    -0.092 NA
ATOM     29  N   UNL     1      20.374  39.973  11.719  1.00  0.00     0.001 N 
ATOM     30  N   UNL     1      20.889  41.083  11.850  1.00  0.00    -0.003 NA
ENDBRANCH  27  28
ENDBRANCH  26  27
ENDBRANCH  25  26
ENDBRANCH  19  25
BRANCH  20  31
ATOM     31  O   UNL     1      20.086  37.884   7.882  1.00  0.00    -0.387 OA
ATOM     32  H   UNL     1      19.941  38.371   7.042  1.00  0.00     0.211 HD
ENDBRANCH  20  31
BRANCH  21  33
ATOM     33  O   UNL     1      20.345  34.400   7.546  1.00  0.00    -0.385 OA
ATOM     34  H   UNL     1      20.953  33.851   8.131  1.00  0.00     0.211 HD
ENDBRANCH  21  33
ENDBRANCH  15  16
ENDBRANCH  10  15
BRANCH  12  35
ATOM     35  O   UNL     1      22.134  41.062   8.914  1.00  0.00    -0.385 OA
ATOM     36  H   UNL     1      22.536  41.496   8.102  1.00  0.00     0.211 HD
ENDBRANCH  12  35
BRANCH  13  37
ATOM     37  O   UNL     1      24.408  39.550  10.931  1.00  0.00    -0.387 OA
ATOM     38  H   UNL     1      24.830  38.672  10.780  1.00  0.00     0.211 HD
ENDBRANCH  13  37
BRANCH  14  39
ATOM     39  O   UNL     1      25.504  38.402   8.800  1.00  0.00    -0.387 OA
ATOM     40  H   UNL     1      26.443  38.333   9.140  1.00  0.00     0.211 HD
ENDBRANCH  14  39
ENDBRANCH   8   9
ENDBRANCH   7   8
ENDBRANCH   1   7
BRANCH   1  41
ATOM     41  C   UNL     1      28.300  41.221   5.209  1.00  0.00     0.364 C 
ATOM     42  O   UNL     1      28.572  42.312   5.740  1.00  0.00    -0.246 OA
BRANCH  41  43
ATOM     43  O   UNL     1      28.139  41.224   3.826  1.00  0.00    -0.477 OA
ATOM     44  H   UNL     1      28.838  40.818   3.220  1.00  0.00     0.296 HD
ENDBRANCH  41  43
ENDBRANCH   1  41
BRANCH   3  45
ATOM     45  O   UNL     1      27.002  36.811   5.401  1.00  0.00    -0.391 OA
ATOM     46  H   UNL     1      26.380  37.271   6.017  1.00  0.00     0.211 HD
ENDBRANCH   3  45
BRANCH   5  47
ATOM     47  C   UNL     1      30.706  38.577   8.101  1.00  0.00     0.176 C 
BRANCH  47  48
ATOM     48  O   UNL     1      29.798  38.420   9.176  1.00  0.00    -0.388 OA
ATOM     49  H   UNL     1      29.443  39.266   9.493  1.00  0.00     0.211 HD
ENDBRANCH  47  48
BRANCH  47  50
ATOM     50  C   UNL     1      31.379  39.891   8.325  1.00  0.00     0.165 C 
BRANCH  50  51
ATOM     51  O   UNL     1      32.064  40.278   7.171  1.00  0.00    -0.388 OA
ATOM     52  H   UNL     1      31.762  39.706   6.419  1.00  0.00     0.211 HD
ENDBRANCH  50  51
BRANCH  50  53
ATOM     53  C   UNL     1      32.258  39.971   9.523  1.00  0.00     0.154 C 
BRANCH  53  54
ATOM     54  N   UNL     1      31.510  39.878  10.756  1.00  0.00    -0.319 N 
ATOM     55  C   UNL     1      30.936  40.982  11.429  1.00  0.00     0.407 C 
ATOM     56  H   UNL     1      31.349  38.939  11.234  1.00  0.00     0.167 HD
ATOM     57  O   UNL     1      31.059  42.130  10.959  1.00  0.00    -0.225 OA
BRANCH  55  58
ATOM     58  O   UNL     1      30.225  40.854  12.615  1.00  0.00    -0.443 OA
BRANCH  58  59
ATOM     59  C   UNL     1      28.818  41.109  12.693  1.00  0.00     0.294 C 
BRANCH  59  60
ATOM     60  C   UNL     1      28.152  39.850  12.271  1.00  0.00     0.121 A 
ATOM     61  C   UNL     1      27.777  38.807  13.071  1.00  0.00     0.144 A 
ATOM     62  N   UNL     1      27.788  39.497  11.006  1.00  0.00    -0.131 NA
ATOM     63  N   UNL     1      27.203  37.851  12.311  1.00  0.00    -0.220 N 
ATOM     64  N   UNL     1      27.227  38.303  11.060  1.00  0.00    -0.062 NA
BRANCH  63  65
ATOM     65  C   UNL     1      26.683  36.617  12.782  1.00  0.00     0.067 A 
ATOM     66  C   UNL     1      25.973  36.524  13.955  1.00  0.00     0.039 A 
ATOM     67  C   UNL     1      26.894  35.484  12.037  1.00  0.00     0.029 A 
ATOM     68  C   UNL     1      25.485  35.305  14.366  1.00  0.00     0.007 A 
ATOM     69  C   UNL     1      26.404  34.264  12.451  1.00  0.00     0.012 A 
ATOM     70  C   UNL     1      25.691  34.146  13.622  1.00  0.00    -0.008 A 
BRANCH  68  71
ATOM     71  C   UNL     1      24.724  35.170  15.610  1.00  0.00     0.072 C 
ATOM     72  O   UNL     1      23.470  35.206  15.630  1.00  0.00    -0.545 OA
ATOM     73  O   UNL     1      25.398  34.999  16.794  1.00  0.00    -0.545 OA
ENDBRANCH  68  71
BRANCH  70  74
ATOM     74  C   UNL     1      25.168  32.867  14.065  1.00  0.00     0.004 A 
ATOM     75  C   UNL     1      25.930  32.093  14.904  1.00  0.00     0.026 A 
ATOM     76  C   UNL     1      23.939  32.404  13.671  1.00  0.00     0.026 A 
ATOM     77  C   UNL     1      27.173  32.476  15.349  1.00  0.00     0.016 A 
ATOM     78  C   UNL     1      25.417  30.868  15.316  1.00  0.00     0.139 A 
ATOM     79  C   UNL     1      23.435  31.094  14.138  1.00  0.00     0.139 A 
ATOM     80  C   UNL     1      23.121  33.121  12.835  1.00  0.00     0.016 A 
ATOM     81  C   UNL     1      27.933  31.688  16.194  1.00  0.00     0.047 A 
ATOM     82  C   UNL     1      26.177  30.091  16.156  1.00  0.00     0.093 A 
ATOM     83  O   UNL     1      24.233  30.430  14.933  1.00  0.00    -0.456 OA
ATOM     84  C   UNL     1      22.205  30.635  13.741  1.00  0.00     0.099 A 
ATOM     85  C   UNL     1      21.882  32.645  12.443  1.00  0.00     0.053 A 
ATOM     86  C   UNL     1      27.432  30.473  16.608  1.00  0.00     0.119 A 
ATOM     87  C   UNL     1      21.446  31.415  12.901  1.00  0.00     0.182 A 
ATOM     88  O   UNL     1      20.309  31.037  12.508  1.00  0.00    -0.290 OA
BRANCH  86  89
ATOM     89  O   UNL     1      28.200  29.690  17.456  1.00  0.00    -0.508 OA
ATOM     90  H   UNL     1      28.839  29.034  17.014  1.00  0.00     0.293 HD
ENDBRANCH  86  89
ENDBRANCH  70  74
ENDBRANCH  63  65
ENDBRANCH  59  60
ENDBRANCH  58  59
ENDBRANCH  55  58
ENDBRANCH  53  54
ENDBRANCH  50  53
ENDBRANCH  47  50
ENDBRANCH   5  47
BRANCH   4  91
ATOM     91  N   UNL     1      29.237  36.302   7.384  1.00  0.00    -0.348 N 
ATOM     92  C   UNL     1      28.363  35.549   8.193  1.00  0.00     0.217 C 
ATOM     93  H   UNL     1      30.184  35.911   7.188  1.00  0.00     0.163 HD
ATOM     94  C   UNL     1      28.724  34.234   8.777  1.00  0.00     0.114 C 
ATOM     95  O   UNL     1      27.188  35.973   8.471  1.00  0.00    -0.275 OA
ENDBRANCH   4  91
TORSDOF 33
BEGIN_RES LYS A 131
REMARK  4 active torsions:
REMARK  status: ('A' for Active; 'I' for Inactive)
REMARK    1  A    between atoms: CA   and  CB  
REMARK    2  A    between atoms: CB   and  CG  
REMARK    3  A    between atoms: CG   and  CD  
REMARK    4  A    between atoms: CD   and  CE  
ROOT
ATOM      1  CA  LYS A 131      29.867  25.555  16.977  1.00 20.52     0.186 C 
ENDROOT
BRANCH   1   2
ATOM      2  CB  LYS A 131      28.345  25.722  17.026  1.00 20.94     0.034 C 
BRANCH   2   3
ATOM      3  CG  LYS A 131      27.602  24.400  16.916  1.00 22.96     0.005 C 
BRANCH   3   4
ATOM      4  CD  LYS A 131      26.151  24.532  17.290  1.00 24.33     0.041 C 
BRANCH   4   5
ATOM      5  CE  LYS A 131      26.040  25.066  18.714  1.00 26.91     0.338 C 
ATOM      6  NZ  LYS A 131      25.495  24.026  19.618  1.00 27.40     0.618 N 
ENDBRANCH   4   5
ENDBRANCH   3   4
ENDBRANCH   2   3
ENDBRANCH   1   2
END_RES LYS A 131
BEGIN_RES LYS A 135
REMARK  4 active torsions:
REMARK  status: ('A' for Active; 'I' for Inactive)
REMARK    5  A    between atoms: CA   and  CB  
REMARK    6  A    between atoms: CB   and  CG  
REMARK    7  A    between atoms: CG   and  CD  
REMARK    8  A    between atoms: CD   and  CE  
ROOT
ATOM      7  CA  LYS A 135      33.193  34.663   9.290  1.00 25.02     0.186 C 
ENDROOT
BRANCH   7   8
ATOM      8  CB  LYS A 135      32.060  35.360  10.034  1.00 26.63     0.034 C 
BRANCH   8   9
ATOM      9  CG  LYS A 135      32.529  36.206  11.189  1.00 29.45     0.005 C 
BRANCH   9  10
ATOM     10  CD  LYS A 135      32.047  35.626  12.510  1.00 32.00     0.041 C 
BRANCH  10  11
ATOM     11  CE  LYS A 135      30.537  35.485  12.511  1.00 34.25     0.338 C 
ATOM     12  NZ  LYS A 135      30.106  34.327  13.342  1.00 35.99     0.618 N 
ENDBRANCH  10  11
ENDBRANCH   9  10
ENDBRANCH   8   9
ENDBRANCH   7   8
END_RES LYS A 135
