REMARK VINA RESULT:    -5.010      3.105      7.195
REMARK INTER + INTRA:         -24.398
REMARK INTER:                 -13.631
REMARK INTRA:                 -10.767
REMARK UNBOUND:               -11.187
REMARK SMILES CC(=O)N[C@@H]1[C@@H](O)C[C@](OC[C@H]2O[C@@H](O[C@H]3[C@H](O)[C@@H](O)[C@H](OCCN=[N+]=[N-])O[C@@H]3CO)[C@H](O)[C@@H](O)[C@H]2O)(C(=O)O)O[C@H]1C(O)[C@H](O)CNC(=O)OCc1cn(-c2ccc(S(=O)(=O)Nc3nccs3)cc2)nn1
REMARK SMILES IDX 43 1 42 2 9 3 8 4 41 5 6 6 5 7 10 8 11 9 12 10 14 11 13 12
REMARK SMILES IDX 32 13 34 14 36 15 15 16 16 17 29 18 28 19 21 20 17 21 19 22
REMARK SMILES IDX 30 23 31 24 22 26 23 27 24 28 25 29 26 30 27 31 18 32 20 34
REMARK SMILES IDX 33 36 35 38 37 40 38 42 39 43 40 44 7 46 4 48 2 49 1 51 3 52
REMARK SMILES IDX 44 53 45 55 46 56 47 58 48 59 49 60 50 62 51 63 52 64 53 65
REMARK SMILES IDX 54 66 72 67 55 68 71 69 56 70 57 71 70 72 58 73 69 74 59 75
REMARK SMILES IDX 60 76 61 77 62 78 63 79 64 81 65 82 68 83 66 84 67 85
REMARK H PARENT 31 25 18 33 20 35 33 37 35 39 37 41 40 45 7 47 4 50 44 54
REMARK H PARENT 46 57 48 61 63 80
REMARK Flexibility Score: inf
ROOT
ATOM      1  C   UNL     1      31.905  27.683  21.360  1.00  0.00     0.176 C 
ENDROOT
BRANCH   1   2
ATOM      2  C   UNL     1      31.557  29.035  21.887  1.00  0.00     0.178 C 
ATOM      3  C   UNL     1      30.056  30.712  21.255  1.00  0.00     0.272 C 
ATOM      4  C   UNL     1      30.686  31.290  22.541  1.00  0.00     0.113 C 
ATOM      5  O   UNL     1      30.740  29.598  20.857  1.00  0.00    -0.332 OA
ATOM      6  C   UNL     1      32.166  31.320  22.506  1.00  0.00     0.145 C 
ATOM      7  C   UNL     1      32.719  29.995  21.976  1.00  0.00     0.142 C 
BRANCH   3   8
ATOM      8  O   UNL     1      30.114  31.641  20.247  1.00  0.00    -0.338 OA
BRANCH   8   9
ATOM      9  C   UNL     1      30.582  31.169  19.047  1.00  0.00     0.199 C 
BRANCH   9  10
ATOM     10  C   UNL     1      29.956  31.849  17.851  1.00  0.00     0.179 C 
ATOM     11  C   UNL     1      30.208  32.686  15.797  1.00  0.00     0.282 C 
ATOM     12  O   UNL     1      30.725  31.726  16.699  1.00  0.00    -0.341 OA
ATOM     13  C   UNL     1      28.960  32.080  15.204  1.00  0.00     0.202 C 
ATOM     14  C   UNL     1      28.508  30.886  16.052  1.00  0.00     0.179 C 
ATOM     15  C   UNL     1      28.602  31.240  17.524  1.00  0.00     0.177 C 
BRANCH  11  16
ATOM     16  O   UNL     1      31.088  33.025  14.826  1.00  0.00    -0.341 OA
BRANCH  16  17
ATOM     17  C   UNL     1      31.418  34.366  14.750  1.00  0.00     0.184 C 
ATOM     18  C   UNL     1      30.769  35.285  15.704  1.00  0.00     0.178 C 
ATOM     19  O   UNL     1      30.689  36.566  15.089  1.00  0.00    -0.341 OA
ATOM     20  C   UNL     1      29.659  36.594  14.138  1.00  0.00     0.281 C 
ATOM     21  C   UNL     1      31.274  34.883  13.325  1.00  0.00     0.180 C 
ATOM     22  C   UNL     1      29.907  35.527  13.088  1.00  0.00     0.202 C 
BRANCH  18  23
ATOM     23  C   UNL     1      31.573  35.567  16.974  1.00  0.00     0.191 C 
BRANCH  23  24
ATOM     24  O   UNL     1      32.224  34.484  17.481  1.00  0.00    -0.394 OA
ATOM     25  H   UNL     1      32.816  34.092  16.799  1.00  0.00     0.210 HD
ENDBRANCH  23  24
ENDBRANCH  18  23
BRANCH  20  26
ATOM     26  O   UNL     1      29.645  37.846  13.567  1.00  0.00    -0.350 OA
BRANCH  26  27
ATOM     27  C   UNL     1      29.056  37.927  12.331  1.00  0.00     0.169 C 
BRANCH  27  28
ATOM     28  C   UNL     1      27.753  38.690  12.329  1.00  0.00     0.119 C 
BRANCH  28  29
ATOM     29  N   UNL     1      26.869  38.026  11.406  1.00  0.00    -0.092 NA
ATOM     30  N   UNL     1      26.908  36.803  11.306  1.00  0.00     0.001 N 
ATOM     31  N   UNL     1      27.142  35.684  10.844  1.00  0.00    -0.003 NA
ENDBRANCH  28  29
ENDBRANCH  27  28
ENDBRANCH  26  27
ENDBRANCH  20  26
BRANCH  21  32
ATOM     32  O   UNL     1      32.227  35.864  13.053  1.00  0.00    -0.387 OA
ATOM     33  H   UNL     1      33.031  35.478  12.636  1.00  0.00     0.211 HD
ENDBRANCH  21  32
BRANCH  22  34
ATOM     34  O   UNL     1      28.900  34.573  13.032  1.00  0.00    -0.385 OA
ATOM     35  H   UNL     1      29.126  33.878  13.690  1.00  0.00     0.211 HD
ENDBRANCH  22  34
ENDBRANCH  16  17
ENDBRANCH  11  16
BRANCH  13  36
ATOM     36  O   UNL     1      27.855  32.966  15.271  1.00  0.00    -0.385 OA
ATOM     37  H   UNL     1      27.013  32.490  15.317  1.00  0.00     0.211 HD
ENDBRANCH  13  36
BRANCH  14  38
ATOM     38  O   UNL     1      29.232  29.750  15.723  1.00  0.00    -0.387 OA
ATOM     39  H   UNL     1      28.822  28.926  16.095  1.00  0.00     0.211 HD
ENDBRANCH  14  38
BRANCH  15  40
ATOM     40  O   UNL     1      28.368  30.086  18.254  1.00  0.00    -0.387 OA
ATOM     41  H   UNL     1      28.037  30.234  19.155  1.00  0.00     0.211 HD
ENDBRANCH  15  40
ENDBRANCH   9  10
ENDBRANCH   8   9
ENDBRANCH   3   8
BRANCH   3  42
ATOM     42  C   UNL     1      28.674  30.388  21.614  1.00  0.00     0.364 C 
ATOM     43  O   UNL     1      28.028  31.055  22.487  1.00  0.00    -0.246 OA
BRANCH  42  44
ATOM     44  O   UNL     1      27.973  29.345  21.036  1.00  0.00    -0.477 OA
ATOM     45  H   UNL     1      28.303  28.940  20.150  1.00  0.00     0.296 HD
ENDBRANCH  42  44
ENDBRANCH   3  42
BRANCH   6  46
ATOM     46  O   UNL     1      32.679  32.395  21.780  1.00  0.00    -0.391 OA
ATOM     47  H   UNL     1      32.013  33.123  21.758  1.00  0.00     0.211 HD
ENDBRANCH   6  46
BRANCH   7  48
ATOM     48  N   UNL     1      33.819  29.571  22.768  1.00  0.00    -0.348 N 
ATOM     49  C   UNL     1      35.095  30.181  22.604  1.00  0.00     0.217 C 
ATOM     50  H   UNL     1      33.732  28.821  23.480  1.00  0.00     0.163 HD
ATOM     51  C   UNL     1      36.284  29.803  23.385  1.00  0.00     0.114 C 
ATOM     52  O   UNL     1      35.228  31.110  21.735  1.00  0.00    -0.275 OA
ENDBRANCH   7  48
ENDBRANCH   1   2
BRANCH   1  53
ATOM     53  O   UNL     1      32.237  27.817  19.975  1.00  0.00    -0.388 OA
ATOM     54  H   UNL     1      32.368  26.942  19.565  1.00  0.00     0.211 HD
ENDBRANCH   1  53
BRANCH   1  55
ATOM     55  C   UNL     1      30.860  26.614  21.501  1.00  0.00     0.165 C 
BRANCH  55  56
ATOM     56  O   UNL     1      29.884  26.963  20.507  1.00  0.00    -0.388 OA
ATOM     57  H   UNL     1      28.985  26.954  20.927  1.00  0.00     0.211 HD
ENDBRANCH  55  56
BRANCH  55  58
ATOM     58  C   UNL     1      30.083  26.753  22.804  1.00  0.00     0.154 C 
BRANCH  58  59
ATOM     59  N   UNL     1      28.699  26.928  22.449  1.00  0.00    -0.319 N 
ATOM     60  C   UNL     1      27.621  26.433  23.229  1.00  0.00     0.407 C 
ATOM     61  H   UNL     1      28.427  27.456  21.557  1.00  0.00     0.167 HD
ATOM     62  O   UNL     1      27.830  25.828  24.288  1.00  0.00    -0.225 OA
BRANCH  60  63
ATOM     63  O   UNL     1      26.301  26.607  22.831  1.00  0.00    -0.443 OA
BRANCH  63  64
ATOM     64  C   UNL     1      25.684  26.001  21.728  1.00  0.00     0.294 C 
BRANCH  64  65
ATOM     65  C   UNL     1      25.921  26.666  20.436  1.00  0.00     0.121 A 
ATOM     66  C   UNL     1      24.941  27.140  19.558  1.00  0.00     0.144 A 
ATOM     67  N   UNL     1      27.074  26.961  19.837  1.00  0.00    -0.131 NA
ATOM     68  N   UNL     1      25.528  27.701  18.469  1.00  0.00    -0.220 N 
ATOM     69  N   UNL     1      26.827  27.576  18.669  1.00  0.00    -0.062 NA
BRANCH  68  70
ATOM     70  C   UNL     1      24.825  28.295  17.364  1.00  0.00     0.066 A 
ATOM     71  C   UNL     1      23.627  27.819  16.916  1.00  0.00     0.030 A 
ATOM     72  C   UNL     1      25.402  29.383  16.733  1.00  0.00     0.030 A 
ATOM     73  C   UNL     1      22.993  28.424  15.832  1.00  0.00     0.024 A 
ATOM     74  C   UNL     1      24.817  30.013  15.661  1.00  0.00     0.024 A 
ATOM     75  C   UNL     1      23.599  29.502  15.231  1.00  0.00     0.088 A 
BRANCH  75  76
ATOM     76  S   UNL     1      22.833  30.277  13.867  1.00  0.00     0.263 S 
ATOM     77  O   UNL     1      21.598  29.471  13.514  1.00  0.00    -0.201 OA
ATOM     78  O   UNL     1      23.787  30.170  12.711  1.00  0.00    -0.201 OA
BRANCH  76  79
ATOM     79  N   UNL     1      22.463  31.895  14.246  1.00  0.00    -0.255 N 
ATOM     80  H   UNL     1      22.112  32.109  15.196  1.00  0.00     0.182 HD
BRANCH  79  81
ATOM     81  C   UNL     1      22.633  32.884  13.292  1.00  0.00     0.196 A 
ATOM     82  N   UNL     1      21.974  33.485  12.379  1.00  0.00    -0.228 NA
ATOM     83  S   UNL     1      24.265  33.749  13.097  1.00  0.00    -0.105 S 
ATOM     84  C   UNL     1      22.416  34.408  11.607  1.00  0.00     0.125 A 
ATOM     85  C   UNL     1      23.713  34.828  11.731  1.00  0.00     0.089 A 
ENDBRANCH  79  81
ENDBRANCH  76  79
ENDBRANCH  75  76
ENDBRANCH  68  70
ENDBRANCH  64  65
ENDBRANCH  63  64
ENDBRANCH  60  63
ENDBRANCH  58  59
ENDBRANCH  55  58
ENDBRANCH   1  55
TORSDOF 33
BEGIN_RES LYS A 131
REMARK  4 active torsions:
REMARK  status: ('A' for Active; 'I' for Inactive)
REMARK    1  A    between atoms: CA   and  CB  
REMARK    2  A    between atoms: CB   and  CG  
REMARK    3  A    between atoms: CG   and  CD  
REMARK    4  A    between atoms: CD   and  CE  
ROOT
ATOM      1  CA  LYS A 131      29.867  25.555  16.977  1.00 20.52     0.186 C 
ENDROOT
BRANCH   1   2
ATOM      2  CB  LYS A 131      28.345  25.722  17.026  1.00 20.94     0.034 C 
BRANCH   2   3
ATOM      3  CG  LYS A 131      27.599  24.441  16.686  1.00 22.96     0.005 C 
BRANCH   3   4
ATOM      4  CD  LYS A 131      26.212  24.422  17.267  1.00 24.33     0.041 C 
BRANCH   4   5
ATOM      5  CE  LYS A 131      26.207  23.594  18.548  1.00 26.91     0.338 C 
ATOM      6  NZ  LYS A 131      24.817  23.315  18.980  1.00 27.40     0.618 N 
ENDBRANCH   4   5
ENDBRANCH   3   4
ENDBRANCH   2   3
ENDBRANCH   1   2
END_RES LYS A 131
BEGIN_RES LYS A 135
REMARK  4 active torsions:
REMARK  status: ('A' for Active; 'I' for Inactive)
REMARK    5  A    between atoms: CA   and  CB  
REMARK    6  A    between atoms: CB   and  CG  
REMARK    7  A    between atoms: CG   and  CD  
REMARK    8  A    between atoms: CD   and  CE  
ROOT
ATOM      7  CA  LYS A 135      33.193  34.663   9.290  1.00 25.02     0.186 C 
ENDROOT
BRANCH   7   8
ATOM      8  CB  LYS A 135      32.060  35.360  10.034  1.00 26.63     0.034 C 
BRANCH   8   9
ATOM      9  CG  LYS A 135      30.690  34.864   9.647  1.00 29.45     0.005 C 
BRANCH   9  10
ATOM     10  CD  LYS A 135      30.193  35.580   8.400  1.00 32.00     0.041 C 
BRANCH  10  11
ATOM     11  CE  LYS A 135      28.980  34.873   7.829  1.00 34.25     0.338 C 
ATOM     12  NZ  LYS A 135      28.479  35.566   6.610  1.00 35.99     0.618 N 
ENDBRANCH  10  11
ENDBRANCH   9  10
ENDBRANCH   8   9
ENDBRANCH   7   8
END_RES LYS A 135
