REMARK VINA RESULT:    -5.425      4.114     11.247
REMARK INTER + INTRA:         -21.461
REMARK INTER:                 -12.098
REMARK INTRA:                  -9.363
REMARK UNBOUND:                -8.107
REMARK SMILES CC(=O)N[C@@H]1[C@@H](O)C[C@](OC[C@H]2O[C@@H](O[C@H]3[C@H](O)[C@@H](O)[C@H](OCCN=[N+]=[N-])O[C@@H]3CO)[C@H](O)[C@@H](O)[C@H]2O)(C(=O)O)O[C@H]1C(O)[C@H](O)CNC(=O)OCc1cn(C2CCN(C)CC2)nn1
REMARK SMILES IDX 9 1 8 2 6 3 5 4 42 5 41 6 10 7 11 8 12 9 14 10 13 11 32 12
REMARK SMILES IDX 34 13 36 14 15 15 16 16 29 17 28 18 21 19 17 20 19 21 30 22
REMARK SMILES IDX 31 23 22 25 23 26 24 27 25 28 26 29 27 30 18 31 20 33 33 35
REMARK SMILES IDX 35 37 37 39 38 41 39 42 40 43 7 45 43 47 44 48 45 50 46 51
REMARK SMILES IDX 47 53 48 54 49 55 50 57 51 58 52 59 53 60 54 61 64 62 55 63
REMARK SMILES IDX 63 64 56 65 57 66 62 67 58 68 61 69 59 70 60 71 4 72 2 73
REMARK SMILES IDX 1 75 3 76
REMARK H PARENT 31 24 18 32 20 34 33 36 35 38 37 40 40 44 7 46 44 49 46 52
REMARK H PARENT 48 56 4 74
REMARK Flexibility Score: inf
ROOT
ATOM      1  C   UNL     1      25.995  38.284   9.016  1.00  0.00     0.272 C 
ATOM      2  C   UNL     1      24.830  39.244   9.173  1.00  0.00     0.113 C 
ATOM      3  C   UNL     1      23.503  38.728   8.800  1.00  0.00     0.145 C 
ATOM      4  C   UNL     1      23.249  37.287   9.187  1.00  0.00     0.142 C 
ATOM      5  C   UNL     1      24.488  36.507   9.400  1.00  0.00     0.178 C 
ATOM      6  O   UNL     1      25.622  37.106   9.742  1.00  0.00    -0.332 OA
ENDROOT
BRANCH   1   7
ATOM      7  O   UNL     1      27.027  38.750   9.737  1.00  0.00    -0.338 OA
BRANCH   7   8
ATOM      8  C   UNL     1      27.780  38.231  10.647  1.00  0.00     0.199 C 
BRANCH   8   9
ATOM      9  C   UNL     1      27.648  38.509  12.112  1.00  0.00     0.179 C 
ATOM     10  C   UNL     1      29.466  37.439  13.230  1.00  0.00     0.282 C 
ATOM     11  O   UNL     1      28.195  37.439  12.764  1.00  0.00    -0.341 OA
ATOM     12  C   UNL     1      30.234  38.651  12.924  1.00  0.00     0.202 C 
ATOM     13  C   UNL     1      29.369  39.826  13.412  1.00  0.00     0.179 C 
ATOM     14  C   UNL     1      28.172  39.842  12.532  1.00  0.00     0.177 C 
BRANCH  10  15
ATOM     15  O   UNL     1      29.981  36.217  12.819  1.00  0.00    -0.341 OA
BRANCH  15  16
ATOM     16  C   UNL     1      30.269  35.315  13.759  1.00  0.00     0.184 C 
ATOM     17  C   UNL     1      31.595  34.680  13.518  1.00  0.00     0.178 C 
ATOM     18  O   UNL     1      32.027  34.087  14.710  1.00  0.00    -0.341 OA
ATOM     19  C   UNL     1      31.218  33.020  15.022  1.00  0.00     0.281 C 
ATOM     20  C   UNL     1      29.295  34.127  13.804  1.00  0.00     0.180 C 
ATOM     21  C   UNL     1      29.743  33.316  15.017  1.00  0.00     0.202 C 
BRANCH  17  22
ATOM     22  C   UNL     1      32.627  35.567  12.914  1.00  0.00     0.191 C 
BRANCH  22  23
ATOM     23  O   UNL     1      33.784  34.829  12.702  1.00  0.00    -0.394 OA
ATOM     24  H   UNL     1      33.609  33.853  12.709  1.00  0.00     0.210 HD
ENDBRANCH  22  23
ENDBRANCH  17  22
BRANCH  19  25
ATOM     25  O   UNL     1      31.532  32.657  16.339  1.00  0.00    -0.350 OA
BRANCH  25  26
ATOM     26  C   UNL     1      31.310  33.646  17.262  1.00  0.00     0.169 C 
BRANCH  26  27
ATOM     27  C   UNL     1      30.731  33.140  18.567  1.00  0.00     0.119 C 
BRANCH  27  28
ATOM     28  N   UNL     1      30.154  31.819  18.404  1.00  0.00    -0.092 NA
ATOM     29  N   UNL     1      30.166  31.005  19.325  1.00  0.00     0.001 N 
ATOM     30  N   UNL     1      30.502  29.993  19.943  1.00  0.00    -0.003 NA
ENDBRANCH  27  28
ENDBRANCH  26  27
ENDBRANCH  25  26
ENDBRANCH  19  25
BRANCH  20  31
ATOM     31  O   UNL     1      27.999  34.500  14.038  1.00  0.00    -0.387 OA
ATOM     32  H   UNL     1      27.401  33.936  13.501  1.00  0.00     0.211 HD
ENDBRANCH  20  31
BRANCH  21  33
ATOM     33  O   UNL     1      29.021  32.150  15.075  1.00  0.00    -0.385 OA
ATOM     34  H   UNL     1      29.007  31.667  14.232  1.00  0.00     0.211 HD
ENDBRANCH  21  33
ENDBRANCH  15  16
ENDBRANCH  10  15
BRANCH  12  35
ATOM     35  O   UNL     1      31.414  38.803  13.649  1.00  0.00    -0.385 OA
ATOM     36  H   UNL     1      32.055  38.087  13.414  1.00  0.00     0.211 HD
ENDBRANCH  12  35
BRANCH  13  37
ATOM     37  O   UNL     1      30.050  41.017  13.411  1.00  0.00    -0.387 OA
ATOM     38  H   UNL     1      30.489  41.115  12.528  1.00  0.00     0.211 HD
ENDBRANCH  13  37
BRANCH  14  39
ATOM     39  O   UNL     1      28.472  40.587  11.394  1.00  0.00    -0.387 OA
ATOM     40  H   UNL     1      28.841  41.476  11.599  1.00  0.00     0.211 HD
ENDBRANCH  14  39
ENDBRANCH   8   9
ENDBRANCH   7   8
ENDBRANCH   1   7
BRANCH   1  41
ATOM     41  C   UNL     1      26.136  37.933   7.611  1.00  0.00     0.364 C 
ATOM     42  O   UNL     1      26.625  36.760   7.346  1.00  0.00    -0.246 OA
BRANCH  41  43
ATOM     43  O   UNL     1      25.840  38.641   6.477  1.00  0.00    -0.477 OA
ATOM     44  H   UNL     1      24.897  38.771   6.109  1.00  0.00     0.296 HD
ENDBRANCH  41  43
ENDBRANCH   1  41
BRANCH   3  45
ATOM     45  O   UNL     1      22.506  39.541   9.417  1.00  0.00    -0.391 OA
ATOM     46  H   UNL     1      22.901  40.359   9.786  1.00  0.00     0.211 HD
ENDBRANCH   3  45
BRANCH   5  47
ATOM     47  C   UNL     1      24.250  35.368  10.431  1.00  0.00     0.176 C 
BRANCH  47  48
ATOM     48  O   UNL     1      22.972  34.856  10.252  1.00  0.00    -0.388 OA
ATOM     49  H   UNL     1      22.559  34.554  11.087  1.00  0.00     0.211 HD
ENDBRANCH  47  48
BRANCH  47  50
ATOM     50  C   UNL     1      24.460  35.850  11.792  1.00  0.00     0.165 C 
BRANCH  50  51
ATOM     51  O   UNL     1      25.860  35.616  12.086  1.00  0.00    -0.388 OA
ATOM     52  H   UNL     1      26.056  35.954  12.993  1.00  0.00     0.211 HD
ENDBRANCH  50  51
BRANCH  50  53
ATOM     53  C   UNL     1      23.689  35.306  12.916  1.00  0.00     0.154 C 
BRANCH  53  54
ATOM     54  N   UNL     1      23.802  33.981  13.357  1.00  0.00    -0.319 N 
ATOM     55  C   UNL     1      22.922  32.905  13.084  1.00  0.00     0.407 C 
ATOM     56  H   UNL     1      24.649  33.741  13.978  1.00  0.00     0.167 HD
ATOM     57  O   UNL     1      21.927  33.049  12.347  1.00  0.00    -0.225 OA
BRANCH  55  58
ATOM     58  O   UNL     1      23.195  31.648  13.671  1.00  0.00    -0.443 OA
BRANCH  58  59
ATOM     59  C   UNL     1      24.463  31.074  13.481  1.00  0.00     0.294 C 
BRANCH  59  60
ATOM     60  C   UNL     1      25.263  31.275  14.713  1.00  0.00     0.120 A 
ATOM     61  C   UNL     1      25.510  30.304  15.700  1.00  0.00     0.138 A 
ATOM     62  N   UNL     1      25.916  32.357  15.161  1.00  0.00    -0.132 NA
ATOM     63  N   UNL     1      26.279  30.829  16.670  1.00  0.00    -0.249 N 
ATOM     64  N   UNL     1      26.509  32.067  16.319  1.00  0.00    -0.067 NA
BRANCH  63  65
ATOM     65  C   UNL     1      26.750  30.149  17.854  1.00  0.00     0.111 C 
ATOM     66  C   UNL     1      25.575  29.966  18.772  1.00  0.00     0.043 C 
ATOM     67  C   UNL     1      27.348  28.805  17.539  1.00  0.00     0.043 C 
ATOM     68  C   UNL     1      25.102  28.533  18.698  1.00  0.00     0.086 C 
ATOM     69  C   UNL     1      27.412  27.892  18.734  1.00  0.00     0.086 C 
ATOM     70  N   UNL     1      26.114  27.700  19.346  1.00  0.00    -0.306 NA
ATOM     71  C   UNL     1      26.183  28.099  20.741  1.00  0.00     0.105 C 
ENDBRANCH  63  65
ENDBRANCH  59  60
ENDBRANCH  58  59
ENDBRANCH  55  58
ENDBRANCH  53  54
ENDBRANCH  50  53
ENDBRANCH  47  50
ENDBRANCH   5  47
BRANCH   4  72
ATOM     72  N   UNL     1      22.364  36.630   8.245  1.00  0.00    -0.348 N 
ATOM     73  C   UNL     1      20.988  36.525   8.548  1.00  0.00     0.217 C 
ATOM     74  H   UNL     1      22.709  36.226   7.340  1.00  0.00     0.163 HD
ATOM     75  C   UNL     1      20.031  35.853   7.610  1.00  0.00     0.114 C 
ATOM     76  O   UNL     1      20.539  37.008   9.637  1.00  0.00    -0.275 OA
ENDBRANCH   4  72
TORSDOF 30
BEGIN_RES LYS A 131
REMARK  4 active torsions:
REMARK  status: ('A' for Active; 'I' for Inactive)
REMARK    1  A    between atoms: CA   and  CB  
REMARK    2  A    between atoms: CB   and  CG  
REMARK    3  A    between atoms: CG   and  CD  
REMARK    4  A    between atoms: CD   and  CE  
ROOT
ATOM      1  CA  LYS A 131      29.867  25.555  16.977  1.00 20.52     0.186 C 
ENDROOT
BRANCH   1   2
ATOM      2  CB  LYS A 131      28.345  25.722  17.026  1.00 20.94     0.034 C 
BRANCH   2   3
ATOM      3  CG  LYS A 131      27.602  24.398  16.932  1.00 22.96     0.005 C 
BRANCH   3   4
ATOM      4  CD  LYS A 131      26.521  24.281  17.970  1.00 24.33     0.041 C 
BRANCH   4   5
ATOM      5  CE  LYS A 131      25.195  24.750  17.379  1.00 26.91     0.338 C 
ATOM      6  NZ  LYS A 131      24.355  23.588  17.003  1.00 27.40     0.618 N 
ENDBRANCH   4   5
ENDBRANCH   3   4
ENDBRANCH   2   3
ENDBRANCH   1   2
END_RES LYS A 131
BEGIN_RES LYS A 135
REMARK  4 active torsions:
REMARK  status: ('A' for Active; 'I' for Inactive)
REMARK    5  A    between atoms: CA   and  CB  
REMARK    6  A    between atoms: CB   and  CG  
REMARK    7  A    between atoms: CG   and  CD  
REMARK    8  A    between atoms: CD   and  CE  
ROOT
ATOM      7  CA  LYS A 135      33.193  34.663   9.290  1.00 25.02     0.186 C 
ENDROOT
BRANCH   7   8
ATOM      8  CB  LYS A 135      32.060  35.360  10.034  1.00 26.63     0.034 C 
BRANCH   8   9
ATOM      9  CG  LYS A 135      30.786  35.460   9.235  1.00 29.45     0.005 C 
BRANCH   9  10
ATOM     10  CD  LYS A 135      30.291  34.078   8.839  1.00 32.00     0.041 C 
BRANCH  10  11
ATOM     11  CE  LYS A 135      28.783  33.993   8.977  1.00 34.25     0.338 C 
ATOM     12  NZ  LYS A 135      28.310  34.747  10.171  1.00 35.99     0.618 N 
ENDBRANCH  10  11
ENDBRANCH   9  10
ENDBRANCH   8   9
ENDBRANCH   7   8
END_RES LYS A 135
