REMARK VINA RESULT:    -4.255      3.505      8.637
REMARK INTER + INTRA:         -22.340
REMARK INTER:                  -9.878
REMARK INTRA:                 -12.462
REMARK UNBOUND:               -11.119
REMARK SMILES CC(=O)N[C@@H]1[C@@H](O)C[C@](OC[C@H]2O[C@@H](O[C@H]3[C@H](O)[C@@H](O)[C@H](OCCN=[N+]=[N-])O[C@@H]3CO)[C@H](O)[C@@H](O)[C@H]2O)(C(=O)O)O[C@H]1C(O)[C@H](O)CNC(=O)OCc1cn(CC(O)CO)nn1
REMARK SMILES IDX 43 1 42 2 9 3 8 4 41 5 6 6 5 7 10 8 11 9 12 10 14 11 13 12
REMARK SMILES IDX 32 13 34 14 36 15 15 16 16 17 29 18 28 19 21 20 17 21 19 22
REMARK SMILES IDX 30 23 31 24 22 26 23 27 24 28 25 29 26 30 27 31 18 32 20 34
REMARK SMILES IDX 33 36 35 38 37 40 38 42 39 43 40 44 7 46 4 48 2 49 1 51 3 52
REMARK SMILES IDX 44 53 45 55 46 56 47 58 48 59 49 60 50 62 51 63 52 64 53 65
REMARK SMILES IDX 54 66 62 67 55 68 61 69 56 70 57 71 58 72 59 74 60 75
REMARK H PARENT 31 25 18 33 20 35 33 37 35 39 37 41 40 45 7 47 4 50 44 54
REMARK H PARENT 46 57 48 61 58 73 60 76
REMARK Flexibility Score: inf
ROOT
ATOM      1  C   UNL     1      24.350  30.433  14.665  1.00  0.00     0.176 C 
ENDROOT
BRANCH   1   2
ATOM      2  C   UNL     1      23.046  31.245  14.554  1.00  0.00     0.178 C 
ATOM      3  C   UNL     1      22.187  33.441  14.689  1.00  0.00     0.272 C 
ATOM      4  C   UNL     1      21.112  32.983  15.634  1.00  0.00     0.113 C 
ATOM      5  O   UNL     1      23.262  32.543  14.751  1.00  0.00    -0.332 OA
ATOM      6  C   UNL     1      21.269  31.640  16.241  1.00  0.00     0.145 C 
ATOM      7  C   UNL     1      22.036  30.642  15.456  1.00  0.00     0.142 C 
BRANCH   3   8
ATOM      8  O   UNL     1      22.639  34.630  15.031  1.00  0.00    -0.338 OA
BRANCH   8   9
ATOM      9  C   UNL     1      23.516  35.258  15.692  1.00  0.00     0.199 C 
BRANCH   9  10
ATOM     10  C   UNL     1      24.971  35.316  15.357  1.00  0.00     0.179 C 
ATOM     11  C   UNL     1      26.906  34.124  15.619  1.00  0.00     0.282 C 
ATOM     12  O   UNL     1      25.528  33.986  15.488  1.00  0.00    -0.341 OA
ATOM     13  C   UNL     1      27.482  35.360  15.019  1.00  0.00     0.202 C 
ATOM     14  C   UNL     1      26.753  35.898  13.826  1.00  0.00     0.179 C 
ATOM     15  C   UNL     1      25.265  35.594  13.882  1.00  0.00     0.177 C 
BRANCH  11  16
ATOM     16  O   UNL     1      27.633  33.030  15.199  1.00  0.00    -0.341 OA
BRANCH  16  17
ATOM     17  C   UNL     1      28.110  32.232  16.237  1.00  0.00     0.184 C 
ATOM     18  C   UNL     1      28.356  33.083  17.446  1.00  0.00     0.178 C 
ATOM     19  O   UNL     1      29.689  33.130  17.824  1.00  0.00    -0.341 OA
ATOM     20  C   UNL     1      30.524  33.282  16.704  1.00  0.00     0.281 C 
ATOM     21  C   UNL     1      29.248  31.421  15.775  1.00  0.00     0.180 C 
ATOM     22  C   UNL     1      30.620  31.906  16.090  1.00  0.00     0.202 C 
BRANCH  18  23
ATOM     23  C   UNL     1      27.558  32.613  18.646  1.00  0.00     0.191 C 
BRANCH  23  24
ATOM     24  O   UNL     1      27.391  31.236  18.647  1.00  0.00    -0.394 OA
ATOM     25  H   UNL     1      27.164  30.972  17.698  1.00  0.00     0.210 HD
ENDBRANCH  23  24
ENDBRANCH  18  23
BRANCH  20  26
ATOM     26  O   UNL     1      31.752  33.701  17.191  1.00  0.00    -0.350 OA
BRANCH  26  27
ATOM     27  C   UNL     1      32.255  34.834  16.571  1.00  0.00     0.169 C 
BRANCH  27  28
ATOM     28  C   UNL     1      31.185  35.664  15.898  1.00  0.00     0.119 C 
BRANCH  28  29
ATOM     29  N   UNL     1      31.328  35.692  14.468  1.00  0.00    -0.092 NA
ATOM     30  N   UNL     1      30.735  34.967  13.679  1.00  0.00     0.001 N 
ATOM     31  N   UNL     1      30.149  34.115  13.010  1.00  0.00    -0.003 NA
ENDBRANCH  28  29
ENDBRANCH  27  28
ENDBRANCH  26  27
ENDBRANCH  20  26
BRANCH  21  32
ATOM     32  O   UNL     1      29.154  30.080  16.224  1.00  0.00    -0.387 OA
ATOM     33  H   UNL     1      29.960  29.632  15.809  1.00  0.00     0.211 HD
ENDBRANCH  21  32
BRANCH  22  34
ATOM     34  O   UNL     1      31.488  31.882  15.001  1.00  0.00    -0.385 OA
ATOM     35  H   UNL     1      31.956  31.036  14.900  1.00  0.00     0.211 HD
ENDBRANCH  22  34
ENDBRANCH  16  17
ENDBRANCH  11  16
BRANCH  13  36
ATOM     36  O   UNL     1      27.744  36.351  15.994  1.00  0.00    -0.385 OA
ATOM     37  H   UNL     1      27.168  36.277  16.776  1.00  0.00     0.211 HD
ENDBRANCH  13  36
BRANCH  14  38
ATOM     38  O   UNL     1      27.298  35.491  12.610  1.00  0.00    -0.387 OA
ATOM     39  H   UNL     1      26.856  34.657  12.321  1.00  0.00     0.211 HD
ENDBRANCH  14  38
BRANCH  15  40
ATOM     40  O   UNL     1      25.087  34.355  13.211  1.00  0.00    -0.387 OA
ATOM     41  H   UNL     1      24.889  34.504  12.255  1.00  0.00     0.211 HD
ENDBRANCH  15  40
ENDBRANCH   9  10
ENDBRANCH   8   9
ENDBRANCH   3   8
BRANCH   3  42
ATOM     42  C   UNL     1      21.695  33.440  13.272  1.00  0.00     0.364 C 
ATOM     43  O   UNL     1      22.488  33.915  12.401  1.00  0.00    -0.246 OA
BRANCH  42  44
ATOM     44  O   UNL     1      20.467  32.964  12.892  1.00  0.00    -0.477 OA
ATOM     45  H   UNL     1      20.113  33.077  11.936  1.00  0.00     0.296 HD
ENDBRANCH  42  44
ENDBRANCH   3  42
BRANCH   6  46
ATOM     46  O   UNL     1      21.924  31.821  17.483  1.00  0.00    -0.391 OA
ATOM     47  H   UNL     1      22.794  31.376  17.459  1.00  0.00     0.211 HD
ENDBRANCH   6  46
BRANCH   7  48
ATOM     48  N   UNL     1      21.103  29.750  14.773  1.00  0.00    -0.348 N 
ATOM     49  C   UNL     1      21.088  28.352  15.009  1.00  0.00     0.217 C 
ATOM     50  H   UNL     1      20.413  30.110  14.083  1.00  0.00     0.163 HD
ATOM     51  C   UNL     1      20.142  27.441  14.317  1.00  0.00     0.114 C 
ATOM     52  O   UNL     1      21.914  27.894  15.839  1.00  0.00    -0.275 OA
ENDBRANCH   7  48
ENDBRANCH   1   2
BRANCH   1  53
ATOM     53  O   UNL     1      25.394  31.178  14.154  1.00  0.00    -0.388 OA
ATOM     54  H   UNL     1      25.509  31.002  13.187  1.00  0.00     0.211 HD
ENDBRANCH   1  53
BRANCH   1  55
ATOM     55  C   UNL     1      24.626  30.094  16.121  1.00  0.00     0.165 C 
BRANCH  55  56
ATOM     56  O   UNL     1      24.887  31.343  16.736  1.00  0.00    -0.388 OA
ATOM     57  H   UNL     1      25.857  31.529  16.703  1.00  0.00     0.211 HD
ENDBRANCH  55  56
BRANCH  55  58
ATOM     58  C   UNL     1      25.811  29.214  16.324  1.00  0.00     0.154 C 
BRANCH  58  59
ATOM     59  N   UNL     1      25.924  28.752  17.691  1.00  0.00    -0.319 N 
ATOM     60  C   UNL     1      25.316  27.543  18.099  1.00  0.00     0.407 C 
ATOM     61  H   UNL     1      26.460  29.295  18.424  1.00  0.00     0.167 HD
ATOM     62  O   UNL     1      24.650  26.834  17.310  1.00  0.00    -0.225 OA
BRANCH  60  63
ATOM     63  O   UNL     1      25.436  27.086  19.396  1.00  0.00    -0.443 OA
BRANCH  63  64
ATOM     64  C   UNL     1      26.591  26.703  20.058  1.00  0.00     0.294 C 
BRANCH  64  65
ATOM     65  C   UNL     1      27.504  27.803  20.442  1.00  0.00     0.120 A 
ATOM     66  C   UNL     1      28.866  27.709  20.489  1.00  0.00     0.138 A 
ATOM     67  N   UNL     1      27.137  29.065  20.818  1.00  0.00    -0.132 NA
ATOM     68  N   UNL     1      29.305  28.915  20.892  1.00  0.00    -0.249 N 
ATOM     69  N   UNL     1      28.272  29.700  21.082  1.00  0.00    -0.067 NA
BRANCH  68  70
ATOM     70  C   UNL     1      30.681  29.308  21.103  1.00  0.00     0.180 C 
BRANCH  70  71
ATOM     71  C   UNL     1      30.982  30.430  20.099  1.00  0.00     0.161 C 
BRANCH  71  72
ATOM     72  O   UNL     1      30.109  30.281  19.050  1.00  0.00    -0.389 OA
ATOM     73  H   UNL     1      29.314  29.747  19.293  1.00  0.00     0.211 HD
ENDBRANCH  71  72
BRANCH  71  74
ATOM     74  C   UNL     1      30.824  31.771  20.776  1.00  0.00     0.189 C 
BRANCH  74  75
ATOM     75  O   UNL     1      31.437  32.753  20.030  1.00  0.00    -0.394 OA
ATOM     76  H   UNL     1      30.920  32.908  19.198  1.00  0.00     0.210 HD
ENDBRANCH  74  75
ENDBRANCH  71  74
ENDBRANCH  70  71
ENDBRANCH  68  70
ENDBRANCH  64  65
ENDBRANCH  63  64
ENDBRANCH  60  63
ENDBRANCH  58  59
ENDBRANCH  55  58
ENDBRANCH   1  55
TORSDOF 34
BEGIN_RES LYS A 131
REMARK  4 active torsions:
REMARK  status: ('A' for Active; 'I' for Inactive)
REMARK    1  A    between atoms: CA   and  CB  
REMARK    2  A    between atoms: CB   and  CG  
REMARK    3  A    between atoms: CG   and  CD  
REMARK    4  A    between atoms: CD   and  CE  
ROOT
ATOM      1  CA  LYS A 131      29.867  25.555  16.977  1.00 20.52     0.186 C 
ENDROOT
BRANCH   1   2
ATOM      2  CB  LYS A 131      28.345  25.722  17.026  1.00 20.94     0.034 C 
BRANCH   2   3
ATOM      3  CG  LYS A 131      27.599  24.467  16.601  1.00 22.96     0.005 C 
BRANCH   3   4
ATOM      4  CD  LYS A 131      26.985  23.749  17.771  1.00 24.33     0.041 C 
BRANCH   4   5
ATOM      5  CE  LYS A 131      25.488  23.579  17.536  1.00 26.91     0.338 C 
ATOM      6  NZ  LYS A 131      25.100  22.155  17.665  1.00 27.40     0.618 N 
ENDBRANCH   4   5
ENDBRANCH   3   4
ENDBRANCH   2   3
ENDBRANCH   1   2
END_RES LYS A 131
BEGIN_RES LYS A 135
REMARK  4 active torsions:
REMARK  status: ('A' for Active; 'I' for Inactive)
REMARK    5  A    between atoms: CA   and  CB  
REMARK    6  A    between atoms: CB   and  CG  
REMARK    7  A    between atoms: CG   and  CD  
REMARK    8  A    between atoms: CD   and  CE  
ROOT
ATOM      7  CA  LYS A 135      33.193  34.663   9.290  1.00 25.02     0.186 C 
ENDROOT
BRANCH   7   8
ATOM      8  CB  LYS A 135      32.060  35.360  10.034  1.00 26.63     0.034 C 
BRANCH   8   9
ATOM      9  CG  LYS A 135      30.888  35.711   9.154  1.00 29.45     0.005 C 
BRANCH   9  10
ATOM     10  CD  LYS A 135      29.580  35.303   9.815  1.00 32.00     0.041 C 
BRANCH  10  11
ATOM     11  CE  LYS A 135      29.125  33.949   9.303  1.00 34.25     0.338 C 
ATOM     12  NZ  LYS A 135      27.696  33.701   9.641  1.00 35.99     0.618 N 
ENDBRANCH  10  11
ENDBRANCH   9  10
ENDBRANCH   8   9
ENDBRANCH   7   8
END_RES LYS A 135
