REMARK VINA RESULT:    -4.126      4.769      8.806
REMARK INTER + INTRA:         -22.146
REMARK INTER:                 -10.639
REMARK INTRA:                 -11.507
REMARK UNBOUND:               -11.507
REMARK SMILES COc1ccc(Cn2cc(COC(=O)NC[C@@H](O)C(O)[C@@H]3O[C@@](OC[C@H]4O[C@@H](O[C@H]5[C@H](O)[C@@H](O)[C@H](OCCN=[N+]=[N-])O[C@@H]5CO)[C@H](O)[C@@H](O)[C@H]4O)(C(=O)O)C[C@H](O)[C@H]3NC(C)=O)nn2)cc1
REMARK SMILES IDX 23 1 55 2 56 3 58 4 21 5 22 6 24 7 25 8 26 9 28 10 27 11
REMARK SMILES IDX 46 12 48 13 50 14 29 15 30 16 43 17 42 18 35 19 31 20 33 21
REMARK SMILES IDX 44 22 45 23 36 25 37 26 38 27 39 28 40 29 41 30 32 31 34 33
REMARK SMILES IDX 47 35 49 37 51 39 52 41 53 42 54 43 57 45 19 47 20 48 17 50
REMARK SMILES IDX 18 51 16 53 15 54 13 55 14 57 12 58 11 59 10 60 9 61 63 62
REMARK SMILES IDX 8 63 64 64 7 65 6 66 5 67 65 68 4 69 66 70 3 71 2 72 1 73
REMARK SMILES IDX 59 74 60 75 61 77 62 78
REMARK H PARENT 45 24 32 32 34 34 47 36 49 38 51 40 54 44 57 46 20 49 18 52
REMARK H PARENT 15 56 59 76
REMARK Flexibility Score: inf
ROOT
ATOM      1  C   UNL     1      27.819  40.469   5.797  1.00  0.00     0.272 C 
ATOM      2  C   UNL     1      27.899  41.613   6.787  1.00  0.00     0.113 C 
ATOM      3  C   UNL     1      26.781  42.601   6.521  1.00  0.00     0.145 C 
ATOM      4  C   UNL     1      25.442  41.955   6.317  1.00  0.00     0.142 C 
ATOM      5  C   UNL     1      25.498  40.437   6.322  1.00  0.00     0.178 C 
ATOM      6  O   UNL     1      26.596  39.957   5.634  1.00  0.00    -0.332 OA
ENDROOT
BRANCH   1   7
ATOM      7  O   UNL     1      28.862  39.616   5.919  1.00  0.00    -0.338 OA
BRANCH   7   8
ATOM      8  C   UNL     1      28.930  38.431   5.302  1.00  0.00     0.199 C 
BRANCH   8   9
ATOM      9  C   UNL     1      28.973  37.261   6.261  1.00  0.00     0.179 C 
ATOM     10  C   UNL     1      29.583  36.847   8.416  1.00  0.00     0.282 C 
ATOM     11  O   UNL     1      28.856  37.739   7.597  1.00  0.00    -0.341 OA
ATOM     12  C   UNL     1      29.361  35.432   8.026  1.00  0.00     0.202 C 
ATOM     13  C   UNL     1      28.208  35.152   7.123  1.00  0.00     0.179 C 
ATOM     14  C   UNL     1      27.917  36.233   6.102  1.00  0.00     0.177 C 
BRANCH  10  15
ATOM     15  O   UNL     1      29.476  37.164   9.740  1.00  0.00    -0.341 OA
BRANCH  15  16
ATOM     16  C   UNL     1      29.349  38.501  10.053  1.00  0.00     0.184 C 
ATOM     17  C   UNL     1      30.298  39.000  11.116  1.00  0.00     0.178 C 
ATOM     18  O   UNL     1      29.738  40.066  11.820  1.00  0.00    -0.341 OA
ATOM     19  C   UNL     1      28.883  40.854  11.029  1.00  0.00     0.281 C 
ATOM     20  C   UNL     1      27.972  38.622  10.734  1.00  0.00     0.180 C 
ATOM     21  C   UNL     1      27.600  40.079  10.675  1.00  0.00     0.202 C 
BRANCH  17  22
ATOM     22  C   UNL     1      31.628  39.461  10.609  1.00  0.00     0.191 C 
BRANCH  22  23
ATOM     23  O   UNL     1      32.156  38.497   9.754  1.00  0.00    -0.394 OA
ATOM     24  H   UNL     1      33.049  38.238  10.120  1.00  0.00     0.210 HD
ENDBRANCH  22  23
ENDBRANCH  17  22
BRANCH  19  25
ATOM     25  O   UNL     1      29.462  41.372   9.916  1.00  0.00    -0.350 OA
BRANCH  25  26
ATOM     26  C   UNL     1      30.005  42.618   9.962  1.00  0.00     0.169 C 
BRANCH  26  27
ATOM     27  C   UNL     1      31.223  42.877   9.156  1.00  0.00     0.119 C 
BRANCH  27  28
ATOM     28  N   UNL     1      31.188  42.348   7.837  1.00  0.00    -0.092 NA
ATOM     29  N   UNL     1      31.779  41.320   7.477  1.00  0.00     0.001 N 
ATOM     30  N   UNL     1      31.949  40.134   7.112  1.00  0.00    -0.003 NA
ENDBRANCH  27  28
ENDBRANCH  26  27
ENDBRANCH  25  26
ENDBRANCH  19  25
BRANCH  20  31
ATOM     31  O   UNL     1      27.048  37.771  10.197  1.00  0.00    -0.387 OA
ATOM     32  H   UNL     1      26.862  37.975   9.225  1.00  0.00     0.211 HD
ENDBRANCH  20  31
BRANCH  21  33
ATOM     33  O   UNL     1      26.563  40.378  11.557  1.00  0.00    -0.385 OA
ATOM     34  H   UNL     1      25.792  39.783  11.363  1.00  0.00     0.211 HD
ENDBRANCH  21  33
ENDBRANCH  15  16
ENDBRANCH  10  15
BRANCH  12  35
ATOM     35  O   UNL     1      30.539  34.835   7.508  1.00  0.00    -0.385 OA
ATOM     36  H   UNL     1      30.354  34.498   6.579  1.00  0.00     0.211 HD
ENDBRANCH  12  35
BRANCH  13  37
ATOM     37  O   UNL     1      27.041  34.820   7.853  1.00  0.00    -0.387 OA
ATOM     38  H   UNL     1      26.357  35.510   7.659  1.00  0.00     0.211 HD
ENDBRANCH  13  37
BRANCH  14  39
ATOM     39  O   UNL     1      26.629  36.739   6.241  1.00  0.00    -0.387 OA
ATOM     40  H   UNL     1      26.620  37.629   6.672  1.00  0.00     0.211 HD
ENDBRANCH  14  39
ENDBRANCH   8   9
ENDBRANCH   7   8
ENDBRANCH   1   7
BRANCH   1  41
ATOM     41  C   UNL     1      28.238  41.180   4.468  1.00  0.00     0.364 C 
ATOM     42  O   UNL     1      27.422  41.253   3.524  1.00  0.00    -0.246 OA
BRANCH  41  43
ATOM     43  O   UNL     1      29.458  41.731   4.282  1.00  0.00    -0.477 OA
ATOM     44  H   UNL     1      30.186  41.881   4.936  1.00  0.00     0.296 HD
ENDBRANCH  41  43
ENDBRANCH   1  41
BRANCH   3  45
ATOM     45  O   UNL     1      26.754  43.401   7.701  1.00  0.00    -0.391 OA
ATOM     46  H   UNL     1      27.072  42.873   8.477  1.00  0.00     0.211 HD
ENDBRANCH   3  45
BRANCH   5  47
ATOM     47  C   UNL     1      25.295  39.985   7.716  1.00  0.00     0.176 C 
BRANCH  47  48
ATOM     48  O   UNL     1      25.793  38.675   7.971  1.00  0.00    -0.388 OA
ATOM     49  H   UNL     1      25.026  38.111   8.211  1.00  0.00     0.211 HD
ENDBRANCH  47  48
BRANCH  47  50
ATOM     50  C   UNL     1      23.805  39.708   8.071  1.00  0.00     0.165 C 
BRANCH  50  51
ATOM     51  O   UNL     1      23.431  39.859   9.346  1.00  0.00    -0.388 OA
ATOM     52  H   UNL     1      23.524  39.013   9.852  1.00  0.00     0.211 HD
ENDBRANCH  50  51
BRANCH  50  53
ATOM     53  C   UNL     1      23.499  38.282   7.561  1.00  0.00     0.154 C 
BRANCH  53  54
ATOM     54  N   UNL     1      22.921  37.447   8.563  1.00  0.00    -0.319 N 
ATOM     55  C   UNL     1      23.682  36.360   9.102  1.00  0.00     0.407 C 
ATOM     56  H   UNL     1      21.968  37.604   8.908  1.00  0.00     0.167 HD
ATOM     57  O   UNL     1      24.856  36.163   8.681  1.00  0.00    -0.225 OA
BRANCH  55  58
ATOM     58  O   UNL     1      23.095  35.566  10.071  1.00  0.00    -0.443 OA
BRANCH  58  59
ATOM     59  C   UNL     1      22.491  36.185  11.222  1.00  0.00     0.294 C 
BRANCH  59  60
ATOM     60  C   UNL     1      23.559  36.849  11.998  1.00  0.00     0.120 A 
ATOM     61  C   UNL     1      24.127  36.406  13.197  1.00  0.00     0.138 A 
ATOM     62  N   UNL     1      24.178  38.001  11.714  1.00  0.00    -0.132 NA
ATOM     63  N   UNL     1      25.044  37.311  13.559  1.00  0.00    -0.248 N 
ATOM     64  N   UNL     1      25.065  38.274  12.650  1.00  0.00    -0.067 NA
BRANCH  63  65
ATOM     65  C   UNL     1      25.869  37.254  14.739  1.00  0.00     0.181 C 
BRANCH  65  66
ATOM     66  C   UNL     1      26.970  36.291  14.513  1.00  0.00    -0.026 A 
ATOM     67  C   UNL     1      27.002  35.101  15.234  1.00  0.00     0.009 A 
ATOM     68  C   UNL     1      27.970  36.505  13.602  1.00  0.00     0.009 A 
ATOM     69  C   UNL     1      27.995  34.162  15.052  1.00  0.00     0.047 A 
ATOM     70  C   UNL     1      28.976  35.551  13.418  1.00  0.00     0.047 A 
ATOM     71  C   UNL     1      29.005  34.382  14.128  1.00  0.00     0.118 A 
BRANCH  71  72
ATOM     72  O   UNL     1      29.977  33.410  13.981  1.00  0.00    -0.497 OA
ATOM     73  C   UNL     1      30.642  32.777  15.035  1.00  0.00     0.278 C 
ENDBRANCH  71  72
ENDBRANCH  65  66
ENDBRANCH  63  65
ENDBRANCH  59  60
ENDBRANCH  58  59
ENDBRANCH  55  58
ENDBRANCH  53  54
ENDBRANCH  50  53
ENDBRANCH  47  50
ENDBRANCH   5  47
BRANCH   4  74
ATOM     74  N   UNL     1      24.676  42.467   5.201  1.00  0.00    -0.348 N 
ATOM     75  C   UNL     1      24.039  43.737   5.173  1.00  0.00     0.217 C 
ATOM     76  H   UNL     1      24.562  41.876   4.364  1.00  0.00     0.163 HD
ATOM     77  C   UNL     1      23.258  44.166   3.951  1.00  0.00     0.114 C 
ATOM     78  O   UNL     1      24.125  44.500   6.164  1.00  0.00    -0.275 OA
ENDBRANCH   4  74
TORSDOF 32
BEGIN_RES LYS A 131
REMARK  4 active torsions:
REMARK  status: ('A' for Active; 'I' for Inactive)
REMARK    1  A    between atoms: CA   and  CB  
REMARK    2  A    between atoms: CB   and  CG  
REMARK    3  A    between atoms: CG   and  CD  
REMARK    4  A    between atoms: CD   and  CE  
ROOT
ATOM      1  CA  LYS A 131      29.867  25.555  16.977  1.00 20.52     0.186 C 
ENDROOT
BRANCH   1   2
ATOM      2  CB  LYS A 131      28.345  25.722  17.026  1.00 20.94     0.034 C 
BRANCH   2   3
ATOM      3  CG  LYS A 131      27.601  24.403  16.888  1.00 22.96     0.005 C 
BRANCH   3   4
ATOM      4  CD  LYS A 131      26.510  24.258  17.912  1.00 24.33     0.041 C 
BRANCH   4   5
ATOM      5  CE  LYS A 131      25.708  22.992  17.626  1.00 26.91     0.338 C 
ATOM      6  NZ  LYS A 131      24.715  22.753  18.700  1.00 27.40     0.618 N 
ENDBRANCH   4   5
ENDBRANCH   3   4
ENDBRANCH   2   3
ENDBRANCH   1   2
END_RES LYS A 131
BEGIN_RES LYS A 135
REMARK  4 active torsions:
REMARK  status: ('A' for Active; 'I' for Inactive)
REMARK    5  A    between atoms: CA   and  CB  
REMARK    6  A    between atoms: CB   and  CG  
REMARK    7  A    between atoms: CG   and  CD  
REMARK    8  A    between atoms: CD   and  CE  
ROOT
ATOM      7  CA  LYS A 135      33.193  34.663   9.290  1.00 25.02     0.186 C 
ENDROOT
BRANCH   7   8
ATOM      8  CB  LYS A 135      32.060  35.360  10.034  1.00 26.63     0.034 C 
BRANCH   8   9
ATOM      9  CG  LYS A 135      31.993  35.006  11.497  1.00 29.45     0.005 C 
BRANCH   9  10
ATOM     10  CD  LYS A 135      32.467  36.171  12.353  1.00 32.00     0.041 C 
BRANCH  10  11
ATOM     11  CE  LYS A 135      32.688  35.723  13.785  1.00 34.25     0.338 C 
ATOM     12  NZ  LYS A 135      32.277  36.783  14.748  1.00 35.99     0.618 N 
ENDBRANCH  10  11
ENDBRANCH   9  10
ENDBRANCH   8   9
ENDBRANCH   7   8
END_RES LYS A 135
