REMARK VINA RESULT:    -4.812      4.947      9.441
REMARK INTER + INTRA:         -23.033
REMARK INTER:                 -11.256
REMARK INTRA:                 -11.777
REMARK UNBOUND:               -10.485
REMARK SMILES CC(=O)N[C@@H]1[C@@H](O)C[C@](OC[C@H]2O[C@@H](O[C@H]3[C@H](O)[C@@H](O)[C@H](OCCN=[N+]=[N-])O[C@@H]3CO)[C@H](O)[C@@H](O)[C@H]2O)(C(=O)O)O[C@H]1C(O)[C@H](O)CNC(=O)OCc1cn(CC(O)c2ccccc2)nn1
REMARK SMILES IDX 9 1 8 2 6 3 5 4 42 5 41 6 10 7 11 8 12 9 14 10 13 11 32 12
REMARK SMILES IDX 34 13 36 14 15 15 16 16 29 17 28 18 21 19 17 20 19 21 30 22
REMARK SMILES IDX 31 23 22 25 23 26 24 27 25 28 26 29 27 30 18 31 20 33 33 35
REMARK SMILES IDX 35 37 37 39 38 41 39 42 40 43 7 45 43 47 44 48 45 50 46 51
REMARK SMILES IDX 47 53 48 54 49 55 50 57 51 58 52 59 53 60 54 61 66 62 55 63
REMARK SMILES IDX 65 64 56 65 57 66 58 67 59 69 60 70 64 71 61 72 63 73 62 74
REMARK SMILES IDX 4 75 2 76 1 78 3 79
REMARK H PARENT 31 24 18 32 20 34 33 36 35 38 37 40 40 44 7 46 44 49 46 52
REMARK H PARENT 48 56 58 68 4 77
REMARK Flexibility Score: inf
ROOT
ATOM      1  C   UNL     1      26.507  31.116  16.830  1.00  0.00     0.272 C 
ATOM      2  C   UNL     1      25.404  30.195  16.469  1.00  0.00     0.113 C 
ATOM      3  C   UNL     1      24.397  30.700  15.495  1.00  0.00     0.145 C 
ATOM      4  C   UNL     1      24.542  32.183  15.365  1.00  0.00     0.142 C 
ATOM      5  C   UNL     1      24.830  32.739  16.748  1.00  0.00     0.178 C 
ATOM      6  O   UNL     1      26.007  32.336  17.298  1.00  0.00    -0.332 OA
ENDROOT
BRANCH   1   7
ATOM      7  O   UNL     1      27.429  31.409  15.870  1.00  0.00    -0.338 OA
BRANCH   7   8
ATOM      8  C   UNL     1      28.266  32.460  16.080  1.00  0.00     0.199 C 
BRANCH   8   9
ATOM      9  C   UNL     1      29.380  32.490  15.059  1.00  0.00     0.179 C 
ATOM     10  C   UNL     1      30.785  34.042  14.106  1.00  0.00     0.282 C 
ATOM     11  O   UNL     1      29.511  33.752  14.515  1.00  0.00    -0.341 OA
ATOM     12  C   UNL     1      31.816  34.088  15.212  1.00  0.00     0.202 C 
ATOM     13  C   UNL     1      31.428  33.061  16.253  1.00  0.00     0.179 C 
ATOM     14  C   UNL     1      30.690  31.953  15.530  1.00  0.00     0.177 C 
BRANCH  10  15
ATOM     15  O   UNL     1      30.862  35.282  13.480  1.00  0.00    -0.341 OA
BRANCH  15  16
ATOM     16  C   UNL     1      30.661  36.366  14.291  1.00  0.00     0.184 C 
ATOM     17  C   UNL     1      29.213  36.798  14.092  1.00  0.00     0.178 C 
ATOM     18  O   UNL     1      29.126  37.872  13.231  1.00  0.00    -0.341 OA
ATOM     19  C   UNL     1      29.866  37.558  12.077  1.00  0.00     0.281 C 
ATOM     20  C   UNL     1      31.631  37.446  13.829  1.00  0.00     0.180 C 
ATOM     21  C   UNL     1      31.325  37.863  12.400  1.00  0.00     0.202 C 
BRANCH  17  22
ATOM     22  C   UNL     1      28.549  37.088  15.427  1.00  0.00     0.191 C 
BRANCH  22  23
ATOM     23  O   UNL     1      28.624  35.991  16.280  1.00  0.00    -0.394 OA
ATOM     24  H   UNL     1      28.160  35.196  15.907  1.00  0.00     0.210 HD
ENDBRANCH  22  23
ENDBRANCH  17  22
BRANCH  19  25
ATOM     25  O   UNL     1      29.369  38.338  11.062  1.00  0.00    -0.350 OA
BRANCH  25  26
ATOM     26  C   UNL     1      28.657  37.668  10.095  1.00  0.00     0.169 C 
BRANCH  26  27
ATOM     27  C   UNL     1      27.182  37.569  10.368  1.00  0.00     0.119 C 
BRANCH  27  28
ATOM     28  N   UNL     1      26.820  36.175  10.647  1.00  0.00    -0.092 NA
ATOM     29  N   UNL     1      26.525  35.945  11.830  1.00  0.00     0.001 N 
ATOM     30  N   UNL     1      26.046  35.519  12.881  1.00  0.00    -0.003 NA
ENDBRANCH  27  28
ENDBRANCH  26  27
ENDBRANCH  25  26
ENDBRANCH  19  25
BRANCH  20  31
ATOM     31  O   UNL     1      31.567  38.543  14.678  1.00  0.00    -0.387 OA
ATOM     32  H   UNL     1      30.626  38.677  14.982  1.00  0.00     0.211 HD
ENDBRANCH  20  31
BRANCH  21  33
ATOM     33  O   UNL     1      32.201  37.270  11.511  1.00  0.00    -0.385 OA
ATOM     34  H   UNL     1      33.121  37.489  11.800  1.00  0.00     0.211 HD
ENDBRANCH  21  33
ENDBRANCH  15  16
ENDBRANCH  10  15
BRANCH  12  35
ATOM     35  O   UNL     1      33.061  33.749  14.674  1.00  0.00    -0.385 OA
ATOM     36  H   UNL     1      33.472  34.590  14.332  1.00  0.00     0.211 HD
ENDBRANCH  12  35
BRANCH  13  37
ATOM     37  O   UNL     1      30.591  33.717  17.153  1.00  0.00    -0.387 OA
ATOM     38  H   UNL     1      30.978  33.845  18.036  1.00  0.00     0.211 HD
ENDBRANCH  13  37
BRANCH  14  39
ATOM     39  O   UNL     1      30.594  30.783  16.245  1.00  0.00    -0.387 OA
ATOM     40  H   UNL     1      30.142  30.884  17.122  1.00  0.00     0.211 HD
ENDBRANCH  14  39
ENDBRANCH   8   9
ENDBRANCH   7   8
ENDBRANCH   1   7
BRANCH   1  41
ATOM     41  C   UNL     1      27.162  30.502  18.058  1.00  0.00     0.364 C 
ATOM     42  O   UNL     1      26.760  30.794  19.172  1.00  0.00    -0.246 OA
BRANCH  41  43
ATOM     43  O   UNL     1      28.205  29.626  17.815  1.00  0.00    -0.477 OA
ATOM     44  H   UNL     1      28.894  29.919  17.155  1.00  0.00     0.296 HD
ENDBRANCH  41  43
ENDBRANCH   1  41
BRANCH   3  45
ATOM     45  O   UNL     1      24.464  30.024  14.276  1.00  0.00    -0.391 OA
ATOM     46  H   UNL     1      24.593  30.728  13.581  1.00  0.00     0.211 HD
ENDBRANCH   3  45
BRANCH   5  47
ATOM     47  C   UNL     1      24.659  34.232  16.637  1.00  0.00     0.176 C 
BRANCH  47  48
ATOM     48  O   UNL     1      25.723  34.748  15.882  1.00  0.00    -0.388 OA
ATOM     49  H   UNL     1      26.087  35.520  16.397  1.00  0.00     0.211 HD
ENDBRANCH  47  48
BRANCH  47  50
ATOM     50  C   UNL     1      24.538  34.895  17.969  1.00  0.00     0.165 C 
BRANCH  50  51
ATOM     51  O   UNL     1      23.300  35.439  18.182  1.00  0.00    -0.388 OA
ATOM     52  H   UNL     1      22.797  35.051  18.916  1.00  0.00     0.211 HD
ENDBRANCH  50  51
BRANCH  50  53
ATOM     53  C   UNL     1      25.707  35.769  18.344  1.00  0.00     0.154 C 
BRANCH  53  54
ATOM     54  N   UNL     1      26.982  35.116  18.390  1.00  0.00    -0.319 N 
ATOM     55  C   UNL     1      27.524  34.475  19.542  1.00  0.00     0.407 C 
ATOM     56  H   UNL     1      27.585  35.089  17.507  1.00  0.00     0.167 HD
ATOM     57  O   UNL     1      26.887  34.440  20.609  1.00  0.00    -0.225 OA
BRANCH  55  58
ATOM     58  O   UNL     1      28.765  33.877  19.507  1.00  0.00    -0.443 OA
BRANCH  58  59
ATOM     59  C   UNL     1      29.406  33.334  20.661  1.00  0.00     0.294 C 
BRANCH  59  60
ATOM     60  C   UNL     1      29.809  31.918  20.386  1.00  0.00     0.120 A 
ATOM     61  C   UNL     1      29.684  30.800  21.169  1.00  0.00     0.138 A 
ATOM     62  N   UNL     1      30.385  31.515  19.232  1.00  0.00    -0.132 NA
ATOM     63  N   UNL     1      30.182  29.729  20.483  1.00  0.00    -0.249 N 
ATOM     64  N   UNL     1      30.584  30.225  19.335  1.00  0.00    -0.067 NA
BRANCH  63  65
ATOM     65  C   UNL     1      30.229  28.357  20.965  1.00  0.00     0.182 C 
BRANCH  65  66
ATOM     66  C   UNL     1      31.672  27.925  21.159  1.00  0.00     0.166 C 
BRANCH  66  67
ATOM     67  O   UNL     1      32.236  27.966  19.861  1.00  0.00    -0.386 OA
ATOM     68  H   UNL     1      32.706  28.835  19.728  1.00  0.00     0.211 HD
ENDBRANCH  66  67
BRANCH  66  69
ATOM     69  C   UNL     1      32.438  28.777  22.073  1.00  0.00    -0.018 A 
ATOM     70  C   UNL     1      32.244  28.786  23.420  1.00  0.00     0.006 A 
ATOM     71  C   UNL     1      33.388  29.611  21.466  1.00  0.00     0.006 A 
ATOM     72  C   UNL     1      33.013  29.644  24.191  1.00  0.00     0.000 A 
ATOM     73  C   UNL     1      34.133  30.450  22.250  1.00  0.00     0.000 A 
ATOM     74  C   UNL     1      33.949  30.471  23.618  1.00  0.00     0.000 A 
ENDBRANCH  66  69
ENDBRANCH  65  66
ENDBRANCH  63  65
ENDBRANCH  59  60
ENDBRANCH  58  59
ENDBRANCH  55  58
ENDBRANCH  53  54
ENDBRANCH  50  53
ENDBRANCH  47  50
ENDBRANCH   5  47
BRANCH   4  75
ATOM     75  N   UNL     1      23.256  32.786  14.978  1.00  0.00    -0.348 N 
ATOM     76  C   UNL     1      22.915  33.043  13.627  1.00  0.00     0.217 C 
ATOM     77  H   UNL     1      22.559  33.042  15.708  1.00  0.00     0.163 HD
ATOM     78  C   UNL     1      21.628  33.649  13.198  1.00  0.00     0.114 C 
ATOM     79  O   UNL     1      23.755  32.734  12.737  1.00  0.00    -0.275 OA
ENDBRANCH   4  75
TORSDOF 33
BEGIN_RES LYS A 131
REMARK  4 active torsions:
REMARK  status: ('A' for Active; 'I' for Inactive)
REMARK    1  A    between atoms: CA   and  CB  
REMARK    2  A    between atoms: CB   and  CG  
REMARK    3  A    between atoms: CG   and  CD  
REMARK    4  A    between atoms: CD   and  CE  
ROOT
ATOM      1  CA  LYS A 131      29.867  25.555  16.977  1.00 20.52     0.186 C 
ENDROOT
BRANCH   1   2
ATOM      2  CB  LYS A 131      28.345  25.722  17.026  1.00 20.94     0.034 C 
BRANCH   2   3
ATOM      3  CG  LYS A 131      27.842  26.152  18.395  1.00 22.96     0.005 C 
BRANCH   3   4
ATOM      4  CD  LYS A 131      26.481  25.590  18.700  1.00 24.33     0.041 C 
BRANCH   4   5
ATOM      5  CE  LYS A 131      26.413  24.139  18.236  1.00 26.91     0.338 C 
ATOM      6  NZ  LYS A 131      25.260  23.938  17.326  1.00 27.40     0.618 N 
ENDBRANCH   4   5
ENDBRANCH   3   4
ENDBRANCH   2   3
ENDBRANCH   1   2
END_RES LYS A 131
BEGIN_RES LYS A 135
REMARK  4 active torsions:
REMARK  status: ('A' for Active; 'I' for Inactive)
REMARK    5  A    between atoms: CA   and  CB  
REMARK    6  A    between atoms: CB   and  CG  
REMARK    7  A    between atoms: CG   and  CD  
REMARK    8  A    between atoms: CD   and  CE  
ROOT
ATOM      7  CA  LYS A 135      33.193  34.663   9.290  1.00 25.02     0.186 C 
ENDROOT
BRANCH   7   8
ATOM      8  CB  LYS A 135      32.060  35.360  10.034  1.00 26.63     0.034 C 
BRANCH   8   9
ATOM      9  CG  LYS A 135      30.762  34.595  10.008  1.00 29.45     0.005 C 
BRANCH   9  10
ATOM     10  CD  LYS A 135      30.410  34.184   8.586  1.00 32.00     0.041 C 
BRANCH  10  11
ATOM     11  CE  LYS A 135      28.958  34.500   8.284  1.00 34.25     0.338 C 
ATOM     12  NZ  LYS A 135      28.842  35.448   7.142  1.00 35.99     0.618 N 
ENDBRANCH  10  11
ENDBRANCH   9  10
ENDBRANCH   8   9
ENDBRANCH   7   8
END_RES LYS A 135
