REMARK VINA RESULT:    -4.548      2.294      8.654
REMARK INTER + INTRA:         -24.856
REMARK INTER:                 -11.871
REMARK INTRA:                 -12.984
REMARK UNBOUND:               -11.931
REMARK SMILES CC(=O)N[C@@H]1[C@@H](O)C[C@](OC[C@H]2O[C@@H](O[C@H]3[C@H](O)[C@@H](O)[C@H](OCCN=[N+]=[N-])O[C@@H]3CO)[C@H](O)[C@@H](O)[C@H]2O)(C(=O)O)O[C@H]1C(O)[C@H](O)CNC(=O)OCc1cn(CC(=O)NCC(O)Cn2ccnc2[N+](=O)[O-])nn1
REMARK SMILES IDX 47 1 45 2 43 3 42 4 9 5 8 6 41 7 6 8 5 9 10 10 11 11 12 12
REMARK SMILES IDX 14 13 13 14 32 15 34 16 36 17 15 18 16 19 29 20 28 21 21 22
REMARK SMILES IDX 17 23 19 24 30 25 31 26 22 28 23 29 24 30 25 31 26 32 27 33
REMARK SMILES IDX 18 34 20 36 33 38 35 40 37 42 38 44 39 45 40 46 7 48 4 50
REMARK SMILES IDX 2 51 1 53 3 54 44 55 46 57 48 59 49 60 50 62 51 63 52 64
REMARK SMILES IDX 53 65 54 66 73 67 55 68 72 69 56 70 57 71 58 72 59 73 60 75
REMARK SMILES IDX 61 76 62 77 63 79 64 80 65 81 68 82 66 83 67 84 69 85 70 86
REMARK SMILES IDX 71 87
REMARK H PARENT 31 27 18 35 20 37 33 39 35 41 37 43 40 47 7 49 4 52 44 56
REMARK H PARENT 46 58 48 61 59 74 62 78
REMARK Flexibility Score: inf
ROOT
ATOM      1  C   UNL     1      25.029  33.530  13.287  1.00  0.00     0.154 C 
ENDROOT
BRANCH   1   2
ATOM      2  C   UNL     1      25.563  34.038  14.584  1.00  0.00     0.165 C 
BRANCH   2   3
ATOM      3  C   UNL     1      27.040  34.105  14.707  1.00  0.00     0.176 C 
BRANCH   3   4
ATOM      4  C   UNL     1      27.779  32.917  15.168  1.00  0.00     0.178 C 
ATOM      5  C   UNL     1      27.818  31.105  16.623  1.00  0.00     0.272 C 
ATOM      6  C   UNL     1      28.764  30.603  15.591  1.00  0.00     0.113 C 
ATOM      7  O   UNL     1      27.201  32.319  16.268  1.00  0.00    -0.332 OA
ATOM      8  C   UNL     1      29.789  31.592  15.144  1.00  0.00     0.145 C 
ATOM      9  C   UNL     1      29.243  33.032  15.361  1.00  0.00     0.142 C 
BRANCH   5  10
ATOM     10  O   UNL     1      28.302  31.245  17.891  1.00  0.00    -0.338 OA
BRANCH  10  11
ATOM     11  C   UNL     1      27.722  32.175  18.695  1.00  0.00     0.199 C 
BRANCH  11  12
ATOM     12  C   UNL     1      28.721  32.917  19.562  1.00  0.00     0.179 C 
ATOM     13  C   UNL     1      30.287  32.571  21.254  1.00  0.00     0.282 C 
ATOM     14  O   UNL     1      29.044  32.275  20.705  1.00  0.00    -0.341 OA
ATOM     15  C   UNL     1      30.658  34.019  21.053  1.00  0.00     0.202 C 
ATOM     16  C   UNL     1      30.655  34.395  19.589  1.00  0.00     0.179 C 
ATOM     17  C   UNL     1      29.938  33.331  18.780  1.00  0.00     0.177 C 
BRANCH  13  18
ATOM     18  O   UNL     1      31.290  31.781  20.819  1.00  0.00    -0.341 OA
BRANCH  18  19
ATOM     19  C   UNL     1      31.484  30.541  21.297  1.00  0.00     0.184 C 
ATOM     20  C   UNL     1      32.849  30.212  21.837  1.00  0.00     0.178 C 
ATOM     21  O   UNL     1      32.685  29.089  22.653  1.00  0.00    -0.341 OA
ATOM     22  C   UNL     1      32.397  27.958  21.898  1.00  0.00     0.281 C 
ATOM     23  C   UNL     1      31.231  29.455  20.240  1.00  0.00     0.180 C 
ATOM     24  C   UNL     1      31.217  28.144  20.993  1.00  0.00     0.202 C 
BRANCH  20  25
ATOM     25  C   UNL     1      33.336  31.327  22.715  1.00  0.00     0.191 C 
BRANCH  25  26
ATOM     26  O   UNL     1      33.827  32.403  21.963  1.00  0.00    -0.394 OA
ATOM     27  H   UNL     1      33.057  32.660  21.364  1.00  0.00     0.210 HD
ENDBRANCH  25  26
ENDBRANCH  20  25
BRANCH  22  28
ATOM     28  O   UNL     1      32.084  26.936  22.791  1.00  0.00    -0.350 OA
BRANCH  28  29
ATOM     29  C   UNL     1      31.477  27.437  23.943  1.00  0.00     0.169 C 
BRANCH  29  30
ATOM     30  C   UNL     1      30.770  26.248  24.600  1.00  0.00     0.119 C 
BRANCH  30  31
ATOM     31  N   UNL     1      29.551  26.686  25.256  1.00  0.00    -0.092 NA
ATOM     32  N   UNL     1      28.524  26.008  25.040  1.00  0.00     0.001 N 
ATOM     33  N   UNL     1      27.573  25.240  25.105  1.00  0.00    -0.003 NA
ENDBRANCH  30  31
ENDBRANCH  29  30
ENDBRANCH  28  29
ENDBRANCH  22  28
BRANCH  23  34
ATOM     34  O   UNL     1      29.977  29.600  19.658  1.00  0.00    -0.387 OA
ATOM     35  H   UNL     1      29.349  29.732  20.437  1.00  0.00     0.211 HD
ENDBRANCH  23  34
BRANCH  24  36
ATOM     36  O   UNL     1      31.144  27.037  20.148  1.00  0.00    -0.385 OA
ATOM     37  H   UNL     1      31.687  26.301  20.557  1.00  0.00     0.211 HD
ENDBRANCH  24  36
ENDBRANCH  18  19
ENDBRANCH  13  18
BRANCH  15  38
ATOM     38  O   UNL     1      29.837  34.872  21.803  1.00  0.00    -0.385 OA
ATOM     39  H   UNL     1      29.055  35.073  21.198  1.00  0.00     0.211 HD
ENDBRANCH  15  38
BRANCH  16  40
ATOM     40  O   UNL     1      31.952  34.486  19.092  1.00  0.00    -0.387 OA
ATOM     41  H   UNL     1      32.164  33.745  18.451  1.00  0.00     0.211 HD
ENDBRANCH  16  40
BRANCH  17  42
ATOM     42  O   UNL     1      30.741  32.289  18.383  1.00  0.00    -0.387 OA
ATOM     43  H   UNL     1      30.713  31.516  19.011  1.00  0.00     0.211 HD
ENDBRANCH  17  42
ENDBRANCH  11  12
ENDBRANCH  10  11
ENDBRANCH   5  10
BRANCH   5  44
ATOM     44  C   UNL     1      26.656  30.140  16.646  1.00  0.00     0.364 C 
ATOM     45  O   UNL     1      26.846  29.045  17.206  1.00  0.00    -0.246 OA
BRANCH  44  46
ATOM     46  O   UNL     1      25.432  30.418  16.085  1.00  0.00    -0.477 OA
ATOM     47  H   UNL     1      24.835  31.170  16.473  1.00  0.00     0.296 HD
ENDBRANCH  44  46
ENDBRANCH   5  44
BRANCH   8  48
ATOM     48  O   UNL     1      31.039  31.473  15.658  1.00  0.00    -0.391 OA
ATOM     49  H   UNL     1      31.142  31.658  16.603  1.00  0.00     0.211 HD
ENDBRANCH   8  48
BRANCH   9  50
ATOM     50  N   UNL     1      29.965  33.875  14.484  1.00  0.00    -0.348 N 
ATOM     51  C   UNL     1      31.149  34.568  14.922  1.00  0.00     0.217 C 
ATOM     52  H   UNL     1      29.680  34.012  13.505  1.00  0.00     0.163 HD
ATOM     53  C   UNL     1      31.918  35.465  14.018  1.00  0.00     0.114 C 
ATOM     54  O   UNL     1      31.522  34.400  16.102  1.00  0.00    -0.275 OA
ENDBRANCH   9  50
ENDBRANCH   3   4
BRANCH   3  55
ATOM     55  O   UNL     1      27.338  35.247  15.491  1.00  0.00    -0.388 OA
ATOM     56  H   UNL     1      26.856  35.158  16.329  1.00  0.00     0.211 HD
ENDBRANCH   3  55
ENDBRANCH   2   3
BRANCH   2  57
ATOM     57  O   UNL     1      24.868  33.578  15.677  1.00  0.00    -0.388 OA
ATOM     58  H   UNL     1      24.255  34.213  16.091  1.00  0.00     0.211 HD
ENDBRANCH   2  57
ENDBRANCH   1   2
BRANCH   1  59
ATOM     59  N   UNL     1      23.753  32.897  13.478  1.00  0.00    -0.319 N 
ATOM     60  C   UNL     1      22.600  33.218  12.719  1.00  0.00     0.407 C 
ATOM     61  H   UNL     1      23.632  32.145  14.219  1.00  0.00     0.167 HD
ATOM     62  O   UNL     1      22.681  34.087  11.826  1.00  0.00    -0.225 OA
BRANCH  60  63
ATOM     63  O   UNL     1      21.365  32.632  12.898  1.00  0.00    -0.443 OA
BRANCH  63  64
ATOM     64  C   UNL     1      21.056  31.370  12.367  1.00  0.00     0.294 C 
BRANCH  64  65
ATOM     65  C   UNL     1      21.825  30.238  12.878  1.00  0.00     0.120 A 
ATOM     66  C   UNL     1      21.500  29.376  13.895  1.00  0.00     0.138 A 
ATOM     67  N   UNL     1      23.030  29.828  12.449  1.00  0.00    -0.132 NA
ATOM     68  N   UNL     1      22.503  28.481  14.051  1.00  0.00    -0.243 N 
ATOM     69  N   UNL     1      23.415  28.767  13.175  1.00  0.00    -0.067 NA
BRANCH  68  70
ATOM     70  C   UNL     1      22.534  27.383  15.010  1.00  0.00     0.245 C 
BRANCH  70  71
ATOM     71  C   UNL     1      22.261  27.915  16.361  1.00  0.00     0.241 C 
ATOM     72  O   UNL     1      21.164  27.660  16.963  1.00  0.00    -0.273 OA
ATOM     73  N   UNL     1      23.189  28.730  17.074  1.00  0.00    -0.352 N 
ATOM     74  H   UNL     1      24.093  28.966  16.629  1.00  0.00     0.163 HD
BRANCH  73  75
ATOM     75  C   UNL     1      22.831  29.203  18.398  1.00  0.00     0.151 C 
BRANCH  75  76
ATOM     76  C   UNL     1      23.894  28.918  19.413  1.00  0.00     0.168 C 
BRANCH  76  77
ATOM     77  O   UNL     1      24.894  29.874  19.418  1.00  0.00    -0.388 OA
ATOM     78  H   UNL     1      25.306  29.878  18.522  1.00  0.00     0.211 HD
ENDBRANCH  76  77
BRANCH  76  79
ATOM     79  C   UNL     1      24.467  27.544  19.097  1.00  0.00     0.239 C 
BRANCH  79  80
ATOM     80  N   UNL     1      24.950  26.885  20.276  1.00  0.00    -0.227 N 
ATOM     81  C   UNL     1      24.200  26.083  21.078  1.00  0.00     0.204 A 
ATOM     82  C   UNL     1      26.179  26.915  20.848  1.00  0.00     0.434 A 
ATOM     83  C   UNL     1      24.972  25.636  22.121  1.00  0.00     0.245 A 
ATOM     84  N   UNL     1      26.183  26.157  21.963  1.00  0.00    -0.074 NA
BRANCH  82  85
ATOM     85  N   UNL     1      27.305  27.628  20.339  1.00  0.00    -0.047 N 
ATOM     86  O   UNL     1      28.190  27.120  19.651  1.00  0.00    -0.390 OA
ATOM     87  O   UNL     1      27.415  28.978  20.644  1.00  0.00    -0.390 OA
ENDBRANCH  82  85
ENDBRANCH  79  80
ENDBRANCH  76  79
ENDBRANCH  75  76
ENDBRANCH  73  75
ENDBRANCH  70  71
ENDBRANCH  68  70
ENDBRANCH  64  65
ENDBRANCH  63  64
ENDBRANCH  60  63
ENDBRANCH   1  59
TORSDOF 37
BEGIN_RES LYS A 131
REMARK  4 active torsions:
REMARK  status: ('A' for Active; 'I' for Inactive)
REMARK    1  A    between atoms: CA   and  CB  
REMARK    2  A    between atoms: CB   and  CG  
REMARK    3  A    between atoms: CG   and  CD  
REMARK    4  A    between atoms: CD   and  CE  
ROOT
ATOM      1  CA  LYS A 131      29.867  25.555  16.977  1.00 20.52     0.186 C 
ENDROOT
BRANCH   1   2
ATOM      2  CB  LYS A 131      28.345  25.722  17.026  1.00 20.94     0.034 C 
BRANCH   2   3
ATOM      3  CG  LYS A 131      27.602  24.398  16.929  1.00 22.96     0.005 C 
BRANCH   3   4
ATOM      4  CD  LYS A 131      26.182  24.509  17.411  1.00 24.33     0.041 C 
BRANCH   4   5
ATOM      5  CE  LYS A 131      26.025  23.733  18.714  1.00 26.91     0.338 C 
ATOM      6  NZ  LYS A 131      24.820  22.871  18.663  1.00 27.40     0.618 N 
ENDBRANCH   4   5
ENDBRANCH   3   4
ENDBRANCH   2   3
ENDBRANCH   1   2
END_RES LYS A 131
BEGIN_RES LYS A 135
REMARK  4 active torsions:
REMARK  status: ('A' for Active; 'I' for Inactive)
REMARK    5  A    between atoms: CA   and  CB  
REMARK    6  A    between atoms: CB   and  CG  
REMARK    7  A    between atoms: CG   and  CD  
REMARK    8  A    between atoms: CD   and  CE  
ROOT
ATOM      7  CA  LYS A 135      33.193  34.663   9.290  1.00 25.02     0.186 C 
ENDROOT
BRANCH   7   8
ATOM      8  CB  LYS A 135      32.060  35.360  10.034  1.00 26.63     0.034 C 
BRANCH   8   9
ATOM      9  CG  LYS A 135      30.709  35.164   9.395  1.00 29.45     0.005 C 
BRANCH   9  10
ATOM     10  CD  LYS A 135      29.713  34.614  10.404  1.00 32.00     0.041 C 
BRANCH  10  11
ATOM     11  CE  LYS A 135      28.444  34.161   9.707  1.00 34.25     0.338 C 
ATOM     12  NZ  LYS A 135      28.474  34.510   8.260  1.00 35.99     0.618 N 
ENDBRANCH  10  11
ENDBRANCH   9  10
ENDBRANCH   8   9
ENDBRANCH   7   8
END_RES LYS A 135
