REMARK VINA RESULT:    -5.165      5.666     10.670
REMARK INTER + INTRA:         -23.219
REMARK INTER:                 -14.730
REMARK INTRA:                  -8.488
REMARK UNBOUND:                -9.598
REMARK SMILES CC(=O)N[C@@H]1[C@@H](O)C[C@](OC[C@H]2O[C@@H](O[C@H]3[C@H](O)[C@@H](O)[C@H](OCCN=[N+]=[N-])O[C@@H]3CO)[C@H](O)[C@@H](O)[C@H]2O)(C(=O)O)O[C@H]1C(O)[C@H](O)CNC(=O)OCc1cn(Cc2ccccc2OC(C)=O)nn1
REMARK SMILES IDX 43 1 42 2 9 3 8 4 41 5 6 6 5 7 10 8 11 9 12 10 14 11 13 12
REMARK SMILES IDX 32 13 34 14 36 15 15 16 16 17 29 18 28 19 21 20 17 21 19 22
REMARK SMILES IDX 30 23 31 24 22 26 23 27 24 28 25 29 26 30 27 31 18 32 20 34
REMARK SMILES IDX 33 36 35 38 37 40 38 42 39 43 40 44 7 46 4 48 2 49 1 51 3 52
REMARK SMILES IDX 44 53 45 55 46 56 47 58 48 59 49 60 50 62 51 63 52 64 53 65
REMARK SMILES IDX 54 66 68 67 55 68 67 69 56 70 57 71 62 72 58 73 61 74 59 75
REMARK SMILES IDX 60 76 63 77 64 78 66 79 65 80
REMARK H PARENT 31 25 18 33 20 35 33 37 35 39 37 41 40 45 7 47 4 50 44 54
REMARK H PARENT 46 57 48 61
REMARK Flexibility Score: inf
ROOT
ATOM      1  C   UNL     1      29.746  36.029  17.857  1.00  0.00     0.176 C 
ENDROOT
BRANCH   1   2
ATOM      2  C   UNL     1      30.245  34.642  17.480  1.00  0.00     0.178 C 
ATOM      3  C   UNL     1      29.538  32.687  16.425  1.00  0.00     0.272 C 
ATOM      4  C   UNL     1      30.776  32.197  17.167  1.00  0.00     0.113 C 
ATOM      5  O   UNL     1      29.179  33.953  16.947  1.00  0.00    -0.332 OA
ATOM      6  C   UNL     1      30.553  32.533  18.632  1.00  0.00     0.145 C 
ATOM      7  C   UNL     1      30.708  33.997  18.787  1.00  0.00     0.142 C 
BRANCH   3   8
ATOM      8  O   UNL     1      28.448  31.889  16.608  1.00  0.00    -0.338 OA
BRANCH   8   9
ATOM      9  C   UNL     1      28.435  30.657  16.035  1.00  0.00     0.199 C 
BRANCH   9  10
ATOM     10  C   UNL     1      27.139  29.953  16.471  1.00  0.00     0.179 C 
ATOM     11  C   UNL     1      25.803  29.621  18.312  1.00  0.00     0.282 C 
ATOM     12  O   UNL     1      26.935  30.342  17.799  1.00  0.00    -0.341 OA
ATOM     13  C   UNL     1      24.620  30.265  17.680  1.00  0.00     0.202 C 
ATOM     14  C   UNL     1      24.703  29.934  16.179  1.00  0.00     0.179 C 
ATOM     15  C   UNL     1      26.004  30.359  15.588  1.00  0.00     0.177 C 
BRANCH  11  16
ATOM     16  O   UNL     1      25.936  29.723  19.676  1.00  0.00    -0.341 OA
BRANCH  16  17
ATOM     17  C   UNL     1      27.180  29.227  20.106  1.00  0.00     0.184 C 
ATOM     18  C   UNL     1      27.105  27.909  20.783  1.00  0.00     0.178 C 
ATOM     19  O   UNL     1      27.856  27.854  21.961  1.00  0.00    -0.341 OA
ATOM     20  C   UNL     1      29.139  28.371  21.841  1.00  0.00     0.281 C 
ATOM     21  C   UNL     1      27.661  30.210  21.239  1.00  0.00     0.180 C 
ATOM     22  C   UNL     1      29.104  29.852  21.468  1.00  0.00     0.202 C 
BRANCH  18  23
ATOM     23  C   UNL     1      27.333  26.709  19.918  1.00  0.00     0.191 C 
BRANCH  23  24
ATOM     24  O   UNL     1      28.054  27.085  18.795  1.00  0.00    -0.394 OA
ATOM     25  H   UNL     1      28.926  26.638  18.782  1.00  0.00     0.210 HD
ENDBRANCH  23  24
ENDBRANCH  18  23
BRANCH  20  26
ATOM     26  O   UNL     1      29.849  27.725  20.892  1.00  0.00    -0.350 OA
BRANCH  26  27
ATOM     27  C   UNL     1      31.065  27.211  21.152  1.00  0.00     0.169 C 
BRANCH  27  28
ATOM     28  C   UNL     1      31.589  27.273  22.541  1.00  0.00     0.119 C 
BRANCH  28  29
ATOM     29  N   UNL     1      32.711  28.145  22.631  1.00  0.00    -0.092 NA
ATOM     30  N   UNL     1      32.804  29.170  21.992  1.00  0.00     0.001 N 
ATOM     31  N   UNL     1      32.666  30.296  21.504  1.00  0.00    -0.003 NA
ENDBRANCH  28  29
ENDBRANCH  27  28
ENDBRANCH  26  27
ENDBRANCH  20  26
BRANCH  21  32
ATOM     32  O   UNL     1      27.459  31.506  20.834  1.00  0.00    -0.387 OA
ATOM     33  H   UNL     1      26.676  31.904  21.332  1.00  0.00     0.211 HD
ENDBRANCH  21  32
BRANCH  22  34
ATOM     34  O   UNL     1      29.710  30.661  22.404  1.00  0.00    -0.385 OA
ATOM     35  H   UNL     1      29.960  30.080  23.177  1.00  0.00     0.211 HD
ENDBRANCH  22  34
ENDBRANCH  16  17
ENDBRANCH  11  16
BRANCH  13  36
ATOM     36  O   UNL     1      23.408  29.735  18.094  1.00  0.00    -0.385 OA
ATOM     37  H   UNL     1      23.446  28.795  18.367  1.00  0.00     0.211 HD
ENDBRANCH  13  36
BRANCH  14  38
ATOM     38  O   UNL     1      23.609  30.485  15.509  1.00  0.00    -0.387 OA
ATOM     39  H   UNL     1      23.893  30.593  14.556  1.00  0.00     0.211 HD
ENDBRANCH  14  38
BRANCH  15  40
ATOM     40  O   UNL     1      25.954  31.734  15.370  1.00  0.00    -0.387 OA
ATOM     41  H   UNL     1      26.550  32.039  14.661  1.00  0.00     0.211 HD
ENDBRANCH  15  40
ENDBRANCH   9  10
ENDBRANCH   8   9
ENDBRANCH   3   8
BRANCH   3  42
ATOM     42  C   UNL     1      29.950  32.854  15.014  1.00  0.00     0.364 C 
ATOM     43  O   UNL     1      29.298  33.515  14.209  1.00  0.00    -0.246 OA
BRANCH  42  44
ATOM     44  O   UNL     1      31.127  32.236  14.586  1.00  0.00    -0.477 OA
ATOM     45  H   UNL     1      31.901  32.779  14.177  1.00  0.00     0.296 HD
ENDBRANCH  42  44
ENDBRANCH   3  42
BRANCH   6  46
ATOM     46  O   UNL     1      29.220  32.205  18.897  1.00  0.00    -0.391 OA
ATOM     47  H   UNL     1      28.834  31.568  18.250  1.00  0.00     0.211 HD
ENDBRANCH   6  46
BRANCH   7  48
ATOM     48  N   UNL     1      31.967  34.489  19.165  1.00  0.00    -0.348 N 
ATOM     49  C   UNL     1      32.374  34.698  20.513  1.00  0.00     0.217 C 
ATOM     50  H   UNL     1      32.657  34.720  18.394  1.00  0.00     0.163 HD
ATOM     51  C   UNL     1      33.704  35.217  20.870  1.00  0.00     0.114 C 
ATOM     52  O   UNL     1      31.547  34.419  21.392  1.00  0.00    -0.275 OA
ENDBRANCH   7  48
ENDBRANCH   1   2
BRANCH   1  53
ATOM     53  O   UNL     1      29.952  36.166  19.217  1.00  0.00    -0.388 OA
ATOM     54  H   UNL     1      29.144  36.082  19.765  1.00  0.00     0.211 HD
ENDBRANCH   1  53
BRANCH   1  55
ATOM     55  C   UNL     1      30.316  37.122  17.016  1.00  0.00     0.165 C 
BRANCH  55  56
ATOM     56  O   UNL     1      30.561  38.217  17.849  1.00  0.00    -0.388 OA
ATOM     57  H   UNL     1      29.788  38.797  17.931  1.00  0.00     0.211 HD
ENDBRANCH  55  56
BRANCH  55  58
ATOM     58  C   UNL     1      29.421  37.509  15.863  1.00  0.00     0.154 C 
BRANCH  58  59
ATOM     59  N   UNL     1      28.690  36.427  15.289  1.00  0.00    -0.319 N 
ATOM     60  C   UNL     1      27.275  36.368  15.216  1.00  0.00     0.407 C 
ATOM     61  H   UNL     1      29.218  35.607  14.885  1.00  0.00     0.167 HD
ATOM     62  O   UNL     1      26.623  37.330  15.692  1.00  0.00    -0.225 OA
BRANCH  60  63
ATOM     63  O   UNL     1      26.583  35.319  14.659  1.00  0.00    -0.443 OA
BRANCH  63  64
ATOM     64  C   UNL     1      25.413  35.506  13.862  1.00  0.00     0.294 C 
BRANCH  64  65
ATOM     65  C   UNL     1      25.753  35.712  12.447  1.00  0.00     0.120 A 
ATOM     66  C   UNL     1      25.863  34.695  11.528  1.00  0.00     0.138 A 
ATOM     67  N   UNL     1      26.010  36.841  11.776  1.00  0.00    -0.132 NA
ATOM     68  N   UNL     1      26.178  35.217  10.341  1.00  0.00    -0.248 N 
ATOM     69  N   UNL     1      26.262  36.547  10.531  1.00  0.00    -0.067 NA
BRANCH  68  70
ATOM     70  C   UNL     1      26.414  34.569   9.065  1.00  0.00     0.185 C 
BRANCH  70  71
ATOM     71  C   UNL     1      27.833  34.594   8.695  1.00  0.00     0.016 A 
ATOM     72  C   UNL     1      28.270  35.176   7.556  1.00  0.00     0.135 A 
ATOM     73  C   UNL     1      28.728  33.995   9.585  1.00  0.00     0.009 A 
ATOM     74  C   UNL     1      29.638  35.173   7.278  1.00  0.00     0.047 A 
ATOM     75  C   UNL     1      30.070  33.997   9.302  1.00  0.00     0.001 A 
ATOM     76  C   UNL     1      30.535  34.586   8.149  1.00  0.00     0.004 A 
BRANCH  72  77
ATOM     77  O   UNL     1      27.425  35.777   6.645  1.00  0.00    -0.426 OA
BRANCH  77  78
ATOM     78  C   UNL     1      27.490  37.168   6.512  1.00  0.00     0.308 C 
ATOM     79  O   UNL     1      27.169  37.881   7.489  1.00  0.00    -0.252 OA
ATOM     80  C   UNL     1      27.928  37.762   5.246  1.00  0.00     0.139 C 
ENDBRANCH  77  78
ENDBRANCH  72  77
ENDBRANCH  70  71
ENDBRANCH  68  70
ENDBRANCH  64  65
ENDBRANCH  63  64
ENDBRANCH  60  63
ENDBRANCH  58  59
ENDBRANCH  55  58
ENDBRANCH   1  55
TORSDOF 33
BEGIN_RES LYS A 131
REMARK  4 active torsions:
REMARK  status: ('A' for Active; 'I' for Inactive)
REMARK    1  A    between atoms: CA   and  CB  
REMARK    2  A    between atoms: CB   and  CG  
REMARK    3  A    between atoms: CG   and  CD  
REMARK    4  A    between atoms: CD   and  CE  
ROOT
ATOM      1  CA  LYS A 131      29.867  25.555  16.977  1.00 20.52     0.186 C 
ENDROOT
BRANCH   1   2
ATOM      2  CB  LYS A 131      28.345  25.722  17.026  1.00 20.94     0.034 C 
BRANCH   2   3
ATOM      3  CG  LYS A 131      27.599  24.464  16.609  1.00 22.96     0.005 C 
BRANCH   3   4
ATOM      4  CD  LYS A 131      26.643  23.995  17.670  1.00 24.33     0.041 C 
BRANCH   4   5
ATOM      5  CE  LYS A 131      25.210  24.263  17.219  1.00 26.91     0.338 C 
ATOM      6  NZ  LYS A 131      24.555  25.237  18.124  1.00 27.40     0.618 N 
ENDBRANCH   4   5
ENDBRANCH   3   4
ENDBRANCH   2   3
ENDBRANCH   1   2
END_RES LYS A 131
BEGIN_RES LYS A 135
REMARK  4 active torsions:
REMARK  status: ('A' for Active; 'I' for Inactive)
REMARK    5  A    between atoms: CA   and  CB  
REMARK    6  A    between atoms: CB   and  CG  
REMARK    7  A    between atoms: CG   and  CD  
REMARK    8  A    between atoms: CD   and  CE  
ROOT
ATOM      7  CA  LYS A 135      33.193  34.663   9.290  1.00 25.02     0.186 C 
ENDROOT
BRANCH   7   8
ATOM      8  CB  LYS A 135      32.060  35.360  10.034  1.00 26.63     0.034 C 
BRANCH   8   9
ATOM      9  CG  LYS A 135      32.499  36.026  11.312  1.00 29.45     0.005 C 
BRANCH   9  10
ATOM     10  CD  LYS A 135      31.749  35.449  12.503  1.00 32.00     0.041 C 
BRANCH  10  11
ATOM     11  CE  LYS A 135      32.690  35.235  13.673  1.00 34.25     0.338 C 
ATOM     12  NZ  LYS A 135      32.665  36.399  14.602  1.00 35.99     0.618 N 
ENDBRANCH  10  11
ENDBRANCH   9  10
ENDBRANCH   8   9
ENDBRANCH   7   8
END_RES LYS A 135
