REMARK VINA RESULT:    -3.605      8.409     14.016
REMARK INTER + INTRA:         -20.880
REMARK INTER:                  -8.522
REMARK INTRA:                 -12.358
REMARK UNBOUND:               -11.690
REMARK SMILES CC(=O)N[C@@H]1[C@@H](O)C[C@](OC[C@H]2O[C@@H](O[C@H]3[C@H](O)[C@@H](O)[C@H](OCCN=[N+]=[N-])O[C@@H]3CO)[C@H](O)[C@@H](O)[C@H]2O)(C(=O)O)O[C@H]1C(O)[C@H](O)CNC(=O)OCc1cn(CCO)nn1
REMARK SMILES IDX 9 1 8 2 6 3 5 4 42 5 41 6 10 7 11 8 12 9 14 10 13 11 32 12
REMARK SMILES IDX 34 13 36 14 15 15 16 16 29 17 28 18 21 19 17 20 19 21 30 22
REMARK SMILES IDX 31 23 22 25 23 26 24 27 25 28 26 29 27 30 18 31 20 33 33 35
REMARK SMILES IDX 35 37 37 39 38 41 39 42 40 43 7 45 43 47 44 48 45 50 46 51
REMARK SMILES IDX 47 53 48 54 49 55 50 57 51 58 52 59 53 60 54 61 60 62 55 63
REMARK SMILES IDX 59 64 56 65 57 66 58 67 4 69 2 70 1 72 3 73
REMARK H PARENT 31 24 18 32 20 34 33 36 35 38 37 40 40 44 7 46 44 49 46 52
REMARK H PARENT 48 56 58 68 4 71
REMARK Flexibility Score: inf
ROOT
ATOM      1  C   UNL     1      24.758  36.631   9.369  1.00  0.00     0.272 C 
ATOM      2  C   UNL     1      23.820  35.469   9.326  1.00  0.00     0.113 C 
ATOM      3  C   UNL     1      22.538  35.814  10.033  1.00  0.00     0.145 C 
ATOM      4  C   UNL     1      22.001  37.067   9.340  1.00  0.00     0.142 C 
ATOM      5  C   UNL     1      23.004  38.174   9.644  1.00  0.00     0.178 C 
ATOM      6  O   UNL     1      24.157  37.773   8.929  1.00  0.00    -0.332 OA
ENDROOT
BRANCH   1   7
ATOM      7  O   UNL     1      25.888  36.402   8.551  1.00  0.00    -0.338 OA
BRANCH   7   8
ATOM      8  C   UNL     1      25.924  37.094   7.386  1.00  0.00     0.199 C 
BRANCH   8   9
ATOM      9  C   UNL     1      26.996  38.195   7.429  1.00  0.00     0.179 C 
ATOM     10  C   UNL     1      28.957  38.821   8.500  1.00  0.00     0.282 C 
ATOM     11  O   UNL     1      27.849  37.975   8.490  1.00  0.00    -0.341 OA
ATOM     12  C   UNL     1      29.836  38.625   7.293  1.00  0.00     0.202 C 
ATOM     13  C   UNL     1      29.129  37.984   6.126  1.00  0.00     0.179 C 
ATOM     14  C   UNL     1      27.683  38.393   6.122  1.00  0.00     0.177 C 
BRANCH  10  15
ATOM     15  O   UNL     1      29.654  38.522   9.608  1.00  0.00    -0.341 OA
BRANCH  15  16
ATOM     16  C   UNL     1      29.587  39.288  10.708  1.00  0.00     0.184 C 
ATOM     17  C   UNL     1      30.721  40.082  11.181  1.00  0.00     0.178 C 
ATOM     18  O   UNL     1      30.746  40.124  12.564  1.00  0.00    -0.341 OA
ATOM     19  C   UNL     1      29.568  40.285  13.220  1.00  0.00     0.281 C 
ATOM     20  C   UNL     1      29.231  38.305  11.854  1.00  0.00     0.180 C 
ATOM     21  C   UNL     1      28.559  39.171  12.898  1.00  0.00     0.202 C 
BRANCH  17  22
ATOM     22  C   UNL     1      30.706  41.525  10.684  1.00  0.00     0.191 C 
BRANCH  22  23
ATOM     23  O   UNL     1      30.102  41.635   9.430  1.00  0.00    -0.394 OA
ATOM     24  H   UNL     1      30.752  42.020   8.812  1.00  0.00     0.210 HD
ENDBRANCH  22  23
ENDBRANCH  17  22
BRANCH  19  25
ATOM     25  O   UNL     1      28.987  41.520  13.164  1.00  0.00    -0.350 OA
BRANCH  25  26
ATOM     26  C   UNL     1      27.657  41.570  12.875  1.00  0.00     0.169 C 
BRANCH  26  27
ATOM     27  C   UNL     1      27.328  42.757  12.034  1.00  0.00     0.119 C 
BRANCH  27  28
ATOM     28  N   UNL     1      27.319  42.355  10.617  1.00  0.00    -0.092 NA
ATOM     29  N   UNL     1      26.756  41.269  10.388  1.00  0.00     0.001 N 
ATOM     30  N   UNL     1      25.808  40.578   9.977  1.00  0.00    -0.003 NA
ENDBRANCH  27  28
ENDBRANCH  26  27
ENDBRANCH  25  26
ENDBRANCH  19  25
BRANCH  20  31
ATOM     31  O   UNL     1      28.436  37.288  11.397  1.00  0.00    -0.387 OA
ATOM     32  H   UNL     1      28.831  36.806  10.627  1.00  0.00     0.211 HD
ENDBRANCH  20  31
BRANCH  21  33
ATOM     33  O   UNL     1      28.193  38.435  13.992  1.00  0.00    -0.385 OA
ATOM     34  H   UNL     1      28.956  37.970  14.417  1.00  0.00     0.211 HD
ENDBRANCH  21  33
ENDBRANCH  15  16
ENDBRANCH  10  15
BRANCH  12  35
ATOM     35  O   UNL     1      30.231  39.895   6.844  1.00  0.00    -0.385 OA
ATOM     36  H   UNL     1      30.035  40.610   7.482  1.00  0.00     0.211 HD
ENDBRANCH  12  35
BRANCH  13  37
ATOM     37  O   UNL     1      29.320  36.627   6.163  1.00  0.00    -0.387 OA
ATOM     38  H   UNL     1      30.285  36.377   6.010  1.00  0.00     0.211 HD
ENDBRANCH  13  37
BRANCH  14  39
ATOM     39  O   UNL     1      27.027  37.577   5.174  1.00  0.00    -0.387 OA
ATOM     40  H   UNL     1      27.429  36.673   5.150  1.00  0.00     0.211 HD
ENDBRANCH  14  39
ENDBRANCH   8   9
ENDBRANCH   7   8
ENDBRANCH   1   7
BRANCH   1  41
ATOM     41  C   UNL     1      25.319  36.739  10.733  1.00  0.00     0.364 C 
ATOM     42  O   UNL     1      25.572  35.748  11.442  1.00  0.00    -0.246 OA
BRANCH  41  43
ATOM     43  O   UNL     1      25.592  37.977  11.289  1.00  0.00    -0.477 OA
ATOM     44  H   UNL     1      26.286  38.111  12.044  1.00  0.00     0.296 HD
ENDBRANCH  41  43
ENDBRANCH   1  41
BRANCH   3  45
ATOM     45  O   UNL     1      21.570  34.807   9.823  1.00  0.00    -0.391 OA
ATOM     46  H   UNL     1      20.725  35.078  10.274  1.00  0.00     0.211 HD
ENDBRANCH   3  45
BRANCH   5  47
ATOM     47  C   UNL     1      22.562  39.429   8.963  1.00  0.00     0.176 C 
BRANCH  47  48
ATOM     48  O   UNL     1      21.791  39.161   7.830  1.00  0.00    -0.388 OA
ATOM     49  H   UNL     1      21.339  38.277   7.888  1.00  0.00     0.211 HD
ENDBRANCH  47  48
BRANCH  47  50
ATOM     50  C   UNL     1      21.934  40.497   9.770  1.00  0.00     0.165 C 
BRANCH  50  51
ATOM     51  O   UNL     1      20.548  40.459   9.307  1.00  0.00    -0.388 OA
ATOM     52  H   UNL     1      20.002  40.044  10.014  1.00  0.00     0.211 HD
ENDBRANCH  50  51
BRANCH  50  53
ATOM     53  C   UNL     1      22.331  41.905   9.364  1.00  0.00     0.154 C 
BRANCH  53  54
ATOM     54  N   UNL     1      23.157  41.960   8.201  1.00  0.00    -0.319 N 
ATOM     55  C   UNL     1      24.216  42.898   8.105  1.00  0.00     0.407 C 
ATOM     56  H   UNL     1      22.998  41.316   7.375  1.00  0.00     0.167 HD
ATOM     57  O   UNL     1      24.370  43.677   9.106  1.00  0.00    -0.225 OA
BRANCH  55  58
ATOM     58  O   UNL     1      25.078  43.039   7.051  1.00  0.00    -0.443 OA
BRANCH  58  59
ATOM     59  C   UNL     1      25.827  41.919   6.619  1.00  0.00     0.294 C 
BRANCH  59  60
ATOM     60  C   UNL     1      27.237  42.232   6.376  1.00  0.00     0.120 A 
ATOM     61  C   UNL     1      27.766  42.658   5.183  1.00  0.00     0.138 A 
ATOM     62  N   UNL     1      28.274  42.174   7.228  1.00  0.00    -0.132 NA
ATOM     63  N   UNL     1      29.092  42.847   5.328  1.00  0.00    -0.250 N 
ATOM     64  N   UNL     1      29.381  42.549   6.574  1.00  0.00    -0.067 NA
BRANCH  63  65
ATOM     65  C   UNL     1      30.011  43.302   4.275  1.00  0.00     0.174 C 
BRANCH  65  66
ATOM     66  C   UNL     1      30.534  42.087   3.549  1.00  0.00     0.179 C 
BRANCH  66  67
ATOM     67  O   UNL     1      31.139  41.255   4.506  1.00  0.00    -0.394 OA
ATOM     68  H   UNL     1      31.966  41.619   4.867  1.00  0.00     0.210 HD
ENDBRANCH  66  67
ENDBRANCH  65  66
ENDBRANCH  63  65
ENDBRANCH  59  60
ENDBRANCH  58  59
ENDBRANCH  55  58
ENDBRANCH  53  54
ENDBRANCH  50  53
ENDBRANCH  47  50
ENDBRANCH   5  47
BRANCH   4  69
ATOM     69  N   UNL     1      20.649  37.337   9.632  1.00  0.00    -0.348 N 
ATOM     70  C   UNL     1      19.544  36.966   8.831  1.00  0.00     0.217 C 
ATOM     71  H   UNL     1      20.405  37.842  10.522  1.00  0.00     0.163 HD
ATOM     72  C   UNL     1      18.176  37.320   9.260  1.00  0.00     0.114 C 
ATOM     73  O   UNL     1      19.706  36.346   7.769  1.00  0.00    -0.275 OA
ENDBRANCH   4  69
TORSDOF 32
BEGIN_RES LYS A 131
REMARK  4 active torsions:
REMARK  status: ('A' for Active; 'I' for Inactive)
REMARK    1  A    between atoms: CA   and  CB  
REMARK    2  A    between atoms: CB   and  CG  
REMARK    3  A    between atoms: CG   and  CD  
REMARK    4  A    between atoms: CD   and  CE  
ROOT
ATOM      1  CA  LYS A 131      29.867  25.555  16.977  1.00 20.52     0.186 C 
ENDROOT
BRANCH   1   2
ATOM      2  CB  LYS A 131      28.345  25.722  17.026  1.00 20.94     0.034 C 
BRANCH   2   3
ATOM      3  CG  LYS A 131      27.602  24.397  16.949  1.00 22.96     0.005 C 
BRANCH   3   4
ATOM      4  CD  LYS A 131      26.127  24.560  17.186  1.00 24.33     0.041 C 
BRANCH   4   5
ATOM      5  CE  LYS A 131      25.555  23.262  17.747  1.00 26.91     0.338 C 
ATOM      6  NZ  LYS A 131      25.644  23.253  19.226  1.00 27.40     0.618 N 
ENDBRANCH   4   5
ENDBRANCH   3   4
ENDBRANCH   2   3
ENDBRANCH   1   2
END_RES LYS A 131
BEGIN_RES LYS A 135
REMARK  4 active torsions:
REMARK  status: ('A' for Active; 'I' for Inactive)
REMARK    5  A    between atoms: CA   and  CB  
REMARK    6  A    between atoms: CB   and  CG  
REMARK    7  A    between atoms: CG   and  CD  
REMARK    8  A    between atoms: CD   and  CE  
ROOT
ATOM      7  CA  LYS A 135      33.193  34.663   9.290  1.00 25.02     0.186 C 
ENDROOT
BRANCH   7   8
ATOM      8  CB  LYS A 135      32.060  35.360  10.034  1.00 26.63     0.034 C 
BRANCH   8   9
ATOM      9  CG  LYS A 135      30.801  35.501   9.218  1.00 29.45     0.005 C 
BRANCH   9  10
ATOM     10  CD  LYS A 135      30.141  34.147   9.011  1.00 32.00     0.041 C 
BRANCH  10  11
ATOM     11  CE  LYS A 135      28.678  34.317   8.648  1.00 34.25     0.338 C 
ATOM     12  NZ  LYS A 135      27.794  33.753   9.705  1.00 35.99     0.618 N 
ENDBRANCH  10  11
ENDBRANCH   9  10
ENDBRANCH   8   9
ENDBRANCH   7   8
END_RES LYS A 135
