REMARK VINA RESULT:    -4.740      3.765      8.779
REMARK INTER + INTRA:         -22.865
REMARK INTER:                 -12.372
REMARK INTRA:                 -10.493
REMARK UNBOUND:               -11.198
REMARK SMILES CC(=O)N[C@@H]1[C@@H](O)C[C@](OC[C@H]2O[C@@H](O[C@H]3[C@H](O)[C@@H](O)[C@H](OCCN=[N+]=[N-])O[C@@H]3CO)[C@H](O)[C@@H](O)[C@H]2O)(C(=O)O)O[C@H]1C(O)[C@H](O)CNC(=O)OCc1cn(C23CC4CC(CC(C4)C2)C3)nn1
REMARK SMILES IDX 9 1 8 2 6 3 5 4 42 5 41 6 10 7 11 8 12 9 14 10 13 11 32 12
REMARK SMILES IDX 34 13 36 14 15 15 16 16 29 17 28 18 21 19 17 20 19 21 30 22
REMARK SMILES IDX 31 23 22 25 23 26 24 27 25 28 26 29 27 30 18 31 20 33 33 35
REMARK SMILES IDX 35 37 37 39 38 41 39 42 40 43 7 45 43 47 44 48 45 50 46 51
REMARK SMILES IDX 47 53 48 54 49 55 50 57 51 58 52 59 53 60 54 61 67 62 55 63
REMARK SMILES IDX 66 64 56 65 65 66 64 67 57 68 60 69 62 70 58 71 59 72 61 73
REMARK SMILES IDX 63 74 4 75 2 76 1 78 3 79
REMARK H PARENT 31 24 18 32 20 34 33 36 35 38 37 40 40 44 7 46 44 49 46 52
REMARK H PARENT 48 56 4 77
REMARK Flexibility Score: inf
ROOT
ATOM      1  C   UNL     1      26.040  34.265  15.773  1.00  0.00     0.272 C 
ATOM      2  C   UNL     1      26.328  33.428  16.973  1.00  0.00     0.113 C 
ATOM      3  C   UNL     1      26.880  32.077  16.564  1.00  0.00     0.145 C 
ATOM      4  C   UNL     1      25.675  31.308  16.004  1.00  0.00     0.142 C 
ATOM      5  C   UNL     1      24.979  32.270  15.087  1.00  0.00     0.178 C 
ATOM      6  O   UNL     1      25.719  33.358  14.699  1.00  0.00    -0.332 OA
ENDROOT
BRANCH   1   7
ATOM      7  O   UNL     1      27.025  35.005  15.285  1.00  0.00    -0.338 OA
BRANCH   7   8
ATOM      8  C   UNL     1      27.863  35.808  15.889  1.00  0.00     0.199 C 
BRANCH   8   9
ATOM      9  C   UNL     1      29.340  35.596  15.931  1.00  0.00     0.179 C 
ATOM     10  C   UNL     1      31.019  34.156  16.329  1.00  0.00     0.282 C 
ATOM     11  O   UNL     1      29.611  34.232  16.311  1.00  0.00    -0.341 OA
ATOM     12  C   UNL     1      31.419  33.779  14.940  1.00  0.00     0.202 C 
ATOM     13  C   UNL     1      30.481  34.495  13.986  1.00  0.00     0.179 C 
ATOM     14  C   UNL     1      29.988  35.799  14.565  1.00  0.00     0.177 C 
BRANCH  10  15
ATOM     15  O   UNL     1      31.458  33.283  17.317  1.00  0.00    -0.341 OA
BRANCH  15  16
ATOM     16  C   UNL     1      30.391  32.829  18.033  1.00  0.00     0.184 C 
ATOM     17  C   UNL     1      30.321  33.203  19.469  1.00  0.00     0.178 C 
ATOM     18  O   UNL     1      28.975  33.010  19.857  1.00  0.00    -0.341 OA
ATOM     19  C   UNL     1      28.666  31.631  19.928  1.00  0.00     0.281 C 
ATOM     20  C   UNL     1      30.292  31.300  18.014  1.00  0.00     0.180 C 
ATOM     21  C   UNL     1      29.004  30.923  18.659  1.00  0.00     0.202 C 
BRANCH  17  22
ATOM     22  C   UNL     1      30.802  34.557  19.833  1.00  0.00     0.191 C 
BRANCH  22  23
ATOM     23  O   UNL     1      30.304  34.854  21.112  1.00  0.00    -0.394 OA
ATOM     24  H   UNL     1      30.407  34.086  21.731  1.00  0.00     0.210 HD
ENDBRANCH  22  23
ENDBRANCH  17  22
BRANCH  19  25
ATOM     25  O   UNL     1      27.303  31.585  20.111  1.00  0.00    -0.350 OA
BRANCH  25  26
ATOM     26  C   UNL     1      26.854  30.924  21.193  1.00  0.00     0.169 C 
BRANCH  26  27
ATOM     27  C   UNL     1      25.834  29.882  20.860  1.00  0.00     0.119 C 
BRANCH  27  28
ATOM     28  N   UNL     1      26.491  28.644  20.424  1.00  0.00    -0.092 NA
ATOM     29  N   UNL     1      27.194  28.062  21.241  1.00  0.00     0.001 N 
ATOM     30  N   UNL     1      28.134  27.485  21.828  1.00  0.00    -0.003 NA
ENDBRANCH  27  28
ENDBRANCH  26  27
ENDBRANCH  25  26
ENDBRANCH  19  25
BRANCH  20  31
ATOM     31  O   UNL     1      30.300  30.808  16.709  1.00  0.00    -0.387 OA
ATOM     32  H   UNL     1      30.442  29.836  16.736  1.00  0.00     0.211 HD
ENDBRANCH  20  31
BRANCH  21  33
ATOM     33  O   UNL     1      29.056  29.552  18.905  1.00  0.00    -0.385 OA
ATOM     34  H   UNL     1      28.864  29.046  18.092  1.00  0.00     0.211 HD
ENDBRANCH  21  33
ENDBRANCH  15  16
ENDBRANCH  10  15
BRANCH  12  35
ATOM     35  O   UNL     1      32.737  33.988  14.623  1.00  0.00    -0.385 OA
ATOM     36  H   UNL     1      32.895  34.941  14.422  1.00  0.00     0.211 HD
ENDBRANCH  12  35
BRANCH  13  37
ATOM     37  O   UNL     1      29.427  33.692  13.570  1.00  0.00    -0.387 OA
ATOM     38  H   UNL     1      29.085  33.167  14.362  1.00  0.00     0.211 HD
ENDBRANCH  13  37
BRANCH  14  39
ATOM     39  O   UNL     1      29.019  36.305  13.711  1.00  0.00    -0.387 OA
ATOM     40  H   UNL     1      28.313  36.798  14.205  1.00  0.00     0.211 HD
ENDBRANCH  14  39
ENDBRANCH   8   9
ENDBRANCH   7   8
ENDBRANCH   1   7
BRANCH   1  41
ATOM     41  C   UNL     1      24.769  34.984  15.955  1.00  0.00     0.364 C 
ATOM     42  O   UNL     1      24.151  35.129  17.018  1.00  0.00    -0.246 OA
BRANCH  41  43
ATOM     43  O   UNL     1      24.225  35.554  14.765  1.00  0.00    -0.477 OA
ATOM     44  H   UNL     1      24.786  35.548  13.940  1.00  0.00     0.296 HD
ENDBRANCH  41  43
ENDBRANCH   1  41
BRANCH   3  45
ATOM     45  O   UNL     1      27.781  32.243  15.521  1.00  0.00    -0.391 OA
ATOM     46  H   UNL     1      28.233  33.114  15.660  1.00  0.00     0.211 HD
ENDBRANCH   3  45
BRANCH   5  47
ATOM     47  C   UNL     1      24.623  31.572  13.720  1.00  0.00     0.176 C 
BRANCH  47  48
ATOM     48  O   UNL     1      24.839  32.636  12.819  1.00  0.00    -0.388 OA
ATOM     49  H   UNL     1      24.148  32.528  12.120  1.00  0.00     0.211 HD
ENDBRANCH  47  48
BRANCH  47  50
ATOM     50  C   UNL     1      23.214  31.181  13.704  1.00  0.00     0.165 C 
BRANCH  50  51
ATOM     51  O   UNL     1      22.726  30.722  12.467  1.00  0.00    -0.388 OA
ATOM     52  H   UNL     1      23.491  30.351  11.934  1.00  0.00     0.211 HD
ENDBRANCH  50  51
BRANCH  50  53
ATOM     53  C   UNL     1      22.227  32.118  14.285  1.00  0.00     0.154 C 
BRANCH  53  54
ATOM     54  N   UNL     1      22.118  33.363  13.618  1.00  0.00    -0.319 N 
ATOM     55  C   UNL     1      21.280  33.701  12.546  1.00  0.00     0.407 C 
ATOM     56  H   UNL     1      22.778  34.152  13.998  1.00  0.00     0.167 HD
ATOM     57  O   UNL     1      20.515  32.864  12.042  1.00  0.00    -0.225 OA
BRANCH  55  58
ATOM     58  O   UNL     1      21.321  35.026  12.047  1.00  0.00    -0.443 OA
BRANCH  58  59
ATOM     59  C   UNL     1      21.875  35.229  10.772  1.00  0.00     0.294 C 
BRANCH  59  60
ATOM     60  C   UNL     1      23.340  35.312  10.877  1.00  0.00     0.120 A 
ATOM     61  C   UNL     1      24.203  35.481   9.825  1.00  0.00     0.138 A 
ATOM     62  N   UNL     1      24.102  35.244  11.984  1.00  0.00    -0.132 NA
ATOM     63  N   UNL     1      25.443  35.509  10.322  1.00  0.00    -0.246 N 
ATOM     64  N   UNL     1      25.350  35.363  11.629  1.00  0.00    -0.066 NA
BRANCH  63  65
ATOM     65  C   UNL     1      26.627  35.675   9.501  1.00  0.00     0.065 C 
ATOM     66  C   UNL     1      26.253  36.435   8.268  1.00  0.00     0.034 C 
ATOM     67  C   UNL     1      27.726  36.342  10.303  1.00  0.00     0.034 C 
ATOM     68  C   UNL     1      27.148  34.314   9.076  1.00  0.00     0.034 C 
ATOM     69  C   UNL     1      27.464  36.662   7.399  1.00  0.00    -0.008 C 
ATOM     70  C   UNL     1      28.895  36.616   9.405  1.00  0.00    -0.008 C 
ATOM     71  C   UNL     1      28.378  34.544   8.231  1.00  0.00    -0.008 C 
ATOM     72  C   UNL     1      28.029  35.323   6.994  1.00  0.00     0.007 C 
ATOM     73  C   UNL     1      28.481  37.426   8.215  1.00  0.00     0.007 C 
ATOM     74  C   UNL     1      29.466  35.275   8.966  1.00  0.00     0.007 C 
ENDBRANCH  63  65
ENDBRANCH  59  60
ENDBRANCH  58  59
ENDBRANCH  55  58
ENDBRANCH  53  54
ENDBRANCH  50  53
ENDBRANCH  47  50
ENDBRANCH   5  47
BRANCH   4  75
ATOM     75  N   UNL     1      24.801  30.966  17.132  1.00  0.00    -0.348 N 
ATOM     76  C   UNL     1      24.092  29.733  17.168  1.00  0.00     0.217 C 
ATOM     77  H   UNL     1      24.684  31.637  17.931  1.00  0.00     0.163 HD
ATOM     78  C   UNL     1      23.193  29.403  18.332  1.00  0.00     0.114 C 
ATOM     79  O   UNL     1      24.236  28.940  16.212  1.00  0.00    -0.275 OA
ENDBRANCH   4  75
TORSDOF 30
BEGIN_RES LYS A 131
REMARK  4 active torsions:
REMARK  status: ('A' for Active; 'I' for Inactive)
REMARK    1  A    between atoms: CA   and  CB  
REMARK    2  A    between atoms: CB   and  CG  
REMARK    3  A    between atoms: CG   and  CD  
REMARK    4  A    between atoms: CD   and  CE  
ROOT
ATOM      1  CA  LYS A 131      29.867  25.555  16.977  1.00 20.52     0.186 C 
ENDROOT
BRANCH   1   2
ATOM      2  CB  LYS A 131      28.345  25.722  17.026  1.00 20.94     0.034 C 
BRANCH   2   3
ATOM      3  CG  LYS A 131      27.601  24.401  16.898  1.00 22.96     0.005 C 
BRANCH   3   4
ATOM      4  CD  LYS A 131      26.479  24.285  17.891  1.00 24.33     0.041 C 
BRANCH   4   5
ATOM      5  CE  LYS A 131      25.142  24.373  17.161  1.00 26.91     0.338 C 
ATOM      6  NZ  LYS A 131      24.434  23.072  17.217  1.00 27.40     0.618 N 
ENDBRANCH   4   5
ENDBRANCH   3   4
ENDBRANCH   2   3
ENDBRANCH   1   2
END_RES LYS A 131
BEGIN_RES LYS A 135
REMARK  4 active torsions:
REMARK  status: ('A' for Active; 'I' for Inactive)
REMARK    5  A    between atoms: CA   and  CB  
REMARK    6  A    between atoms: CB   and  CG  
REMARK    7  A    between atoms: CG   and  CD  
REMARK    8  A    between atoms: CD   and  CE  
ROOT
ATOM      7  CA  LYS A 135      33.193  34.663   9.290  1.00 25.02     0.186 C 
ENDROOT
BRANCH   7   8
ATOM      8  CB  LYS A 135      32.060  35.360  10.034  1.00 26.63     0.034 C 
BRANCH   8   9
ATOM      9  CG  LYS A 135      32.493  35.999  11.328  1.00 29.45     0.005 C 
BRANCH   9  10
ATOM     10  CD  LYS A 135      31.793  37.334  11.528  1.00 32.00     0.041 C 
BRANCH  10  11
ATOM     11  CE  LYS A 135      31.957  38.210  10.301  1.00 34.25     0.338 C 
ATOM     12  NZ  LYS A 135      31.530  39.610  10.579  1.00 35.99     0.618 N 
ENDBRANCH  10  11
ENDBRANCH   9  10
ENDBRANCH   8   9
ENDBRANCH   7   8
END_RES LYS A 135
