REMARK VINA RESULT:    -5.417      2.453      7.842
REMARK INTER + INTRA:         -23.788
REMARK INTER:                 -12.581
REMARK INTRA:                 -11.207
REMARK UNBOUND:                -9.504
REMARK SMILES CC(=O)N[C@@H]1[C@@H](O)C[C@](OC[C@H]2O[C@@H](O[C@H]3[C@H](O)[C@@H](O)[C@H](OCCN=[N+]=[N-])O[C@@H]3CO)[C@H](O)[C@@H](O)[C@H]2O)(C(=O)O)O[C@H]1C(O)[C@H](O)CNC(=O)OCc1cn(COCc2ccccc2)nn1
REMARK SMILES IDX 43 1 42 2 9 3 8 4 41 5 6 6 5 7 10 8 11 9 12 10 14 11 13 12
REMARK SMILES IDX 32 13 34 14 36 15 15 16 16 17 29 18 28 19 21 20 17 21 19 22
REMARK SMILES IDX 30 23 31 24 22 26 23 27 24 28 25 29 26 30 27 31 18 32 20 34
REMARK SMILES IDX 33 36 35 38 37 40 38 42 39 43 40 44 7 46 4 48 2 49 1 51 3 52
REMARK SMILES IDX 44 53 45 55 46 56 47 58 48 59 49 60 50 62 51 63 52 64 53 65
REMARK SMILES IDX 54 66 66 67 55 68 65 69 56 70 57 71 58 72 59 73 60 74 64 75
REMARK SMILES IDX 61 76 63 77 62 78
REMARK H PARENT 31 25 18 33 20 35 33 37 35 39 37 41 40 45 7 47 4 50 44 54
REMARK H PARENT 46 57 48 61
REMARK Flexibility Score: inf
ROOT
ATOM      1  C   UNL     1      28.516  37.689   7.350  1.00  0.00     0.176 C 
ENDROOT
BRANCH   1   2
ATOM      2  C   UNL     1      28.347  39.126   7.891  1.00  0.00     0.178 C 
ATOM      3  C   UNL     1      26.594  40.627   8.171  1.00  0.00     0.272 C 
ATOM      4  C   UNL     1      27.501  41.757   7.693  1.00  0.00     0.113 C 
ATOM      5  O   UNL     1      27.046  39.503   7.552  1.00  0.00    -0.332 OA
ATOM      6  C   UNL     1      28.449  41.236   6.640  1.00  0.00     0.145 C 
ATOM      7  C   UNL     1      29.303  40.086   7.257  1.00  0.00     0.142 C 
BRANCH   3   8
ATOM      8  O   UNL     1      25.260  40.902   7.810  1.00  0.00    -0.338 OA
BRANCH   8   9
ATOM      9  C   UNL     1      24.706  40.132   6.861  1.00  0.00     0.199 C 
BRANCH   9  10
ATOM     10  C   UNL     1      23.290  39.762   7.236  1.00  0.00     0.179 C 
ATOM     11  C   UNL     1      21.918  38.769   8.740  1.00  0.00     0.282 C 
ATOM     12  O   UNL     1      23.265  39.115   8.488  1.00  0.00    -0.341 OA
ATOM     13  C   UNL     1      21.120  40.006   9.138  1.00  0.00     0.202 C 
ATOM     14  C   UNL     1      21.972  41.205   8.694  1.00  0.00     0.179 C 
ATOM     15  C   UNL     1      22.353  40.913   7.257  1.00  0.00     0.177 C 
BRANCH  11  16
ATOM     16  O   UNL     1      21.901  37.901   9.797  1.00  0.00    -0.341 OA
BRANCH  16  17
ATOM     17  C   UNL     1      21.614  36.590   9.447  1.00  0.00     0.184 C 
ATOM     18  C   UNL     1      20.409  36.455   8.586  1.00  0.00     0.178 C 
ATOM     19  O   UNL     1      19.286  36.683   9.322  1.00  0.00    -0.341 OA
ATOM     20  C   UNL     1      19.008  35.733  10.276  1.00  0.00     0.281 C 
ATOM     21  C   UNL     1      21.510  35.767  10.684  1.00  0.00     0.180 C 
ATOM     22  C   UNL     1      20.176  35.206  11.013  1.00  0.00     0.202 C 
BRANCH  18  23
ATOM     23  C   UNL     1      20.428  35.116   7.885  1.00  0.00     0.191 C 
BRANCH  23  24
ATOM     24  O   UNL     1      19.447  35.051   6.889  1.00  0.00    -0.394 OA
ATOM     25  H   UNL     1      19.531  34.193   6.401  1.00  0.00     0.210 HD
ENDBRANCH  23  24
ENDBRANCH  18  23
BRANCH  20  26
ATOM     26  O   UNL     1      18.368  34.675   9.621  1.00  0.00    -0.350 OA
BRANCH  26  27
ATOM     27  C   UNL     1      16.999  34.760   9.618  1.00  0.00     0.169 C 
BRANCH  27  28
ATOM     28  C   UNL     1      16.519  34.057   8.360  1.00  0.00     0.119 C 
BRANCH  28  29
ATOM     29  N   UNL     1      16.067  32.710   8.626  1.00  0.00    -0.092 NA
ATOM     30  N   UNL     1      16.820  31.743   8.409  1.00  0.00     0.001 N 
ATOM     31  N   UNL     1      17.333  30.856   7.700  1.00  0.00    -0.003 NA
ENDBRANCH  28  29
ENDBRANCH  27  28
ENDBRANCH  26  27
ENDBRANCH  20  26
BRANCH  21  32
ATOM     32  O   UNL     1      22.404  34.664  10.603  1.00  0.00    -0.387 OA
ATOM     33  H   UNL     1      22.239  34.010  11.299  1.00  0.00     0.211 HD
ENDBRANCH  21  32
BRANCH  22  34
ATOM     34  O   UNL     1      19.930  35.458  12.389  1.00  0.00    -0.385 OA
ATOM     35  H   UNL     1      20.825  35.508  12.815  1.00  0.00     0.211 HD
ENDBRANCH  22  34
ENDBRANCH  16  17
ENDBRANCH  11  16
BRANCH  13  36
ATOM     36  O   UNL     1      19.927  40.109   8.423  1.00  0.00    -0.385 OA
ATOM     37  H   UNL     1      19.232  39.635   8.943  1.00  0.00     0.211 HD
ENDBRANCH  13  36
BRANCH  14  38
ATOM     38  O   UNL     1      23.118  41.145   9.475  1.00  0.00    -0.387 OA
ATOM     39  H   UNL     1      23.175  40.331  10.034  1.00  0.00     0.211 HD
ENDBRANCH  14  38
BRANCH  15  40
ATOM     40  O   UNL     1      22.821  42.040   6.599  1.00  0.00    -0.387 OA
ATOM     41  H   UNL     1      23.503  41.836   5.910  1.00  0.00     0.211 HD
ENDBRANCH  15  40
ENDBRANCH   9  10
ENDBRANCH   8   9
ENDBRANCH   3   8
BRANCH   3  42
ATOM     42  C   UNL     1      26.581  40.481   9.626  1.00  0.00     0.364 C 
ATOM     43  O   UNL     1      27.333  41.050  10.460  1.00  0.00    -0.246 OA
BRANCH  42  44
ATOM     44  O   UNL     1      25.631  39.611  10.213  1.00  0.00    -0.477 OA
ATOM     45  H   UNL     1      24.914  39.974  10.840  1.00  0.00     0.296 HD
ENDBRANCH  42  44
ENDBRANCH   3  42
BRANCH   6  46
ATOM     46  O   UNL     1      27.908  40.758   5.500  1.00  0.00    -0.391 OA
ATOM     47  H   UNL     1      28.177  41.285   4.685  1.00  0.00     0.211 HD
ENDBRANCH   6  46
BRANCH   7  48
ATOM     48  N   UNL     1      30.145  40.759   8.215  1.00  0.00    -0.348 N 
ATOM     49  C   UNL     1      31.425  40.232   8.484  1.00  0.00     0.217 C 
ATOM     50  H   UNL     1      29.823  41.602   8.696  1.00  0.00     0.163 HD
ATOM     51  C   UNL     1      32.318  40.916   9.458  1.00  0.00     0.114 C 
ATOM     52  O   UNL     1      31.834  39.178   7.901  1.00  0.00    -0.275 OA
ENDBRANCH   7  48
ENDBRANCH   1   2
BRANCH   1  53
ATOM     53  O   UNL     1      29.660  37.749   6.466  1.00  0.00    -0.388 OA
ATOM     54  H   UNL     1      29.979  38.699   6.515  1.00  0.00     0.211 HD
ENDBRANCH   1  53
BRANCH   1  55
ATOM     55  C   UNL     1      27.389  37.194   6.516  1.00  0.00     0.165 C 
BRANCH  55  56
ATOM     56  O   UNL     1      27.095  37.883   5.373  1.00  0.00    -0.388 OA
ATOM     57  H   UNL     1      26.438  38.605   5.482  1.00  0.00     0.211 HD
ENDBRANCH  55  56
BRANCH  55  58
ATOM     58  C   UNL     1      26.183  36.631   7.162  1.00  0.00     0.154 C 
BRANCH  58  59
ATOM     59  N   UNL     1      25.873  37.054   8.499  1.00  0.00    -0.319 N 
ATOM     60  C   UNL     1      25.193  36.261   9.459  1.00  0.00     0.407 C 
ATOM     61  H   UNL     1      26.166  38.002   8.825  1.00  0.00     0.167 HD
ATOM     62  O   UNL     1      24.831  35.114   9.173  1.00  0.00    -0.225 OA
BRANCH  60  63
ATOM     63  O   UNL     1      24.892  36.694  10.755  1.00  0.00    -0.443 OA
BRANCH  63  64
ATOM     64  C   UNL     1      25.546  36.092  11.874  1.00  0.00     0.294 C 
BRANCH  64  65
ATOM     65  C   UNL     1      26.872  36.693  12.145  1.00  0.00     0.120 A 
ATOM     66  C   UNL     1      28.002  35.955  12.426  1.00  0.00     0.141 A 
ATOM     67  N   UNL     1      27.242  37.978  12.185  1.00  0.00    -0.132 NA
ATOM     68  N   UNL     1      29.023  36.823  12.628  1.00  0.00    -0.226 N 
ATOM     69  N   UNL     1      28.527  38.042  12.475  1.00  0.00    -0.065 NA
BRANCH  68  70
ATOM     70  C   UNL     1      30.402  36.527  12.946  1.00  0.00     0.307 C 
BRANCH  70  71
ATOM     71  O   UNL     1      30.660  35.183  12.926  1.00  0.00    -0.355 OA
BRANCH  71  72
ATOM     72  C   UNL     1      31.833  34.915  13.613  1.00  0.00     0.198 C 
BRANCH  72  73
ATOM     73  C   UNL     1      31.501  34.123  14.850  1.00  0.00    -0.022 A 
ATOM     74  C   UNL     1      30.766  32.966  14.696  1.00  0.00     0.006 A 
ATOM     75  C   UNL     1      31.916  34.545  16.087  1.00  0.00     0.006 A 
ATOM     76  C   UNL     1      30.440  32.214  15.805  1.00  0.00     0.000 A 
ATOM     77  C   UNL     1      31.582  33.786  17.170  1.00  0.00     0.000 A 
ATOM     78  C   UNL     1      30.846  32.616  17.060  1.00  0.00     0.000 A 
ENDBRANCH  72  73
ENDBRANCH  71  72
ENDBRANCH  70  71
ENDBRANCH  68  70
ENDBRANCH  64  65
ENDBRANCH  63  64
ENDBRANCH  60  63
ENDBRANCH  58  59
ENDBRANCH  55  58
ENDBRANCH   1  55
TORSDOF 33
BEGIN_RES LYS A 131
REMARK  4 active torsions:
REMARK  status: ('A' for Active; 'I' for Inactive)
REMARK    1  A    between atoms: CA   and  CB  
REMARK    2  A    between atoms: CB   and  CG  
REMARK    3  A    between atoms: CG   and  CD  
REMARK    4  A    between atoms: CD   and  CE  
ROOT
ATOM      1  CA  LYS A 131      29.867  25.555  16.977  1.00 20.52     0.186 C 
ENDROOT
BRANCH   1   2
ATOM      2  CB  LYS A 131      28.345  25.722  17.026  1.00 20.94     0.034 C 
BRANCH   2   3
ATOM      3  CG  LYS A 131      27.599  24.431  16.727  1.00 22.96     0.005 C 
BRANCH   3   4
ATOM      4  CD  LYS A 131      26.197  24.447  17.271  1.00 24.33     0.041 C 
BRANCH   4   5
ATOM      5  CE  LYS A 131      26.149  23.661  18.577  1.00 26.91     0.338 C 
ATOM      6  NZ  LYS A 131      24.789  23.711  19.162  1.00 27.40     0.618 N 
ENDBRANCH   4   5
ENDBRANCH   3   4
ENDBRANCH   2   3
ENDBRANCH   1   2
END_RES LYS A 131
BEGIN_RES LYS A 135
REMARK  4 active torsions:
REMARK  status: ('A' for Active; 'I' for Inactive)
REMARK    5  A    between atoms: CA   and  CB  
REMARK    6  A    between atoms: CB   and  CG  
REMARK    7  A    between atoms: CG   and  CD  
REMARK    8  A    between atoms: CD   and  CE  
ROOT
ATOM      7  CA  LYS A 135      33.193  34.663   9.290  1.00 25.02     0.186 C 
ENDROOT
BRANCH   7   8
ATOM      8  CB  LYS A 135      32.060  35.360  10.034  1.00 26.63     0.034 C 
BRANCH   8   9
ATOM      9  CG  LYS A 135      30.898  35.732   9.150  1.00 29.45     0.005 C 
BRANCH   9  10
ATOM     10  CD  LYS A 135      30.324  34.499   8.470  1.00 32.00     0.041 C 
BRANCH  10  11
ATOM     11  CE  LYS A 135      29.397  33.754   9.412  1.00 34.25     0.338 C 
ATOM     12  NZ  LYS A 135      27.973  34.097   9.145  1.00 35.99     0.618 N 
ENDBRANCH  10  11
ENDBRANCH   9  10
ENDBRANCH   8   9
ENDBRANCH   7   8
END_RES LYS A 135
