REMARK VINA RESULT:    -5.455      2.450      4.422
REMARK INTER + INTRA:         -21.653
REMARK INTER:                  -9.795
REMARK INTRA:                 -11.858
REMARK UNBOUND:                -8.226
REMARK SMILES CC(=O)N[C@@H]1[C@@H](O)C[C@](OC[C@H]2O[C@@H](O[C@H]3[C@H](O)[C@@H](O)[C@H](OCCN=[N+]=[N-])O[C@@H]3CO)[C@H](O)[C@@H](O)[C@H]2O)(C(=O)O)O[C@H]1C(O)[C@H](O)CNC(=O)OCc1cn(-c2ccccc2Br)nn1
REMARK SMILES IDX 9 1 8 2 6 3 5 4 42 5 41 6 10 7 11 8 12 9 14 10 13 11 32 12
REMARK SMILES IDX 34 13 36 14 15 15 16 16 29 17 28 18 21 19 17 20 19 21 30 22
REMARK SMILES IDX 31 23 22 25 23 26 24 27 25 28 26 29 27 30 18 31 20 33 33 35
REMARK SMILES IDX 35 37 37 39 38 41 39 42 40 43 7 45 43 47 44 48 45 50 46 51
REMARK SMILES IDX 47 53 48 54 49 55 50 57 51 58 52 59 53 60 54 61 64 62 55 63
REMARK SMILES IDX 63 64 56 65 57 66 61 67 58 68 60 69 62 70 59 71 4 72 2 73
REMARK SMILES IDX 1 75 3 76
REMARK H PARENT 31 24 18 32 20 34 33 36 35 38 37 40 40 44 7 46 44 49 46 52
REMARK H PARENT 48 56 4 74
REMARK Flexibility Score: inf
ROOT
ATOM      1  C   UNL     1      28.780  36.767   8.495  1.00  0.00     0.272 C 
ATOM      2  C   UNL     1      29.572  37.529   9.489  1.00  0.00     0.113 C 
ATOM      3  C   UNL     1      30.647  38.342   8.845  1.00  0.00     0.145 C 
ATOM      4  C   UNL     1      30.248  39.093   7.625  1.00  0.00     0.142 C 
ATOM      5  C   UNL     1      28.930  38.650   7.094  1.00  0.00     0.178 C 
ATOM      6  O   UNL     1      28.593  37.349   7.259  1.00  0.00    -0.332 OA
ENDROOT
BRANCH   1   7
ATOM      7  O   UNL     1      27.506  36.408   8.896  1.00  0.00    -0.338 OA
BRANCH   7   8
ATOM      8  C   UNL     1      26.655  35.950   7.948  1.00  0.00     0.199 C 
BRANCH   8   9
ATOM      9  C   UNL     1      25.251  35.878   8.599  1.00  0.00     0.179 C 
ATOM     10  C   UNL     1      24.354  35.402  10.675  1.00  0.00     0.282 C 
ATOM     11  O   UNL     1      25.231  35.075   9.675  1.00  0.00    -0.341 OA
ATOM     12  C   UNL     1      23.030  35.913  10.153  1.00  0.00     0.202 C 
ATOM     13  C   UNL     1      23.233  37.095   9.229  1.00  0.00     0.179 C 
ATOM     14  C   UNL     1      24.688  37.225   8.823  1.00  0.00     0.177 C 
BRANCH  10  15
ATOM     15  O   UNL     1      24.909  36.243  11.629  1.00  0.00    -0.341 OA
BRANCH  15  16
ATOM     16  C   UNL     1      25.539  35.595  12.665  1.00  0.00     0.184 C 
ATOM     17  C   UNL     1      25.110  36.055  14.037  1.00  0.00     0.178 C 
ATOM     18  O   UNL     1      25.497  35.060  14.923  1.00  0.00    -0.341 OA
ATOM     19  C   UNL     1      26.825  34.777  14.934  1.00  0.00     0.281 C 
ATOM     20  C   UNL     1      27.042  35.844  12.636  1.00  0.00     0.180 C 
ATOM     21  C   UNL     1      27.671  35.321  13.860  1.00  0.00     0.202 C 
BRANCH  17  22
ATOM     22  C   UNL     1      23.646  36.306  14.181  1.00  0.00     0.191 C 
BRANCH  22  23
ATOM     23  O   UNL     1      23.324  37.497  13.535  1.00  0.00    -0.394 OA
ATOM     24  H   UNL     1      23.104  38.181  14.192  1.00  0.00     0.210 HD
ENDBRANCH  22  23
ENDBRANCH  17  22
BRANCH  19  25
ATOM     25  O   UNL     1      26.928  33.366  14.909  1.00  0.00    -0.350 OA
BRANCH  25  26
ATOM     26  C   UNL     1      25.909  32.732  15.562  1.00  0.00     0.169 C 
BRANCH  26  27
ATOM     27  C   UNL     1      25.597  31.349  15.083  1.00  0.00     0.119 C 
BRANCH  27  28
ATOM     28  N   UNL     1      24.184  31.322  14.739  1.00  0.00    -0.092 NA
ATOM     29  N   UNL     1      23.748  32.078  13.883  1.00  0.00     0.001 N 
ATOM     30  N   UNL     1      23.302  32.776  12.981  1.00  0.00    -0.003 NA
ENDBRANCH  27  28
ENDBRANCH  26  27
ENDBRANCH  25  26
ENDBRANCH  19  25
BRANCH  20  31
ATOM     31  O   UNL     1      27.631  35.275  11.518  1.00  0.00    -0.387 OA
ATOM     32  H   UNL     1      27.376  34.334  11.379  1.00  0.00     0.211 HD
ENDBRANCH  20  31
BRANCH  21  33
ATOM     33  O   UNL     1      28.501  36.373  14.351  1.00  0.00    -0.385 OA
ATOM     34  H   UNL     1      28.917  36.120  15.208  1.00  0.00     0.211 HD
ENDBRANCH  21  33
ENDBRANCH  15  16
ENDBRANCH  10  15
BRANCH  12  35
ATOM     35  O   UNL     1      22.288  34.895   9.554  1.00  0.00    -0.385 OA
ATOM     36  H   UNL     1      22.866  34.151   9.255  1.00  0.00     0.211 HD
ENDBRANCH  12  35
BRANCH  13  37
ATOM     37  O   UNL     1      22.715  38.251   9.779  1.00  0.00    -0.387 OA
ATOM     38  H   UNL     1      22.046  38.043  10.462  1.00  0.00     0.211 HD
ENDBRANCH  13  37
BRANCH  14  39
ATOM     39  O   UNL     1      25.338  37.960   9.800  1.00  0.00    -0.387 OA
ATOM     40  H   UNL     1      25.839  37.396  10.438  1.00  0.00     0.211 HD
ENDBRANCH  14  39
ENDBRANCH   8   9
ENDBRANCH   7   8
ENDBRANCH   1   7
BRANCH   1  41
ATOM     41  C   UNL     1      29.594  35.524   8.186  1.00  0.00     0.364 C 
ATOM     42  O   UNL     1      29.865  34.779   9.153  1.00  0.00    -0.246 OA
BRANCH  41  43
ATOM     43  O   UNL     1      30.031  35.196   6.937  1.00  0.00    -0.477 OA
ATOM     44  H   UNL     1      30.963  35.499   6.616  1.00  0.00     0.296 HD
ENDBRANCH  41  43
ENDBRANCH   1  41
BRANCH   3  45
ATOM     45  O   UNL     1      31.182  39.212   9.823  1.00  0.00    -0.391 OA
ATOM     46  H   UNL     1      30.838  38.909  10.707  1.00  0.00     0.211 HD
ENDBRANCH   3  45
BRANCH   5  47
ATOM     47  C   UNL     1      27.824  39.648   7.434  1.00  0.00     0.176 C 
BRANCH  47  48
ATOM     48  O   UNL     1      27.423  39.594   8.745  1.00  0.00    -0.388 OA
ATOM     49  H   UNL     1      27.020  40.461   9.044  1.00  0.00     0.211 HD
ENDBRANCH  47  48
BRANCH  47  50
ATOM     50  C   UNL     1      26.584  39.420   6.554  1.00  0.00     0.165 C 
BRANCH  50  51
ATOM     51  O   UNL     1      27.014  38.939   5.344  1.00  0.00    -0.388 OA
ATOM     52  H   UNL     1      27.891  39.230   5.039  1.00  0.00     0.211 HD
ENDBRANCH  50  51
BRANCH  50  53
ATOM     53  C   UNL     1      25.818  40.693   6.398  1.00  0.00     0.154 C 
BRANCH  53  54
ATOM     54  N   UNL     1      25.129  41.062   7.588  1.00  0.00    -0.319 N 
ATOM     55  C   UNL     1      23.816  40.715   7.969  1.00  0.00     0.407 C 
ATOM     56  H   UNL     1      25.652  41.674   8.292  1.00  0.00     0.167 HD
ATOM     57  O   UNL     1      23.116  40.000   7.246  1.00  0.00    -0.225 OA
BRANCH  55  58
ATOM     58  O   UNL     1      23.281  41.176   9.171  1.00  0.00    -0.443 OA
BRANCH  58  59
ATOM     59  C   UNL     1      23.986  41.937  10.122  1.00  0.00     0.294 C 
BRANCH  59  60
ATOM     60  C   UNL     1      24.715  41.051  11.087  1.00  0.00     0.121 A 
ATOM     61  C   UNL     1      26.022  41.265  11.524  1.00  0.00     0.144 A 
ATOM     62  N   UNL     1      24.308  39.941  11.681  1.00  0.00    -0.131 NA
ATOM     63  N   UNL     1      26.329  40.265  12.363  1.00  0.00    -0.219 N 
ATOM     64  N   UNL     1      25.292  39.469  12.455  1.00  0.00    -0.062 NA
BRANCH  63  65
ATOM     65  C   UNL     1      27.560  40.082  13.041  1.00  0.00     0.081 A 
ATOM     66  C   UNL     1      28.643  39.494  12.427  1.00  0.00     0.029 A 
ATOM     67  C   UNL     1      27.698  40.495  14.339  1.00  0.00     0.043 A 
ATOM     68  C   UNL     1      29.837  39.332  13.125  1.00  0.00     0.002 A 
ATOM     69  C   UNL     1      28.873  40.338  15.034  1.00  0.00     0.018 A 
ATOM     70  Br  UNL     1      26.222  41.310  15.226  1.00  0.00    -0.048 Br
ATOM     71  C   UNL     1      29.961  39.752  14.432  1.00  0.00     0.001 A 
ENDBRANCH  63  65
ENDBRANCH  59  60
ENDBRANCH  58  59
ENDBRANCH  55  58
ENDBRANCH  53  54
ENDBRANCH  50  53
ENDBRANCH  47  50
ENDBRANCH   5  47
BRANCH   4  72
ATOM     72  N   UNL     1      31.247  39.056   6.581  1.00  0.00    -0.348 N 
ATOM     73  C   UNL     1      32.338  39.959   6.574  1.00  0.00     0.217 C 
ATOM     74  H   UNL     1      31.177  38.358   5.815  1.00  0.00     0.163 HD
ATOM     75  C   UNL     1      33.324  39.850   5.457  1.00  0.00     0.114 C 
ATOM     76  O   UNL     1      32.491  40.823   7.458  1.00  0.00    -0.275 OA
ENDBRANCH   4  72
TORSDOF 30
BEGIN_RES LYS A 131
REMARK  4 active torsions:
REMARK  status: ('A' for Active; 'I' for Inactive)
REMARK    1  A    between atoms: CA   and  CB  
REMARK    2  A    between atoms: CB   and  CG  
REMARK    3  A    between atoms: CG   and  CD  
REMARK    4  A    between atoms: CD   and  CE  
ROOT
ATOM      1  CA  LYS A 131      29.867  25.555  16.977  1.00 20.52     0.186 C 
ENDROOT
BRANCH   1   2
ATOM      2  CB  LYS A 131      28.345  25.722  17.026  1.00 20.94     0.034 C 
BRANCH   2   3
ATOM      3  CG  LYS A 131      27.601  24.403  16.887  1.00 22.96     0.005 C 
BRANCH   3   4
ATOM      4  CD  LYS A 131      26.162  24.517  17.306  1.00 24.33     0.041 C 
BRANCH   4   5
ATOM      5  CE  LYS A 131      26.068  25.336  18.590  1.00 26.91     0.338 C 
ATOM      6  NZ  LYS A 131      25.504  24.516  19.688  1.00 27.40     0.618 N 
ENDBRANCH   4   5
ENDBRANCH   3   4
ENDBRANCH   2   3
ENDBRANCH   1   2
END_RES LYS A 131
BEGIN_RES LYS A 135
REMARK  4 active torsions:
REMARK  status: ('A' for Active; 'I' for Inactive)
REMARK    5  A    between atoms: CA   and  CB  
REMARK    6  A    between atoms: CB   and  CG  
REMARK    7  A    between atoms: CG   and  CD  
REMARK    8  A    between atoms: CD   and  CE  
ROOT
ATOM      7  CA  LYS A 135      33.193  34.663   9.290  1.00 25.02     0.186 C 
ENDROOT
BRANCH   7   8
ATOM      8  CB  LYS A 135      32.060  35.360  10.034  1.00 26.63     0.034 C 
BRANCH   8   9
ATOM      9  CG  LYS A 135      32.504  36.050  11.298  1.00 29.45     0.005 C 
BRANCH   9  10
ATOM     10  CD  LYS A 135      31.389  36.045  12.332  1.00 32.00     0.041 C 
BRANCH  10  11
ATOM     11  CE  LYS A 135      31.731  35.115  13.481  1.00 34.25     0.338 C 
ATOM     12  NZ  LYS A 135      33.191  35.138  13.772  1.00 35.99     0.618 N 
ENDBRANCH  10  11
ENDBRANCH   9  10
ENDBRANCH   8   9
ENDBRANCH   7   8
END_RES LYS A 135
