REMARK VINA RESULT:    -3.301      4.377      8.688
REMARK INTER + INTRA:         -22.177
REMARK INTER:                 -10.089
REMARK INTRA:                 -12.088
REMARK UNBOUND:               -13.473
REMARK SMILES CC(=O)N[C@@H]1[C@@H](O)C[C@](OC[C@H]2O[C@@H](O[C@H]3[C@H](O)[C@@H](O)[C@H](OCCN=[N+]=[N-])O[C@@H]3CO)[C@H](O)[C@@H](O)[C@H]2O)(C(=O)O)O[C@H]1C(O)[C@H](O)CNC(=O)OCc1cn(CCOC(C)=O)nn1
REMARK SMILES IDX 43 1 42 2 9 3 8 4 41 5 6 6 5 7 10 8 11 9 12 10 14 11 13 12
REMARK SMILES IDX 32 13 34 14 36 15 15 16 16 17 29 18 28 19 21 20 17 21 19 22
REMARK SMILES IDX 30 23 31 24 22 26 23 27 24 28 25 29 26 30 27 31 18 32 20 34
REMARK SMILES IDX 33 36 35 38 37 40 38 42 39 43 40 44 7 46 4 48 2 49 1 51 3 52
REMARK SMILES IDX 44 53 45 55 46 56 47 58 48 59 49 60 50 62 51 63 52 64 53 65
REMARK SMILES IDX 54 66 63 67 55 68 62 69 56 70 57 71 58 72 59 73 61 74 60 75
REMARK H PARENT 31 25 18 33 20 35 33 37 35 39 37 41 40 45 7 47 4 50 44 54
REMARK H PARENT 46 57 48 61
REMARK Flexibility Score: inf
ROOT
ATOM      1  C   UNL     1      27.951  39.193   6.328  1.00  0.00     0.176 C 
ENDROOT
BRANCH   1   2
ATOM      2  C   UNL     1      27.542  39.648   7.706  1.00  0.00     0.178 C 
ATOM      3  C   UNL     1      26.782  38.688   9.720  1.00  0.00     0.272 C 
ATOM      4  C   UNL     1      26.920  40.132  10.139  1.00  0.00     0.113 C 
ATOM      5  O   UNL     1      27.347  38.457   8.436  1.00  0.00    -0.332 OA
ATOM      6  C   UNL     1      26.297  41.082   9.179  1.00  0.00     0.145 C 
ATOM      7  C   UNL     1      26.240  40.380   7.792  1.00  0.00     0.142 C 
BRANCH   3   8
ATOM      8  O   UNL     1      25.576  38.176   9.687  1.00  0.00    -0.338 OA
BRANCH   8   9
ATOM      9  C   UNL     1      25.006  37.308   8.899  1.00  0.00     0.199 C 
BRANCH   9  10
ATOM     10  C   UNL     1      23.646  36.766   9.022  1.00  0.00     0.179 C 
ATOM     11  C   UNL     1      21.787  36.978  10.369  1.00  0.00     0.282 C 
ATOM     12  O   UNL     1      22.889  37.678   9.855  1.00  0.00    -0.341 OA
ATOM     13  C   UNL     1      21.114  36.102   9.397  1.00  0.00     0.202 C 
ATOM     14  C   UNL     1      21.547  36.183   7.975  1.00  0.00     0.179 C 
ATOM     15  C   UNL     1      22.839  36.874   7.713  1.00  0.00     0.177 C 
BRANCH  11  16
ATOM     16  O   UNL     1      20.993  37.910  11.015  1.00  0.00    -0.341 OA
BRANCH  16  17
ATOM     17  C   UNL     1      21.037  39.155  10.445  1.00  0.00     0.184 C 
ATOM     18  C   UNL     1      21.159  40.209  11.522  1.00  0.00     0.178 C 
ATOM     19  O   UNL     1      21.232  41.432  10.843  1.00  0.00    -0.341 OA
ATOM     20  C   UNL     1      19.990  41.792  10.412  1.00  0.00     0.281 C 
ATOM     21  C   UNL     1      19.810  39.434   9.591  1.00  0.00     0.180 C 
ATOM     22  C   UNL     1      19.071  40.650  10.044  1.00  0.00     0.202 C 
BRANCH  18  23
ATOM     23  C   UNL     1      22.449  40.012  12.297  1.00  0.00     0.191 C 
BRANCH  23  24
ATOM     24  O   UNL     1      23.494  39.790  11.418  1.00  0.00    -0.394 OA
ATOM     25  H   UNL     1      23.303  40.361  10.616  1.00  0.00     0.210 HD
ENDBRANCH  23  24
ENDBRANCH  18  23
BRANCH  20  26
ATOM     26  O   UNL     1      20.156  42.669   9.332  1.00  0.00    -0.350 OA
BRANCH  26  27
ATOM     27  C   UNL     1      21.480  42.707   8.909  1.00  0.00     0.169 C 
BRANCH  27  28
ATOM     28  C   UNL     1      21.421  42.931   7.394  1.00  0.00     0.119 C 
BRANCH  28  29
ATOM     29  N   UNL     1      20.306  42.162   6.869  1.00  0.00    -0.092 NA
ATOM     30  N   UNL     1      19.872  42.322   5.721  1.00  0.00     0.001 N 
ATOM     31  N   UNL     1      19.201  42.736   4.757  1.00  0.00    -0.003 NA
ENDBRANCH  28  29
ENDBRANCH  27  28
ENDBRANCH  26  27
ENDBRANCH  20  26
BRANCH  21  32
ATOM     32  O   UNL     1      20.096  39.494   8.233  1.00  0.00    -0.387 OA
ATOM     33  H   UNL     1      20.268  40.410   7.901  1.00  0.00     0.211 HD
ENDBRANCH  21  32
BRANCH  22  34
ATOM     34  O   UNL     1      18.163  40.337  11.036  1.00  0.00    -0.385 OA
ATOM     35  H   UNL     1      18.412  40.845  11.861  1.00  0.00     0.211 HD
ENDBRANCH  22  34
ENDBRANCH  16  17
ENDBRANCH  11  16
BRANCH  13  36
ATOM     36  O   UNL     1      21.076  34.754   9.843  1.00  0.00    -0.385 OA
ATOM     37  H   UNL     1      20.468  34.209   9.300  1.00  0.00     0.211 HD
ENDBRANCH  13  36
BRANCH  14  38
ATOM     38  O   UNL     1      20.568  36.789   7.172  1.00  0.00    -0.387 OA
ATOM     39  H   UNL     1      21.020  37.485   6.609  1.00  0.00     0.211 HD
ENDBRANCH  14  38
BRANCH  15  40
ATOM     40  O   UNL     1      22.537  38.250   7.522  1.00  0.00    -0.387 OA
ATOM     41  H   UNL     1      22.878  38.785   8.267  1.00  0.00     0.211 HD
ENDBRANCH  15  40
ENDBRANCH   9  10
ENDBRANCH   8   9
ENDBRANCH   3   8
BRANCH   3  42
ATOM     42  C   UNL     1      27.743  37.944  10.582  1.00  0.00     0.364 C 
ATOM     43  O   UNL     1      28.838  37.470  10.223  1.00  0.00    -0.246 OA
BRANCH  42  44
ATOM     44  O   UNL     1      27.436  37.727  11.942  1.00  0.00    -0.477 OA
ATOM     45  H   UNL     1      26.493  37.899  12.257  1.00  0.00     0.296 HD
ENDBRANCH  42  44
ENDBRANCH   3  42
BRANCH   6  46
ATOM     46  O   UNL     1      25.058  41.561   9.535  1.00  0.00    -0.391 OA
ATOM     47  H   UNL     1      24.831  41.405  10.487  1.00  0.00     0.211 HD
ENDBRANCH   6  46
BRANCH   7  48
ATOM     48  N   UNL     1      25.956  41.351   6.790  1.00  0.00    -0.348 N 
ATOM     49  C   UNL     1      24.701  41.412   6.130  1.00  0.00     0.217 C 
ATOM     50  H   UNL     1      26.673  42.053   6.547  1.00  0.00     0.163 HD
ATOM     51  C   UNL     1      24.411  42.434   5.078  1.00  0.00     0.114 C 
ATOM     52  O   UNL     1      23.765  40.600   6.403  1.00  0.00    -0.275 OA
ENDBRANCH   7  48
ENDBRANCH   1   2
BRANCH   1  53
ATOM     53  O   UNL     1      26.812  38.479   5.839  1.00  0.00    -0.388 OA
ATOM     54  H   UNL     1      25.990  38.959   6.071  1.00  0.00     0.211 HD
ENDBRANCH   1  53
BRANCH   1  55
ATOM     55  C   UNL     1      29.023  38.134   6.425  1.00  0.00     0.165 C 
BRANCH  55  56
ATOM     56  O   UNL     1      30.149  38.554   5.699  1.00  0.00    -0.388 OA
ATOM     57  H   UNL     1      30.891  38.674   6.327  1.00  0.00     0.211 HD
ENDBRANCH  55  56
BRANCH  55  58
ATOM     58  C   UNL     1      28.558  36.780   5.991  1.00  0.00     0.154 C 
BRANCH  58  59
ATOM     59  N   UNL     1      28.118  35.912   7.037  1.00  0.00    -0.319 N 
ATOM     60  C   UNL     1      28.971  35.032   7.731  1.00  0.00     0.407 C 
ATOM     61  H   UNL     1      27.099  35.889   7.353  1.00  0.00     0.167 HD
ATOM     62  O   UNL     1      30.194  34.946   7.491  1.00  0.00    -0.225 OA
BRANCH  60  63
ATOM     63  O   UNL     1      28.495  34.184   8.743  1.00  0.00    -0.443 OA
BRANCH  63  64
ATOM     64  C   UNL     1      27.155  34.169   9.146  1.00  0.00     0.294 C 
BRANCH  64  65
ATOM     65  C   UNL     1      27.009  34.453  10.600  1.00  0.00     0.120 A 
ATOM     66  C   UNL     1      25.793  34.685  11.220  1.00  0.00     0.138 A 
ATOM     67  N   UNL     1      27.925  34.534  11.560  1.00  0.00    -0.132 NA
ATOM     68  N   UNL     1      26.035  34.895  12.517  1.00  0.00    -0.249 N 
ATOM     69  N   UNL     1      27.339  34.798  12.703  1.00  0.00    -0.067 NA
BRANCH  68  70
ATOM     70  C   UNL     1      25.051  35.196  13.568  1.00  0.00     0.187 C 
BRANCH  70  71
ATOM     71  C   UNL     1      24.082  36.247  13.074  1.00  0.00     0.256 C 
BRANCH  71  72
ATOM     72  O   UNL     1      24.741  37.508  13.094  1.00  0.00    -0.464 OA
BRANCH  72  73
ATOM     73  C   UNL     1      25.050  38.123  14.304  1.00  0.00     0.302 C 
ATOM     74  O   UNL     1      26.241  38.457  14.507  1.00  0.00    -0.253 OA
ATOM     75  C   UNL     1      24.013  38.394  15.353  1.00  0.00     0.139 C 
ENDBRANCH  72  73
ENDBRANCH  71  72
ENDBRANCH  70  71
ENDBRANCH  68  70
ENDBRANCH  64  65
ENDBRANCH  63  64
ENDBRANCH  60  63
ENDBRANCH  58  59
ENDBRANCH  55  58
ENDBRANCH   1  55
TORSDOF 33
BEGIN_RES LYS A 131
REMARK  4 active torsions:
REMARK  status: ('A' for Active; 'I' for Inactive)
REMARK    1  A    between atoms: CA   and  CB  
REMARK    2  A    between atoms: CB   and  CG  
REMARK    3  A    between atoms: CG   and  CD  
REMARK    4  A    between atoms: CD   and  CE  
ROOT
ATOM      1  CA  LYS A 131      29.867  25.555  16.977  1.00 20.52     0.186 C 
ENDROOT
BRANCH   1   2
ATOM      2  CB  LYS A 131      28.345  25.722  17.026  1.00 20.94     0.034 C 
BRANCH   2   3
ATOM      3  CG  LYS A 131      27.600  24.410  16.831  1.00 22.96     0.005 C 
BRANCH   3   4
ATOM      4  CD  LYS A 131      26.163  24.505  17.264  1.00 24.33     0.041 C 
BRANCH   4   5
ATOM      5  CE  LYS A 131      25.743  23.196  17.924  1.00 26.91     0.338 C 
ATOM      6  NZ  LYS A 131      25.571  23.383  19.384  1.00 27.40     0.618 N 
ENDBRANCH   4   5
ENDBRANCH   3   4
ENDBRANCH   2   3
ENDBRANCH   1   2
END_RES LYS A 131
BEGIN_RES LYS A 135
REMARK  4 active torsions:
REMARK  status: ('A' for Active; 'I' for Inactive)
REMARK    5  A    between atoms: CA   and  CB  
REMARK    6  A    between atoms: CB   and  CG  
REMARK    7  A    between atoms: CG   and  CD  
REMARK    8  A    between atoms: CD   and  CE  
ROOT
ATOM      7  CA  LYS A 135      33.193  34.663   9.290  1.00 25.02     0.186 C 
ENDROOT
BRANCH   7   8
ATOM      8  CB  LYS A 135      32.060  35.360  10.034  1.00 26.63     0.034 C 
BRANCH   8   9
ATOM      9  CG  LYS A 135      32.377  35.651  11.478  1.00 29.45     0.005 C 
BRANCH   9  10
ATOM     10  CD  LYS A 135      32.231  37.136  11.772  1.00 32.00     0.041 C 
BRANCH  10  11
ATOM     11  CE  LYS A 135      31.619  37.350  13.143  1.00 34.25     0.338 C 
ATOM     12  NZ  LYS A 135      30.605  38.441  13.113  1.00 35.99     0.618 N 
ENDBRANCH  10  11
ENDBRANCH   9  10
ENDBRANCH   8   9
ENDBRANCH   7   8
END_RES LYS A 135
