REMARK VINA RESULT:    -3.757      5.639     10.500
REMARK INTER + INTRA:         -21.267
REMARK INTER:                 -10.615
REMARK INTRA:                 -10.652
REMARK UNBOUND:               -11.690
REMARK SMILES CC(=O)N[C@@H]1[C@@H](O)C[C@](OC[C@H]2O[C@@H](O[C@H]3[C@H](O)[C@@H](O)[C@H](OCCN=[N+]=[N-])O[C@@H]3CO)[C@H](O)[C@@H](O)[C@H]2O)(C(=O)O)O[C@H]1C(O)[C@H](O)CNC(=O)OCc1cn(CCO)nn1
REMARK SMILES IDX 9 1 8 2 6 3 5 4 42 5 41 6 10 7 11 8 12 9 14 10 13 11 32 12
REMARK SMILES IDX 34 13 36 14 15 15 16 16 29 17 28 18 21 19 17 20 19 21 30 22
REMARK SMILES IDX 31 23 22 25 23 26 24 27 25 28 26 29 27 30 18 31 20 33 33 35
REMARK SMILES IDX 35 37 37 39 38 41 39 42 40 43 7 45 43 47 44 48 45 50 46 51
REMARK SMILES IDX 47 53 48 54 49 55 50 57 51 58 52 59 53 60 54 61 60 62 55 63
REMARK SMILES IDX 59 64 56 65 57 66 58 67 4 69 2 70 1 72 3 73
REMARK H PARENT 31 24 18 32 20 34 33 36 35 38 37 40 40 44 7 46 44 49 46 52
REMARK H PARENT 48 56 58 68 4 71
REMARK Flexibility Score: inf
ROOT
ATOM      1  C   UNL     1      26.639  37.781   8.229  1.00  0.00     0.272 C 
ATOM      2  C   UNL     1      26.657  37.463   6.770  1.00  0.00     0.113 C 
ATOM      3  C   UNL     1      27.562  38.420   6.043  1.00  0.00     0.145 C 
ATOM      4  C   UNL     1      28.928  38.299   6.718  1.00  0.00     0.142 C 
ATOM      5  C   UNL     1      28.743  38.829   8.135  1.00  0.00     0.178 C 
ATOM      6  O   UNL     1      27.902  37.863   8.736  1.00  0.00    -0.332 OA
ENDROOT
BRANCH   1   7
ATOM      7  O   UNL     1      25.952  36.783   8.958  1.00  0.00    -0.338 OA
BRANCH   7   8
ATOM      8  C   UNL     1      24.645  36.616   8.642  1.00  0.00     0.199 C 
BRANCH   8   9
ATOM      9  C   UNL     1      23.849  36.078   9.842  1.00  0.00     0.179 C 
ATOM     10  C   UNL     1      24.088  34.984  11.874  1.00  0.00     0.282 C 
ATOM     11  O   UNL     1      24.683  35.358  10.670  1.00  0.00    -0.341 OA
ATOM     12  C   UNL     1      23.698  36.174  12.711  1.00  0.00     0.202 C 
ATOM     13  C   UNL     1      23.546  37.449  11.920  1.00  0.00     0.179 C 
ATOM     14  C   UNL     1      23.055  37.131  10.536  1.00  0.00     0.177 C 
BRANCH  10  15
ATOM     15  O   UNL     1      24.998  34.255  12.538  1.00  0.00    -0.341 OA
BRANCH  15  16
ATOM     16  C   UNL     1      26.141  34.798  12.987  1.00  0.00     0.184 C 
ATOM     17  C   UNL     1      27.429  34.570  12.331  1.00  0.00     0.178 C 
ATOM     18  O   UNL     1      28.449  34.510  13.264  1.00  0.00    -0.341 OA
ATOM     19  C   UNL     1      28.431  35.400  14.289  1.00  0.00     0.281 C 
ATOM     20  C   UNL     1      26.287  34.269  14.437  1.00  0.00     0.180 C 
ATOM     21  C   UNL     1      27.149  35.302  15.131  1.00  0.00     0.202 C 
BRANCH  17  22
ATOM     22  C   UNL     1      27.800  35.654  11.323  1.00  0.00     0.191 C 
BRANCH  22  23
ATOM     23  O   UNL     1      27.089  36.835  11.545  1.00  0.00    -0.394 OA
ATOM     24  H   UNL     1      27.732  37.564  11.638  1.00  0.00     0.210 HD
ENDBRANCH  22  23
ENDBRANCH  17  22
BRANCH  19  25
ATOM     25  O   UNL     1      28.739  36.698  13.994  1.00  0.00    -0.350 OA
BRANCH  25  26
ATOM     26  C   UNL     1      28.828  37.570  15.036  1.00  0.00     0.169 C 
BRANCH  26  27
ATOM     27  C   UNL     1      28.504  38.962  14.609  1.00  0.00     0.119 C 
BRANCH  27  28
ATOM     28  N   UNL     1      27.389  38.924  13.648  1.00  0.00    -0.092 NA
ATOM     29  N   UNL     1      27.089  40.028  13.157  1.00  0.00     0.001 N 
ATOM     30  N   UNL     1      27.074  40.864  12.237  1.00  0.00    -0.003 NA
ENDBRANCH  27  28
ENDBRANCH  26  27
ENDBRANCH  25  26
ENDBRANCH  19  25
BRANCH  20  31
ATOM     31  O   UNL     1      25.061  34.101  15.024  1.00  0.00    -0.387 OA
ATOM     32  H   UNL     1      24.525  33.385  14.598  1.00  0.00     0.211 HD
ENDBRANCH  20  31
BRANCH  21  33
ATOM     33  O   UNL     1      27.379  34.962  16.436  1.00  0.00    -0.385 OA
ATOM     34  H   UNL     1      26.653  34.414  16.826  1.00  0.00     0.211 HD
ENDBRANCH  21  33
ENDBRANCH  15  16
ENDBRANCH  10  15
BRANCH  12  35
ATOM     35  O   UNL     1      22.430  35.914  13.256  1.00  0.00    -0.385 OA
ATOM     36  H   UNL     1      22.467  35.475  14.129  1.00  0.00     0.211 HD
ENDBRANCH  12  35
BRANCH  13  37
ATOM     37  O   UNL     1      24.725  38.146  11.943  1.00  0.00    -0.387 OA
ATOM     38  H   UNL     1      24.747  38.827  12.687  1.00  0.00     0.211 HD
ENDBRANCH  13  37
BRANCH  14  39
ATOM     39  O   UNL     1      23.172  38.315   9.776  1.00  0.00    -0.387 OA
ATOM     40  H   UNL     1      22.298  38.773   9.701  1.00  0.00     0.211 HD
ENDBRANCH  14  39
ENDBRANCH   8   9
ENDBRANCH   7   8
ENDBRANCH   1   7
BRANCH   1  41
ATOM     41  C   UNL     1      25.831  39.001   8.440  1.00  0.00     0.364 C 
ATOM     42  O   UNL     1      25.107  39.496   7.556  1.00  0.00    -0.246 OA
BRANCH  41  43
ATOM     43  O   UNL     1      25.847  39.657   9.659  1.00  0.00    -0.477 OA
ATOM     44  H   UNL     1      25.291  39.340  10.473  1.00  0.00     0.296 HD
ENDBRANCH  41  43
ENDBRANCH   1  41
BRANCH   3  45
ATOM     45  O   UNL     1      27.749  38.007   4.705  1.00  0.00    -0.391 OA
ATOM     46  H   UNL     1      26.863  37.776   4.315  1.00  0.00     0.211 HD
ENDBRANCH   3  45
BRANCH   5  47
ATOM     47  C   UNL     1      30.038  38.706   8.872  1.00  0.00     0.176 C 
BRANCH  47  48
ATOM     48  O   UNL     1      30.714  39.925   8.940  1.00  0.00    -0.388 OA
ATOM     49  H   UNL     1      30.208  40.657   8.497  1.00  0.00     0.211 HD
ENDBRANCH  47  48
BRANCH  47  50
ATOM     50  C   UNL     1      30.047  38.039  10.192  1.00  0.00     0.165 C 
BRANCH  50  51
ATOM     51  O   UNL     1      29.149  38.889  10.973  1.00  0.00    -0.388 OA
ATOM     52  H   UNL     1      28.480  38.309  11.404  1.00  0.00     0.211 HD
ENDBRANCH  50  51
BRANCH  50  53
ATOM     53  C   UNL     1      31.341  38.203  10.968  1.00  0.00     0.154 C 
BRANCH  53  54
ATOM     54  N   UNL     1      31.261  37.765  12.325  1.00  0.00    -0.319 N 
ATOM     55  C   UNL     1      32.102  36.729  12.805  1.00  0.00     0.407 C 
ATOM     56  H   UNL     1      30.569  38.188  13.006  1.00  0.00     0.167 HD
ATOM     57  O   UNL     1      32.911  36.223  11.956  1.00  0.00    -0.225 OA
BRANCH  55  58
ATOM     58  O   UNL     1      32.126  36.233  14.080  1.00  0.00    -0.443 OA
BRANCH  58  59
ATOM     59  C   UNL     1      32.745  34.984  14.322  1.00  0.00     0.294 C 
BRANCH  59  60
ATOM     60  C   UNL     1      32.115  34.234  15.412  1.00  0.00     0.120 A 
ATOM     61  C   UNL     1      31.610  32.961  15.315  1.00  0.00     0.138 A 
ATOM     62  N   UNL     1      31.903  34.609  16.683  1.00  0.00    -0.132 NA
ATOM     63  N   UNL     1      31.108  32.591  16.510  1.00  0.00    -0.250 N 
ATOM     64  N   UNL     1      31.296  33.603  17.326  1.00  0.00    -0.067 NA
BRANCH  63  65
ATOM     65  C   UNL     1      30.480  31.297  16.811  1.00  0.00     0.174 C 
BRANCH  65  66
ATOM     66  C   UNL     1      29.401  31.049  15.787  1.00  0.00     0.179 C 
BRANCH  66  67
ATOM     67  O   UNL     1      28.718  29.883  16.170  1.00  0.00    -0.394 OA
ATOM     68  H   UNL     1      28.416  29.898  17.095  1.00  0.00     0.210 HD
ENDBRANCH  66  67
ENDBRANCH  65  66
ENDBRANCH  63  65
ENDBRANCH  59  60
ENDBRANCH  58  59
ENDBRANCH  55  58
ENDBRANCH  53  54
ENDBRANCH  50  53
ENDBRANCH  47  50
ENDBRANCH   5  47
BRANCH   4  69
ATOM     69  N   UNL     1      29.981  38.855   5.963  1.00  0.00    -0.348 N 
ATOM     70  C   UNL     1      30.202  40.236   5.753  1.00  0.00     0.217 C 
ATOM     71  H   UNL     1      30.690  38.217   5.520  1.00  0.00     0.163 HD
ATOM     72  C   UNL     1      31.349  40.677   4.933  1.00  0.00     0.114 C 
ATOM     73  O   UNL     1      29.446  41.086   6.246  1.00  0.00    -0.275 OA
ENDBRANCH   4  69
TORSDOF 32
BEGIN_RES LYS A 131
REMARK  4 active torsions:
REMARK  status: ('A' for Active; 'I' for Inactive)
REMARK    1  A    between atoms: CA   and  CB  
REMARK    2  A    between atoms: CB   and  CG  
REMARK    3  A    between atoms: CG   and  CD  
REMARK    4  A    between atoms: CD   and  CE  
ROOT
ATOM      1  CA  LYS A 131      29.867  25.555  16.977  1.00 20.52     0.186 C 
ENDROOT
BRANCH   1   2
ATOM      2  CB  LYS A 131      28.345  25.722  17.026  1.00 20.94     0.034 C 
BRANCH   2   3
ATOM      3  CG  LYS A 131      27.602  24.399  16.925  1.00 22.96     0.005 C 
BRANCH   3   4
ATOM      4  CD  LYS A 131      26.549  24.258  17.989  1.00 24.33     0.041 C 
BRANCH   4   5
ATOM      5  CE  LYS A 131      25.284  23.663  17.379  1.00 26.91     0.338 C 
ATOM      6  NZ  LYS A 131      24.361  24.739  16.945  1.00 27.40     0.618 N 
ENDBRANCH   4   5
ENDBRANCH   3   4
ENDBRANCH   2   3
ENDBRANCH   1   2
END_RES LYS A 131
BEGIN_RES LYS A 135
REMARK  4 active torsions:
REMARK  status: ('A' for Active; 'I' for Inactive)
REMARK    5  A    between atoms: CA   and  CB  
REMARK    6  A    between atoms: CB   and  CG  
REMARK    7  A    between atoms: CG   and  CD  
REMARK    8  A    between atoms: CD   and  CE  
ROOT
ATOM      7  CA  LYS A 135      33.193  34.663   9.290  1.00 25.02     0.186 C 
ENDROOT
BRANCH   7   8
ATOM      8  CB  LYS A 135      32.060  35.360  10.034  1.00 26.63     0.034 C 
BRANCH   8   9
ATOM      9  CG  LYS A 135      30.735  34.654   9.912  1.00 29.45     0.005 C 
BRANCH   9  10
ATOM     10  CD  LYS A 135      30.536  34.125   8.499  1.00 32.00     0.041 C 
BRANCH  10  11
ATOM     11  CE  LYS A 135      29.482  34.936   7.771  1.00 34.25     0.338 C 
ATOM     12  NZ  LYS A 135      28.111  34.460   8.107  1.00 35.99     0.618 N 
ENDBRANCH  10  11
ENDBRANCH   9  10
ENDBRANCH   8   9
ENDBRANCH   7   8
END_RES LYS A 135
