REMARK VINA RESULT:    -5.013      3.094      6.932
REMARK INTER + INTRA:         -22.650
REMARK INTER:                 -12.168
REMARK INTRA:                 -10.482
REMARK UNBOUND:               -10.018
REMARK SMILES COc1ccc(-n2cc(COC(=O)NC[C@@H](O)C(O)[C@@H]3O[C@@](OC[C@H]4O[C@@H](O[C@H]5[C@H](O)[C@@H](O)[C@H](OCCN=[N+]=[N-])O[C@@H]5CO)[C@H](O)[C@@H](O)[C@H]4O)(C(=O)O)C[C@H](O)[C@H]3NC(C)=O)nn2)cc1
REMARK SMILES IDX 22 1 54 2 55 3 57 4 20 5 21 6 23 7 24 8 25 9 27 10 26 11
REMARK SMILES IDX 45 12 47 13 49 14 28 15 29 16 42 17 41 18 34 19 30 20 32 21
REMARK SMILES IDX 43 22 44 23 35 25 36 26 37 27 38 28 39 29 40 30 31 31 33 33
REMARK SMILES IDX 46 35 48 37 50 39 51 41 52 42 53 43 56 45 18 47 19 48 16 50
REMARK SMILES IDX 17 51 15 53 14 54 12 55 13 57 11 58 10 59 9 60 8 61 62 62
REMARK SMILES IDX 7 63 63 64 6 65 5 66 64 67 4 68 65 69 3 70 2 71 1 72 58 73
REMARK SMILES IDX 59 74 60 76 61 77
REMARK H PARENT 44 24 31 32 33 34 46 36 48 38 50 40 53 44 56 46 19 49 17 52
REMARK H PARENT 14 56 58 75
REMARK Flexibility Score: inf
ROOT
ATOM      1  C   UNL     1      31.161  34.132  14.578  1.00  0.00     0.272 C 
ATOM      2  C   UNL     1      31.512  32.777  15.066  1.00  0.00     0.113 C 
ATOM      3  C   UNL     1      30.556  32.122  15.983  1.00  0.00     0.145 C 
ATOM      4  C   UNL     1      29.707  33.222  16.651  1.00  0.00     0.142 C 
ATOM      5  C   UNL     1      30.606  34.386  16.878  1.00  0.00     0.178 C 
ATOM      6  O   UNL     1      30.818  34.990  15.640  1.00  0.00    -0.332 OA
ENDROOT
BRANCH   1   7
ATOM      7  O   UNL     1      30.384  34.384  13.573  1.00  0.00    -0.338 OA
BRANCH   7   8
ATOM      8  C   UNL     1      29.291  34.975  13.265  1.00  0.00     0.199 C 
BRANCH   8   9
ATOM      9  C   UNL     1      29.160  36.016  12.190  1.00  0.00     0.179 C 
ATOM     10  C   UNL     1      27.767  37.298  10.910  1.00  0.00     0.282 C 
ATOM     11  O   UNL     1      27.888  36.446  12.021  1.00  0.00    -0.341 OA
ATOM     12  C   UNL     1      28.608  38.530  10.998  1.00  0.00     0.202 C 
ATOM     13  C   UNL     1      29.733  38.477  11.963  1.00  0.00     0.179 C 
ATOM     14  C   UNL     1      30.174  37.123  12.345  1.00  0.00     0.177 C 
BRANCH  10  15
ATOM     15  O   UNL     1      26.427  37.664  10.824  1.00  0.00    -0.341 OA
BRANCH  15  16
ATOM     16  C   UNL     1      25.742  36.977   9.860  1.00  0.00     0.184 C 
ATOM     17  C   UNL     1      25.094  37.868   8.866  1.00  0.00     0.178 C 
ATOM     18  O   UNL     1      24.314  37.115   7.947  1.00  0.00    -0.341 OA
ATOM     19  C   UNL     1      23.200  36.656   8.696  1.00  0.00     0.281 C 
ATOM     20  C   UNL     1      24.668  36.123  10.557  1.00  0.00     0.180 C 
ATOM     21  C   UNL     1      23.772  35.500   9.520  1.00  0.00     0.202 C 
BRANCH  17  22
ATOM     22  C   UNL     1      26.099  38.686   8.097  1.00  0.00     0.191 C 
BRANCH  22  23
ATOM     23  O   UNL     1      27.148  37.868   7.713  1.00  0.00    -0.394 OA
ATOM     24  H   UNL     1      27.464  37.283   8.437  1.00  0.00     0.210 HD
ENDBRANCH  22  23
ENDBRANCH  17  22
BRANCH  19  25
ATOM     25  O   UNL     1      22.189  36.260   7.891  1.00  0.00    -0.350 OA
BRANCH  25  26
ATOM     26  C   UNL     1      20.995  36.909   7.930  1.00  0.00     0.169 C 
BRANCH  26  27
ATOM     27  C   UNL     1      19.986  36.439   8.922  1.00  0.00     0.119 C 
BRANCH  27  28
ATOM     28  N   UNL     1      19.929  35.024   9.132  1.00  0.00    -0.092 NA
ATOM     29  N   UNL     1      19.127  34.527   9.917  1.00  0.00     0.001 N 
ATOM     30  N   UNL     1      18.359  34.176  10.818  1.00  0.00    -0.003 NA
ENDBRANCH  27  28
ENDBRANCH  26  27
ENDBRANCH  25  26
ENDBRANCH  19  25
BRANCH  20  31
ATOM     31  O   UNL     1      25.298  35.173  11.341  1.00  0.00    -0.387 OA
ATOM     32  H   UNL     1      25.921  35.670  11.957  1.00  0.00     0.211 HD
ENDBRANCH  20  31
BRANCH  21  33
ATOM     33  O   UNL     1      22.720  34.847  10.122  1.00  0.00    -0.385 OA
ATOM     34  H   UNL     1      22.823  33.864  10.064  1.00  0.00     0.211 HD
ENDBRANCH  21  33
ENDBRANCH  15  16
ENDBRANCH  10  15
BRANCH  12  35
ATOM     35  O   UNL     1      29.162  38.865   9.750  1.00  0.00    -0.385 OA
ATOM     36  H   UNL     1      28.535  39.396   9.210  1.00  0.00     0.211 HD
ENDBRANCH  12  35
BRANCH  13  37
ATOM     37  O   UNL     1      29.469  39.309  13.057  1.00  0.00    -0.387 OA
ATOM     38  H   UNL     1      29.072  40.168  12.804  1.00  0.00     0.211 HD
ENDBRANCH  13  37
BRANCH  14  39
ATOM     39  O   UNL     1      30.694  37.168  13.642  1.00  0.00    -0.387 OA
ATOM     40  H   UNL     1      29.922  37.254  14.256  1.00  0.00     0.211 HD
ENDBRANCH  14  39
ENDBRANCH   8   9
ENDBRANCH   7   8
ENDBRANCH   1   7
BRANCH   1  41
ATOM     41  C   UNL     1      32.557  34.720  14.195  1.00  0.00     0.364 C 
ATOM     42  O   UNL     1      33.370  35.018  15.073  1.00  0.00    -0.246 OA
BRANCH  41  43
ATOM     43  O   UNL     1      32.801  34.874  12.853  1.00  0.00    -0.477 OA
ATOM     44  H   UNL     1      33.408  35.626  12.495  1.00  0.00     0.296 HD
ENDBRANCH  41  43
ENDBRANCH   1  41
BRANCH   3  45
ATOM     45  O   UNL     1      29.791  31.116  15.468  1.00  0.00    -0.391 OA
ATOM     46  H   UNL     1      28.831  31.153  15.675  1.00  0.00     0.211 HD
ENDBRANCH   3  45
BRANCH   5  47
ATOM     47  C   UNL     1      29.966  35.493  17.748  1.00  0.00     0.176 C 
BRANCH  47  48
ATOM     48  O   UNL     1      30.876  36.018  18.614  1.00  0.00    -0.388 OA
ATOM     49  H   UNL     1      30.454  36.734  19.143  1.00  0.00     0.211 HD
ENDBRANCH  47  48
BRANCH  47  50
ATOM     50  C   UNL     1      29.035  36.311  17.012  1.00  0.00     0.165 C 
BRANCH  50  51
ATOM     51  O   UNL     1      29.329  37.702  16.960  1.00  0.00    -0.388 OA
ATOM     52  H   UNL     1      30.238  37.789  17.309  1.00  0.00     0.211 HD
ENDBRANCH  50  51
BRANCH  50  53
ATOM     53  C   UNL     1      27.571  36.253  17.159  1.00  0.00     0.154 C 
BRANCH  53  54
ATOM     54  N   UNL     1      26.827  35.461  16.288  1.00  0.00    -0.319 N 
ATOM     55  C   UNL     1      26.169  35.882  15.122  1.00  0.00     0.407 C 
ATOM     56  H   UNL     1      26.734  34.413  16.518  1.00  0.00     0.167 HD
ATOM     57  O   UNL     1      26.211  37.059  14.730  1.00  0.00    -0.225 OA
BRANCH  55  58
ATOM     58  O   UNL     1      25.436  34.938  14.367  1.00  0.00    -0.443 OA
BRANCH  58  59
ATOM     59  C   UNL     1      24.563  34.089  15.069  1.00  0.00     0.294 C 
BRANCH  59  60
ATOM     60  C   UNL     1      23.591  33.481  14.130  1.00  0.00     0.121 A 
ATOM     61  C   UNL     1      22.964  32.251  14.177  1.00  0.00     0.144 A 
ATOM     62  N   UNL     1      23.131  34.092  13.021  1.00  0.00    -0.131 NA
ATOM     63  N   UNL     1      22.160  32.167  13.110  1.00  0.00    -0.220 N 
ATOM     64  N   UNL     1      22.281  33.304  12.419  1.00  0.00    -0.062 NA
BRANCH  63  65
ATOM     65  C   UNL     1      21.284  31.143  12.666  1.00  0.00     0.067 A 
ATOM     66  C   UNL     1      19.949  31.326  12.422  1.00  0.00     0.032 A 
ATOM     67  C   UNL     1      21.796  29.861  12.471  1.00  0.00     0.032 A 
ATOM     68  C   UNL     1      19.146  30.276  11.999  1.00  0.00     0.048 A 
ATOM     69  C   UNL     1      20.996  28.817  12.050  1.00  0.00     0.048 A 
ATOM     70  C   UNL     1      19.652  29.004  11.805  1.00  0.00     0.119 A 
BRANCH  70  71
ATOM     71  O   UNL     1      18.825  27.948  11.376  1.00  0.00    -0.497 OA
ATOM     72  C   UNL     1      17.718  28.294  10.531  1.00  0.00     0.278 C 
ENDBRANCH  70  71
ENDBRANCH  63  65
ENDBRANCH  59  60
ENDBRANCH  58  59
ENDBRANCH  55  58
ENDBRANCH  53  54
ENDBRANCH  50  53
ENDBRANCH  47  50
ENDBRANCH   5  47
BRANCH   4  73
ATOM     73  N   UNL     1      29.037  32.656  17.788  1.00  0.00    -0.348 N 
ATOM     74  C   UNL     1      27.691  32.216  17.706  1.00  0.00     0.217 C 
ATOM     75  H   UNL     1      29.555  32.538  18.677  1.00  0.00     0.163 HD
ATOM     76  C   UNL     1      27.020  31.635  18.899  1.00  0.00     0.114 C 
ATOM     77  O   UNL     1      27.013  32.294  16.648  1.00  0.00    -0.275 OA
ENDBRANCH   4  73
TORSDOF 31
BEGIN_RES LYS A 131
REMARK  4 active torsions:
REMARK  status: ('A' for Active; 'I' for Inactive)
REMARK    1  A    between atoms: CA   and  CB  
REMARK    2  A    between atoms: CB   and  CG  
REMARK    3  A    between atoms: CG   and  CD  
REMARK    4  A    between atoms: CD   and  CE  
ROOT
ATOM      1  CA  LYS A 131      29.867  25.555  16.977  1.00 20.52     0.186 C 
ENDROOT
BRANCH   1   2
ATOM      2  CB  LYS A 131      28.345  25.722  17.026  1.00 20.94     0.034 C 
BRANCH   2   3
ATOM      3  CG  LYS A 131      27.602  24.400  16.915  1.00 22.96     0.005 C 
BRANCH   3   4
ATOM      4  CD  LYS A 131      26.667  24.176  18.072  1.00 24.33     0.041 C 
BRANCH   4   5
ATOM      5  CE  LYS A 131      25.552  23.226  17.649  1.00 26.91     0.338 C 
ATOM      6  NZ  LYS A 131      24.497  23.961  16.910  1.00 27.40     0.618 N 
ENDBRANCH   4   5
ENDBRANCH   3   4
ENDBRANCH   2   3
ENDBRANCH   1   2
END_RES LYS A 131
BEGIN_RES LYS A 135
REMARK  4 active torsions:
REMARK  status: ('A' for Active; 'I' for Inactive)
REMARK    5  A    between atoms: CA   and  CB  
REMARK    6  A    between atoms: CB   and  CG  
REMARK    7  A    between atoms: CG   and  CD  
REMARK    8  A    between atoms: CD   and  CE  
ROOT
ATOM      7  CA  LYS A 135      33.193  34.663   9.290  1.00 25.02     0.186 C 
ENDROOT
BRANCH   7   8
ATOM      8  CB  LYS A 135      32.060  35.360  10.034  1.00 26.63     0.034 C 
BRANCH   8   9
ATOM      9  CG  LYS A 135      30.822  35.557   9.198  1.00 29.45     0.005 C 
BRANCH   9  10
ATOM     10  CD  LYS A 135      30.122  34.228   8.955  1.00 32.00     0.041 C 
BRANCH  10  11
ATOM     11  CE  LYS A 135      28.649  34.447   8.667  1.00 34.25     0.338 C 
ATOM     12  NZ  LYS A 135      27.796  33.681   9.618  1.00 35.99     0.618 N 
ENDBRANCH  10  11
ENDBRANCH   9  10
ENDBRANCH   8   9
ENDBRANCH   7   8
END_RES LYS A 135
