REMARK VINA RESULT:    -3.779      3.193      6.586
REMARK INTER + INTRA:         -22.706
REMARK INTER:                  -8.313
REMARK INTRA:                 -14.392
REMARK UNBOUND:               -13.184
REMARK SMILES CC(=O)N[C@@H]1[C@@H](O)C[C@](OC[C@H]2O[C@@H](O[C@H]3[C@H](O)[C@@H](O)[C@H](OCCN=[N+]=[N-])O[C@@H]3CO)[C@H](O)[C@@H](O)[C@H]2O)(C(=O)O)O[C@H]1C(O)[C@H](O)CNC(=O)OCc1cn(-c2cc(Cl)ccc2C(=O)N(C)C)nn1
REMARK SMILES IDX 9 1 8 2 6 3 5 4 42 5 41 6 10 7 11 8 12 9 14 10 13 11 32 12
REMARK SMILES IDX 34 13 36 14 15 15 16 16 29 17 28 18 21 19 17 20 19 21 30 22
REMARK SMILES IDX 31 23 22 25 23 26 24 27 25 28 26 29 27 30 18 31 20 33 33 35
REMARK SMILES IDX 35 37 37 39 38 41 39 42 40 43 7 45 43 47 44 48 45 50 46 51
REMARK SMILES IDX 47 53 48 54 49 55 50 57 51 58 52 59 53 60 54 61 69 62 55 63
REMARK SMILES IDX 68 64 56 65 57 66 62 67 58 68 61 69 59 70 60 71 63 72 64 73
REMARK SMILES IDX 65 74 66 75 67 76 4 77 2 78 1 80 3 81
REMARK H PARENT 31 24 18 32 20 34 33 36 35 38 37 40 40 44 7 46 44 49 46 52
REMARK H PARENT 48 56 4 79
REMARK Flexibility Score: inf
ROOT
ATOM      1  C   UNL     1      31.351  35.041  14.709  1.00  0.00     0.272 C 
ATOM      2  C   UNL     1      32.601  34.730  15.442  1.00  0.00     0.113 C 
ATOM      3  C   UNL     1      32.449  35.076  16.901  1.00  0.00     0.145 C 
ATOM      4  C   UNL     1      32.141  36.553  16.966  1.00  0.00     0.142 C 
ATOM      5  C   UNL     1      30.962  36.897  16.156  1.00  0.00     0.178 C 
ATOM      6  O   UNL     1      30.607  36.104  15.112  1.00  0.00    -0.332 OA
ENDROOT
BRANCH   1   7
ATOM      7  O   UNL     1      30.499  33.949  14.663  1.00  0.00    -0.338 OA
BRANCH   7   8
ATOM      8  C   UNL     1      30.968  32.741  15.041  1.00  0.00     0.199 C 
BRANCH   8   9
ATOM      9  C   UNL     1      29.792  31.834  15.435  1.00  0.00     0.179 C 
ATOM     10  C   UNL     1      29.181  30.605  17.289  1.00  0.00     0.282 C 
ATOM     11  O   UNL     1      30.235  30.931  16.357  1.00  0.00    -0.341 OA
ATOM     12  C   UNL     1      27.928  30.396  16.470  1.00  0.00     0.202 C 
ATOM     13  C   UNL     1      27.425  31.700  15.888  1.00  0.00     0.179 C 
ATOM     14  C   UNL     1      28.604  32.645  15.737  1.00  0.00     0.177 C 
BRANCH  10  15
ATOM     15  O   UNL     1      29.151  31.606  18.163  1.00  0.00    -0.341 OA
BRANCH  15  16
ATOM     16  C   UNL     1      29.303  31.406  19.524  1.00  0.00     0.184 C 
ATOM     17  C   UNL     1      28.814  32.653  20.188  1.00  0.00     0.178 C 
ATOM     18  O   UNL     1      28.952  32.542  21.583  1.00  0.00    -0.341 OA
ATOM     19  C   UNL     1      30.366  32.748  21.743  1.00  0.00     0.281 C 
ATOM     20  C   UNL     1      30.751  31.160  19.863  1.00  0.00     0.180 C 
ATOM     21  C   UNL     1      31.061  31.520  21.284  1.00  0.00     0.202 C 
BRANCH  17  22
ATOM     22  C   UNL     1      27.367  32.932  19.840  1.00  0.00     0.191 C 
BRANCH  22  23
ATOM     23  O   UNL     1      27.314  34.068  19.061  1.00  0.00    -0.394 OA
ATOM     24  H   UNL     1      26.411  34.470  19.110  1.00  0.00     0.210 HD
ENDBRANCH  22  23
ENDBRANCH  17  22
BRANCH  19  25
ATOM     25  O   UNL     1      30.594  33.073  23.023  1.00  0.00    -0.350 OA
BRANCH  25  26
ATOM     26  C   UNL     1      31.164  34.317  23.234  1.00  0.00     0.169 C 
BRANCH  26  27
ATOM     27  C   UNL     1      31.153  35.206  22.008  1.00  0.00     0.119 C 
BRANCH  27  28
ATOM     28  N   UNL     1      30.234  36.311  22.181  1.00  0.00    -0.092 NA
ATOM     29  N   UNL     1      29.036  36.165  21.967  1.00  0.00     0.001 N 
ATOM     30  N   UNL     1      27.853  35.805  21.792  1.00  0.00    -0.003 NA
ENDBRANCH  27  28
ENDBRANCH  26  27
ENDBRANCH  25  26
ENDBRANCH  19  25
BRANCH  20  31
ATOM     31  O   UNL     1      31.095  29.814  19.700  1.00  0.00    -0.387 OA
ATOM     32  H   UNL     1      30.421  29.223  20.147  1.00  0.00     0.211 HD
ENDBRANCH  20  31
BRANCH  21  33
ATOM     33  O   UNL     1      32.438  31.679  21.416  1.00  0.00    -0.385 OA
ATOM     34  H   UNL     1      32.953  31.263  20.692  1.00  0.00     0.211 HD
ENDBRANCH  21  33
ENDBRANCH  15  16
ENDBRANCH  10  15
BRANCH  12  35
ATOM     35  O   UNL     1      28.298  29.582  15.381  1.00  0.00    -0.385 OA
ATOM     36  H   UNL     1      28.169  28.604  15.596  1.00  0.00     0.211 HD
ENDBRANCH  12  35
BRANCH  13  37
ATOM     37  O   UNL     1      26.457  32.322  16.631  1.00  0.00    -0.387 OA
ATOM     38  H   UNL     1      25.548  32.228  16.257  1.00  0.00     0.211 HD
ENDBRANCH  13  37
BRANCH  14  39
ATOM     39  O   UNL     1      28.698  33.599  16.710  1.00  0.00    -0.387 OA
ATOM     40  H   UNL     1      29.594  33.715  17.097  1.00  0.00     0.211 HD
ENDBRANCH  14  39
ENDBRANCH   8   9
ENDBRANCH   7   8
ENDBRANCH   1   7
BRANCH   1  41
ATOM     41  C   UNL     1      31.718  35.270  13.230  1.00  0.00     0.364 C 
ATOM     42  O   UNL     1      31.006  34.670  12.393  1.00  0.00    -0.246 OA
BRANCH  41  43
ATOM     43  O   UNL     1      32.744  36.063  12.825  1.00  0.00    -0.477 OA
ATOM     44  H   UNL     1      33.574  35.756  12.369  1.00  0.00     0.296 HD
ENDBRANCH  41  43
ENDBRANCH   1  41
BRANCH   3  45
ATOM     45  O   UNL     1      31.516  34.264  17.479  1.00  0.00    -0.391 OA
ATOM     46  H   UNL     1      30.853  34.668  18.048  1.00  0.00     0.211 HD
ENDBRANCH   3  45
BRANCH   5  47
ATOM     47  C   UNL     1      29.684  37.159  16.942  1.00  0.00     0.176 C 
BRANCH  47  48
ATOM     48  O   UNL     1      28.593  36.457  16.512  1.00  0.00    -0.388 OA
ATOM     49  H   UNL     1      28.752  35.489  16.354  1.00  0.00     0.211 HD
ENDBRANCH  47  48
BRANCH  47  50
ATOM     50  C   UNL     1      29.806  37.086  18.419  1.00  0.00     0.165 C 
BRANCH  50  51
ATOM     51  O   UNL     1      29.503  35.799  18.924  1.00  0.00    -0.388 OA
ATOM     52  H   UNL     1      28.530  35.640  18.929  1.00  0.00     0.211 HD
ENDBRANCH  50  51
BRANCH  50  53
ATOM     53  C   UNL     1      28.652  37.947  18.985  1.00  0.00     0.154 C 
BRANCH  53  54
ATOM     54  N   UNL     1      27.430  37.194  18.994  1.00  0.00    -0.319 N 
ATOM     55  C   UNL     1      26.179  37.822  18.830  1.00  0.00     0.407 C 
ATOM     56  H   UNL     1      27.427  36.139  19.124  1.00  0.00     0.167 HD
ATOM     57  O   UNL     1      26.095  39.058  18.649  1.00  0.00    -0.225 OA
BRANCH  55  58
ATOM     58  O   UNL     1      24.989  37.084  18.868  1.00  0.00    -0.443 OA
BRANCH  58  59
ATOM     59  C   UNL     1      24.231  36.846  17.715  1.00  0.00     0.294 C 
BRANCH  59  60
ATOM     60  C   UNL     1      25.075  36.265  16.627  1.00  0.00     0.121 A 
ATOM     61  C   UNL     1      25.230  36.845  15.351  1.00  0.00     0.144 A 
ATOM     62  N   UNL     1      25.815  35.167  16.605  1.00  0.00    -0.131 NA
ATOM     63  N   UNL     1      26.042  36.083  14.633  1.00  0.00    -0.219 N 
ATOM     64  N   UNL     1      26.382  35.062  15.431  1.00  0.00    -0.062 NA
BRANCH  63  65
ATOM     65  C   UNL     1      26.536  36.194  13.311  1.00  0.00     0.081 A 
ATOM     66  C   UNL     1      27.698  36.940  13.075  1.00  0.00     0.049 A 
ATOM     67  C   UNL     1      25.945  35.649  12.208  1.00  0.00     0.065 A 
ATOM     68  C   UNL     1      28.195  37.105  11.824  1.00  0.00     0.043 A 
ATOM     69  C   UNL     1      26.459  35.820  10.909  1.00  0.00     0.017 A 
ATOM     70  Cl  UNL     1      29.657  38.054  11.598  1.00  0.00    -0.084 Cl
ATOM     71  C   UNL     1      27.600  36.560  10.719  1.00  0.00     0.021 A 
BRANCH  67  72
ATOM     72  C   UNL     1      24.753  34.802  12.313  1.00  0.00     0.255 C 
ATOM     73  O   UNL     1      24.904  33.581  12.524  1.00  0.00    -0.269 OA
ATOM     74  N   UNL     1      23.478  35.358  12.180  1.00  0.00    -0.345 N 
ATOM     75  C   UNL     1      23.317  36.788  11.932  1.00  0.00     0.146 C 
ATOM     76  C   UNL     1      22.273  34.539  12.290  1.00  0.00     0.146 C 
ENDBRANCH  67  72
ENDBRANCH  63  65
ENDBRANCH  59  60
ENDBRANCH  58  59
ENDBRANCH  55  58
ENDBRANCH  53  54
ENDBRANCH  50  53
ENDBRANCH  47  50
ENDBRANCH   5  47
BRANCH   4  77
ATOM     77  N   UNL     1      33.359  37.246  16.536  1.00  0.00    -0.348 N 
ATOM     78  C   UNL     1      34.188  37.951  17.434  1.00  0.00     0.217 C 
ATOM     79  H   UNL     1      33.634  37.229  15.534  1.00  0.00     0.163 HD
ATOM     80  C   UNL     1      35.421  38.655  17.006  1.00  0.00     0.114 C 
ATOM     81  O   UNL     1      33.870  37.984  18.652  1.00  0.00    -0.275 OA
ENDBRANCH   4  77
TORSDOF 31
BEGIN_RES LYS A 131
REMARK  4 active torsions:
REMARK  status: ('A' for Active; 'I' for Inactive)
REMARK    1  A    between atoms: CA   and  CB  
REMARK    2  A    between atoms: CB   and  CG  
REMARK    3  A    between atoms: CG   and  CD  
REMARK    4  A    between atoms: CD   and  CE  
ROOT
ATOM      1  CA  LYS A 131      29.867  25.555  16.977  1.00 20.52     0.186 C 
ENDROOT
BRANCH   1   2
ATOM      2  CB  LYS A 131      28.345  25.722  17.026  1.00 20.94     0.034 C 
BRANCH   2   3
ATOM      3  CG  LYS A 131      27.601  24.401  16.901  1.00 22.96     0.005 C 
BRANCH   3   4
ATOM      4  CD  LYS A 131      26.540  24.246  17.955  1.00 24.33     0.041 C 
BRANCH   4   5
ATOM      5  CE  LYS A 131      25.205  24.743  17.410  1.00 26.91     0.338 C 
ATOM      6  NZ  LYS A 131      24.375  23.603  16.954  1.00 27.40     0.618 N 
ENDBRANCH   4   5
ENDBRANCH   3   4
ENDBRANCH   2   3
ENDBRANCH   1   2
END_RES LYS A 131
BEGIN_RES LYS A 135
REMARK  4 active torsions:
REMARK  status: ('A' for Active; 'I' for Inactive)
REMARK    5  A    between atoms: CA   and  CB  
REMARK    6  A    between atoms: CB   and  CG  
REMARK    7  A    between atoms: CG   and  CD  
REMARK    8  A    between atoms: CD   and  CE  
ROOT
ATOM      7  CA  LYS A 135      33.193  34.663   9.290  1.00 25.02     0.186 C 
ENDROOT
BRANCH   7   8
ATOM      8  CB  LYS A 135      32.060  35.360  10.034  1.00 26.63     0.034 C 
BRANCH   8   9
ATOM      9  CG  LYS A 135      30.828  35.574   9.192  1.00 29.45     0.005 C 
BRANCH   9  10
ATOM     10  CD  LYS A 135      30.116  34.254   8.938  1.00 32.00     0.041 C 
BRANCH  10  11
ATOM     11  CE  LYS A 135      28.818  34.486   8.189  1.00 34.25     0.338 C 
ATOM     12  NZ  LYS A 135      29.007  35.454   7.074  1.00 35.99     0.618 N 
ENDBRANCH  10  11
ENDBRANCH   9  10
ENDBRANCH   8   9
ENDBRANCH   7   8
END_RES LYS A 135
