REMARK VINA RESULT:    -4.602      3.448      7.255
REMARK INTER + INTRA:         -23.015
REMARK INTER:                 -12.093
REMARK INTRA:                 -10.922
REMARK UNBOUND:               -10.207
REMARK SMILES CC(=O)N[C@@H]1[C@@H](O)C[C@](OC[C@H]2O[C@@H](O[C@H]3[C@H](O)[C@@H](O)[C@H](OCCN=[N+]=[N-])O[C@@H]3CO)[C@H](O)[C@@H](O)[C@H]2O)(C(=O)O)O[C@H]1C(O)[C@H](O)CNC(=O)OCc1cn(C[C@H](CC(=O)O)CC(C)C)nn1
REMARK SMILES IDX 43 1 42 2 9 3 8 4 41 5 6 6 5 7 10 8 11 9 12 10 14 11 13 12
REMARK SMILES IDX 32 13 34 14 36 15 15 16 16 17 29 18 28 19 21 20 17 21 19 22
REMARK SMILES IDX 30 23 31 24 22 26 23 27 24 28 25 29 26 30 27 31 18 32 20 34
REMARK SMILES IDX 33 36 35 38 37 40 38 42 39 43 40 44 7 46 4 48 2 49 1 51 3 52
REMARK SMILES IDX 44 53 45 55 46 56 47 58 48 59 49 60 50 62 51 63 52 64 53 65
REMARK SMILES IDX 54 66 67 67 55 68 66 69 56 70 57 71 58 72 59 73 60 74 61 75
REMARK SMILES IDX 62 77 63 78 64 79 65 80
REMARK H PARENT 31 25 18 33 20 35 33 37 35 39 37 41 40 45 7 47 4 50 44 54
REMARK H PARENT 46 57 48 61 61 76
REMARK Flexibility Score: inf
ROOT
ATOM      1  C   UNL     1      27.856  30.913  17.395  1.00  0.00     0.176 C 
ENDROOT
BRANCH   1   2
ATOM      2  C   UNL     1      26.527  30.466  17.936  1.00  0.00     0.178 C 
ATOM      3  C   UNL     1      26.462  29.028  19.870  1.00  0.00     0.272 C 
ATOM      4  C   UNL     1      26.270  27.835  19.004  1.00  0.00     0.113 C 
ATOM      5  O   UNL     1      26.746  30.148  19.239  1.00  0.00    -0.332 OA
ATOM      6  C   UNL     1      26.466  28.003  17.552  1.00  0.00     0.145 C 
ATOM      7  C   UNL     1      26.018  29.379  17.054  1.00  0.00     0.142 C 
BRANCH   3   8
ATOM      8  O   UNL     1      27.493  28.762  20.811  1.00  0.00    -0.338 OA
BRANCH   8   9
ATOM      9  C   UNL     1      28.106  27.558  20.661  1.00  0.00     0.199 C 
BRANCH   9  10
ATOM     10  C   UNL     1      29.639  27.745  20.600  1.00  0.00     0.179 C 
ATOM     11  C   UNL     1      31.267  29.387  20.413  1.00  0.00     0.282 C 
ATOM     12  O   UNL     1      29.981  29.065  20.816  1.00  0.00    -0.341 OA
ATOM     13  C   UNL     1      32.135  28.148  20.685  1.00  0.00     0.202 C 
ATOM     14  C   UNL     1      31.658  27.442  21.937  1.00  0.00     0.179 C 
ATOM     15  C   UNL     1      30.272  26.928  21.735  1.00  0.00     0.177 C 
BRANCH  11  16
ATOM     16  O   UNL     1      31.761  30.358  21.249  1.00  0.00    -0.341 OA
BRANCH  16  17
ATOM     17  C   UNL     1      31.107  31.562  21.243  1.00  0.00     0.184 C 
ATOM     18  C   UNL     1      31.965  32.740  20.887  1.00  0.00     0.178 C 
ATOM     19  O   UNL     1      32.136  33.661  21.878  1.00  0.00    -0.341 OA
ATOM     20  C   UNL     1      30.973  34.184  22.410  1.00  0.00     0.281 C 
ATOM     21  C   UNL     1      30.573  31.791  22.642  1.00  0.00     0.180 C 
ATOM     22  C   UNL     1      29.909  33.175  22.666  1.00  0.00     0.202 C 
BRANCH  18  23
ATOM     23  C   UNL     1      31.420  33.337  19.602  1.00  0.00     0.191 C 
BRANCH  23  24
ATOM     24  O   UNL     1      30.144  32.857  19.322  1.00  0.00    -0.394 OA
ATOM     25  H   UNL     1      29.489  33.593  19.169  1.00  0.00     0.210 HD
ENDBRANCH  23  24
ENDBRANCH  18  23
BRANCH  20  26
ATOM     26  O   UNL     1      30.581  35.244  21.607  1.00  0.00    -0.350 OA
BRANCH  26  27
ATOM     27  C   UNL     1      29.255  35.602  21.784  1.00  0.00     0.169 C 
BRANCH  27  28
ATOM     28  C   UNL     1      28.848  36.409  20.559  1.00  0.00     0.119 C 
BRANCH  28  29
ATOM     29  N   UNL     1      27.687  35.727  20.003  1.00  0.00    -0.092 NA
ATOM     30  N   UNL     1      27.493  34.573  20.305  1.00  0.00     0.001 N 
ATOM     31  N   UNL     1      27.145  33.385  20.317  1.00  0.00    -0.003 NA
ENDBRANCH  28  29
ENDBRANCH  27  28
ENDBRANCH  26  27
ENDBRANCH  20  26
BRANCH  21  32
ATOM     32  O   UNL     1      29.683  30.791  22.985  1.00  0.00    -0.387 OA
ATOM     33  H   UNL     1      30.218  29.940  23.063  1.00  0.00     0.211 HD
ENDBRANCH  21  32
BRANCH  22  34
ATOM     34  O   UNL     1      29.353  33.283  23.958  1.00  0.00    -0.385 OA
ATOM     35  H   UNL     1      28.690  34.005  23.927  1.00  0.00     0.211 HD
ENDBRANCH  22  34
ENDBRANCH  16  17
ENDBRANCH  11  16
BRANCH  13  36
ATOM     36  O   UNL     1      32.254  27.329  19.591  1.00  0.00    -0.385 OA
ATOM     37  H   UNL     1      31.554  26.659  19.502  1.00  0.00     0.211 HD
ENDBRANCH  13  36
BRANCH  14  38
ATOM     38  O   UNL     1      31.635  28.432  22.941  1.00  0.00    -0.387 OA
ATOM     39  H   UNL     1      31.372  28.076  23.804  1.00  0.00     0.211 HD
ENDBRANCH  14  38
BRANCH  15  40
ATOM     40  O   UNL     1      29.560  27.154  22.932  1.00  0.00    -0.387 OA
ATOM     41  H   UNL     1      30.139  27.525  23.617  1.00  0.00     0.211 HD
ENDBRANCH  15  40
ENDBRANCH   9  10
ENDBRANCH   8   9
ENDBRANCH   3   8
BRANCH   3  42
ATOM     42  C   UNL     1      25.248  29.201  20.764  1.00  0.00     0.364 C 
ATOM     43  O   UNL     1      25.384  29.314  21.989  1.00  0.00    -0.246 OA
BRANCH  42  44
ATOM     44  O   UNL     1      23.993  29.234  20.229  1.00  0.00    -0.477 OA
ATOM     45  H   UNL     1      23.167  29.506  20.759  1.00  0.00     0.296 HD
ENDBRANCH  42  44
ENDBRANCH   3  42
BRANCH   6  46
ATOM     46  O   UNL     1      27.720  27.723  17.054  1.00  0.00    -0.391 OA
ATOM     47  H   UNL     1      27.599  27.450  16.110  1.00  0.00     0.211 HD
ENDBRANCH   6  46
BRANCH   7  48
ATOM     48  N   UNL     1      24.589  29.290  16.917  1.00  0.00    -0.348 N 
ATOM     49  C   UNL     1      24.002  29.667  15.652  1.00  0.00     0.217 C 
ATOM     50  H   UNL     1      23.920  28.979  17.655  1.00  0.00     0.163 HD
ATOM     51  C   UNL     1      22.508  29.567  15.510  1.00  0.00     0.114 C 
ATOM     52  O   UNL     1      24.693  30.069  14.684  1.00  0.00    -0.275 OA
ENDBRANCH   7  48
ENDBRANCH   1   2
BRANCH   1  53
ATOM     53  O   UNL     1      28.025  32.294  17.712  1.00  0.00    -0.388 OA
ATOM     54  H   UNL     1      28.665  32.376  18.466  1.00  0.00     0.211 HD
ENDBRANCH   1  53
BRANCH   1  55
ATOM     55  C   UNL     1      28.037  30.872  15.894  1.00  0.00     0.165 C 
BRANCH  55  56
ATOM     56  O   UNL     1      29.248  30.060  15.789  1.00  0.00    -0.388 OA
ATOM     57  H   UNL     1      29.216  29.786  14.817  1.00  0.00     0.211 HD
ENDBRANCH  55  56
BRANCH  55  58
ATOM     58  C   UNL     1      28.477  32.178  15.326  1.00  0.00     0.154 C 
BRANCH  58  59
ATOM     59  N   UNL     1      29.865  32.207  15.035  1.00  0.00    -0.319 N 
ATOM     60  C   UNL     1      30.627  33.263  15.662  1.00  0.00     0.407 C 
ATOM     61  H   UNL     1      30.410  31.572  14.425  1.00  0.00     0.167 HD
ATOM     62  O   UNL     1      30.044  34.086  16.423  1.00  0.00    -0.225 OA
BRANCH  60  63
ATOM     63  O   UNL     1      31.980  33.437  15.474  1.00  0.00    -0.443 OA
BRANCH  63  64
ATOM     64  C   UNL     1      32.594  34.583  14.923  1.00  0.00     0.294 C 
BRANCH  64  65
ATOM     65  C   UNL     1      33.573  35.223  15.847  1.00  0.00     0.120 A 
ATOM     66  C   UNL     1      34.889  35.548  15.615  1.00  0.00     0.138 A 
ATOM     67  N   UNL     1      33.298  35.598  17.100  1.00  0.00    -0.132 NA
ATOM     68  N   UNL     1      35.394  36.121  16.751  1.00  0.00    -0.252 N 
ATOM     69  N   UNL     1      34.398  36.125  17.606  1.00  0.00    -0.067 NA
BRANCH  68  70
ATOM     70  C   UNL     1      36.715  36.583  16.965  1.00  0.00     0.150 C 
BRANCH  70  71
ATOM     71  C   UNL     1      37.790  35.685  16.517  1.00  0.00     0.022 C 
BRANCH  71  72
ATOM     72  C   UNL     1      38.709  35.156  17.554  1.00  0.00     0.128 C 
BRANCH  72  73
ATOM     73  C   UNL     1      38.502  33.768  17.986  1.00  0.00     0.303 C 
ATOM     74  O   UNL     1      37.798  33.539  19.005  1.00  0.00    -0.252 OA
BRANCH  73  75
ATOM     75  O   UNL     1      39.041  32.669  17.330  1.00  0.00    -0.481 OA
ATOM     76  H   UNL     1      38.610  31.760  17.420  1.00  0.00     0.296 HD
ENDBRANCH  73  75
ENDBRANCH  72  73
ENDBRANCH  71  72
BRANCH  71  77
ATOM     77  C   UNL     1      38.502  36.128  15.271  1.00  0.00     0.009 C 
BRANCH  77  78
ATOM     78  C   UNL     1      38.785  35.156  14.217  1.00  0.00    -0.017 C 
ATOM     79  C   UNL     1      40.179  34.677  14.031  1.00  0.00     0.007 C 
ATOM     80  C   UNL     1      37.869  33.946  14.216  1.00  0.00     0.007 C 
ENDBRANCH  77  78
ENDBRANCH  71  77
ENDBRANCH  70  71
ENDBRANCH  68  70
ENDBRANCH  64  65
ENDBRANCH  63  64
ENDBRANCH  60  63
ENDBRANCH  58  59
ENDBRANCH  55  58
ENDBRANCH   1  55
TORSDOF 36
BEGIN_RES LYS A 131
REMARK  4 active torsions:
REMARK  status: ('A' for Active; 'I' for Inactive)
REMARK    1  A    between atoms: CA   and  CB  
REMARK    2  A    between atoms: CB   and  CG  
REMARK    3  A    between atoms: CG   and  CD  
REMARK    4  A    between atoms: CD   and  CE  
ROOT
ATOM      1  CA  LYS A 131      29.867  25.555  16.977  1.00 20.52     0.186 C 
ENDROOT
BRANCH   1   2
ATOM      2  CB  LYS A 131      28.345  25.722  17.026  1.00 20.94     0.034 C 
BRANCH   2   3
ATOM      3  CG  LYS A 131      27.601  24.402  16.889  1.00 22.96     0.005 C 
BRANCH   3   4
ATOM      4  CD  LYS A 131      26.639  24.174  18.022  1.00 24.33     0.041 C 
BRANCH   4   5
ATOM      5  CE  LYS A 131      25.321  23.640  17.470  1.00 26.91     0.338 C 
ATOM      6  NZ  LYS A 131      24.496  24.747  16.934  1.00 27.40     0.618 N 
ENDBRANCH   4   5
ENDBRANCH   3   4
ENDBRANCH   2   3
ENDBRANCH   1   2
END_RES LYS A 131
BEGIN_RES LYS A 135
REMARK  4 active torsions:
REMARK  status: ('A' for Active; 'I' for Inactive)
REMARK    5  A    between atoms: CA   and  CB  
REMARK    6  A    between atoms: CB   and  CG  
REMARK    7  A    between atoms: CG   and  CD  
REMARK    8  A    between atoms: CD   and  CE  
ROOT
ATOM      7  CA  LYS A 135      33.193  34.663   9.290  1.00 25.02     0.186 C 
ENDROOT
BRANCH   7   8
ATOM      8  CB  LYS A 135      32.060  35.360  10.034  1.00 26.63     0.034 C 
BRANCH   8   9
ATOM      9  CG  LYS A 135      30.709  34.735   9.797  1.00 29.45     0.005 C 
BRANCH   9  10
ATOM     10  CD  LYS A 135      30.484  34.489   8.313  1.00 32.00     0.041 C 
BRANCH  10  11
ATOM     11  CE  LYS A 135      29.062  34.847   7.924  1.00 34.25     0.338 C 
ATOM     12  NZ  LYS A 135      28.992  36.218   7.348  1.00 35.99     0.618 N 
ENDBRANCH  10  11
ENDBRANCH   9  10
ENDBRANCH   8   9
ENDBRANCH   7   8
END_RES LYS A 135
