REMARK VINA RESULT:    -5.054      0.000      0.000
REMARK INTER + INTRA:         -23.665
REMARK INTER:                 -10.915
REMARK INTRA:                 -12.750
REMARK UNBOUND:               -10.485
REMARK SMILES CC(=O)N[C@@H]1[C@@H](O)C[C@](OC[C@H]2O[C@@H](O[C@H]3[C@H](O)[C@@H](O)[C@H](OCCN=[N+]=[N-])O[C@@H]3CO)[C@H](O)[C@@H](O)[C@H]2O)(C(=O)O)O[C@H]1C(O)[C@H](O)CNC(=O)OCc1cn(CC(O)c2ccccc2)nn1
REMARK SMILES IDX 9 1 8 2 6 3 5 4 42 5 41 6 10 7 11 8 12 9 14 10 13 11 32 12
REMARK SMILES IDX 34 13 36 14 15 15 16 16 29 17 28 18 21 19 17 20 19 21 30 22
REMARK SMILES IDX 31 23 22 25 23 26 24 27 25 28 26 29 27 30 18 31 20 33 33 35
REMARK SMILES IDX 35 37 37 39 38 41 39 42 40 43 7 45 43 47 44 48 45 50 46 51
REMARK SMILES IDX 47 53 48 54 49 55 50 57 51 58 52 59 53 60 54 61 66 62 55 63
REMARK SMILES IDX 65 64 56 65 57 66 58 67 59 69 60 70 64 71 61 72 63 73 62 74
REMARK SMILES IDX 4 75 2 76 1 78 3 79
REMARK H PARENT 31 24 18 32 20 34 33 36 35 38 37 40 40 44 7 46 44 49 46 52
REMARK H PARENT 48 56 58 68 4 77
REMARK Flexibility Score: inf
ROOT
ATOM      1  C   UNL     1      22.469  36.772   8.884  1.00  0.00     0.272 C 
ATOM      2  C   UNL     1      22.165  35.589   9.722  1.00  0.00     0.113 C 
ATOM      3  C   UNL     1      23.090  35.310  10.854  1.00  0.00     0.145 C 
ATOM      4  C   UNL     1      24.342  36.110  10.673  1.00  0.00     0.142 C 
ATOM      5  C   UNL     1      24.682  36.098   9.193  1.00  0.00     0.178 C 
ATOM      6  O   UNL     1      23.775  36.711   8.387  1.00  0.00    -0.332 OA
ENDROOT
BRANCH   1   7
ATOM      7  O   UNL     1      22.318  38.004   9.448  1.00  0.00    -0.338 OA
BRANCH   7   8
ATOM      8  C   UNL     1      21.838  39.013   8.672  1.00  0.00     0.199 C 
BRANCH   8   9
ATOM      9  C   UNL     1      22.653  40.274   8.843  1.00  0.00     0.179 C 
ATOM     10  C   UNL     1      24.853  40.855   9.185  1.00  0.00     0.282 C 
ATOM     11  O   UNL     1      23.829  40.008   9.516  1.00  0.00    -0.341 OA
ATOM     12  C   UNL     1      25.311  40.769   7.746  1.00  0.00     0.202 C 
ATOM     13  C   UNL     1      24.102  40.457   6.891  1.00  0.00     0.179 C 
ATOM     14  C   UNL     1      22.897  41.049   7.592  1.00  0.00     0.177 C 
BRANCH  10  15
ATOM     15  O   UNL     1      25.992  40.618   9.947  1.00  0.00    -0.341 OA
BRANCH  15  16
ATOM     16  C   UNL     1      26.316  41.598  10.846  1.00  0.00     0.184 C 
ATOM     17  C   UNL     1      27.761  41.351  11.261  1.00  0.00     0.178 C 
ATOM     18  O   UNL     1      27.828  40.705  12.478  1.00  0.00    -0.341 OA
ATOM     19  C   UNL     1      26.976  39.587  12.418  1.00  0.00     0.281 C 
ATOM     20  C   UNL     1      25.364  41.443  12.026  1.00  0.00     0.180 C 
ATOM     21  C   UNL     1      25.568  40.097  12.702  1.00  0.00     0.202 C 
BRANCH  17  22
ATOM     22  C   UNL     1      28.550  42.649  11.265  1.00  0.00     0.191 C 
BRANCH  22  23
ATOM     23  O   UNL     1      28.178  43.465  12.329  1.00  0.00    -0.394 OA
ATOM     24  H   UNL     1      28.717  43.284  13.144  1.00  0.00     0.210 HD
ENDBRANCH  22  23
ENDBRANCH  17  22
BRANCH  19  25
ATOM     25  O   UNL     1      27.423  38.696  13.364  1.00  0.00    -0.350 OA
BRANCH  25  26
ATOM     26  C   UNL     1      27.129  39.019  14.667  1.00  0.00     0.169 C 
BRANCH  26  27
ATOM     27  C   UNL     1      28.122  38.506  15.672  1.00  0.00     0.119 C 
BRANCH  27  28
ATOM     28  N   UNL     1      29.146  39.525  15.925  1.00  0.00    -0.092 NA
ATOM     29  N   UNL     1      30.233  39.077  16.323  1.00  0.00     0.001 N 
ATOM     30  N   UNL     1      31.421  38.863  16.563  1.00  0.00    -0.003 NA
ENDBRANCH  27  28
ENDBRANCH  26  27
ENDBRANCH  25  26
ENDBRANCH  19  25
BRANCH  20  31
ATOM     31  O   UNL     1      25.555  42.475  12.934  1.00  0.00    -0.387 OA
ATOM     32  H   UNL     1      26.149  43.170  12.533  1.00  0.00     0.211 HD
ENDBRANCH  20  31
BRANCH  21  33
ATOM     33  O   UNL     1      24.590  39.197  12.322  1.00  0.00    -0.385 OA
ATOM     34  H   UNL     1      23.749  39.700  12.191  1.00  0.00     0.211 HD
ENDBRANCH  21  33
ENDBRANCH  15  16
ENDBRANCH  10  15
BRANCH  12  35
ATOM     35  O   UNL     1      25.831  42.013   7.370  1.00  0.00    -0.385 OA
ATOM     36  H   UNL     1      26.573  41.838   6.729  1.00  0.00     0.211 HD
ENDBRANCH  12  35
BRANCH  13  37
ATOM     37  O   UNL     1      24.016  39.069   6.832  1.00  0.00    -0.387 OA
ATOM     38  H   UNL     1      24.297  38.616   7.647  1.00  0.00     0.211 HD
ENDBRANCH  13  37
BRANCH  14  39
ATOM     39  O   UNL     1      21.789  41.182   6.788  1.00  0.00    -0.387 OA
ATOM     40  H   UNL     1      20.959  41.406   7.282  1.00  0.00     0.211 HD
ENDBRANCH  14  39
ENDBRANCH   8   9
ENDBRANCH   7   8
ENDBRANCH   1   7
BRANCH   1  41
ATOM     41  C   UNL     1      21.605  36.622   7.641  1.00  0.00     0.364 C 
ATOM     42  O   UNL     1      20.414  36.381   7.753  1.00  0.00    -0.246 OA
BRANCH  41  43
ATOM     43  O   UNL     1      22.254  36.774   6.429  1.00  0.00    -0.477 OA
ATOM     44  H   UNL     1      21.983  36.157   5.693  1.00  0.00     0.296 HD
ENDBRANCH  41  43
ENDBRANCH   1  41
BRANCH   3  45
ATOM     45  O   UNL     1      22.477  35.508  12.092  1.00  0.00    -0.391 OA
ATOM     46  H   UNL     1      22.741  34.726  12.654  1.00  0.00     0.211 HD
ENDBRANCH   3  45
BRANCH   5  47
ATOM     47  C   UNL     1      26.088  36.631   9.088  1.00  0.00     0.176 C 
BRANCH  47  48
ATOM     48  O   UNL     1      26.144  37.872   9.743  1.00  0.00    -0.388 OA
ATOM     49  H   UNL     1      26.439  37.685  10.677  1.00  0.00     0.211 HD
ENDBRANCH  47  48
BRANCH  47  50
ATOM     50  C   UNL     1      26.565  36.715   7.677  1.00  0.00     0.165 C 
BRANCH  50  51
ATOM     51  O   UNL     1      27.195  35.573   7.260  1.00  0.00    -0.388 OA
ATOM     52  H   UNL     1      27.491  34.980   7.968  1.00  0.00     0.211 HD
ENDBRANCH  50  51
BRANCH  50  53
ATOM     53  C   UNL     1      27.256  38.006   7.323  1.00  0.00     0.154 C 
BRANCH  53  54
ATOM     54  N   UNL     1      28.606  38.136   7.785  1.00  0.00    -0.319 N 
ATOM     55  C   UNL     1      29.269  39.377   8.017  1.00  0.00     0.407 C 
ATOM     56  H   UNL     1      29.177  37.253   7.983  1.00  0.00     0.167 HD
ATOM     57  O   UNL     1      28.680  40.456   7.831  1.00  0.00    -0.225 OA
BRANCH  55  58
ATOM     58  O   UNL     1      30.575  39.418   8.453  1.00  0.00    -0.443 OA
BRANCH  58  59
ATOM     59  C   UNL     1      31.034  40.305   9.472  1.00  0.00     0.294 C 
BRANCH  59  60
ATOM     60  C   UNL     1      30.926  39.630  10.804  1.00  0.00     0.120 A 
ATOM     61  C   UNL     1      30.544  38.350  11.113  1.00  0.00     0.138 A 
ATOM     62  N   UNL     1      31.230  40.232  11.975  1.00  0.00    -0.132 NA
ATOM     63  N   UNL     1      30.620  38.187  12.468  1.00  0.00    -0.249 N 
ATOM     64  N   UNL     1      31.036  39.347  12.921  1.00  0.00    -0.067 NA
BRANCH  63  65
ATOM     65  C   UNL     1      30.302  36.969  13.197  1.00  0.00     0.182 C 
BRANCH  65  66
ATOM     66  C   UNL     1      31.579  36.232  13.558  1.00  0.00     0.166 C 
BRANCH  66  67
ATOM     67  O   UNL     1      32.307  37.147  14.355  1.00  0.00    -0.386 OA
ATOM     68  H   UNL     1      32.894  36.648  14.988  1.00  0.00     0.211 HD
ENDBRANCH  66  67
BRANCH  66  69
ATOM     69  C   UNL     1      31.366  34.980  14.290  1.00  0.00    -0.018 A 
ATOM     70  C   UNL     1      30.473  34.031  13.895  1.00  0.00     0.006 A 
ATOM     71  C   UNL     1      32.136  34.821  15.451  1.00  0.00     0.006 A 
ATOM     72  C   UNL     1      30.338  32.890  14.671  1.00  0.00     0.000 A 
ATOM     73  C   UNL     1      31.982  33.686  16.200  1.00  0.00     0.000 A 
ATOM     74  C   UNL     1      31.081  32.713  15.814  1.00  0.00     0.000 A 
ENDBRANCH  66  69
ENDBRANCH  65  66
ENDBRANCH  63  65
ENDBRANCH  59  60
ENDBRANCH  58  59
ENDBRANCH  55  58
ENDBRANCH  53  54
ENDBRANCH  50  53
ENDBRANCH  47  50
ENDBRANCH   5  47
BRANCH   4  75
ATOM     75  N   UNL     1      25.474  35.433  11.325  1.00  0.00    -0.348 N 
ATOM     76  C   UNL     1      25.808  35.650  12.685  1.00  0.00     0.217 C 
ATOM     77  H   UNL     1      26.067  34.767  10.784  1.00  0.00     0.163 HD
ATOM     78  C   UNL     1      26.942  34.986  13.377  1.00  0.00     0.114 C 
ATOM     79  O   UNL     1      25.094  36.455  13.345  1.00  0.00    -0.275 OA
ENDBRANCH   4  75
TORSDOF 33
BEGIN_RES LYS A 131
REMARK  4 active torsions:
REMARK  status: ('A' for Active; 'I' for Inactive)
REMARK    1  A    between atoms: CA   and  CB  
REMARK    2  A    between atoms: CB   and  CG  
REMARK    3  A    between atoms: CG   and  CD  
REMARK    4  A    between atoms: CD   and  CE  
ROOT
ATOM      1  CA  LYS A 131      29.867  25.555  16.977  1.00 20.52     0.186 C 
ENDROOT
BRANCH   1   2
ATOM      2  CB  LYS A 131      28.345  25.722  17.026  1.00 20.94     0.034 C 
BRANCH   2   3
ATOM      3  CG  LYS A 131      27.602  24.400  16.917  1.00 22.96     0.005 C 
BRANCH   3   4
ATOM      4  CD  LYS A 131      26.152  24.532  17.295  1.00 24.33     0.041 C 
BRANCH   4   5
ATOM      5  CE  LYS A 131      25.636  23.191  17.808  1.00 26.91     0.338 C 
ATOM      6  NZ  LYS A 131      25.511  23.215  19.285  1.00 27.40     0.618 N 
ENDBRANCH   4   5
ENDBRANCH   3   4
ENDBRANCH   2   3
ENDBRANCH   1   2
END_RES LYS A 131
BEGIN_RES LYS A 135
REMARK  4 active torsions:
REMARK  status: ('A' for Active; 'I' for Inactive)
REMARK    5  A    between atoms: CA   and  CB  
REMARK    6  A    between atoms: CB   and  CG  
REMARK    7  A    between atoms: CG   and  CD  
REMARK    8  A    between atoms: CD   and  CE  
ROOT
ATOM      7  CA  LYS A 135      33.193  34.663   9.290  1.00 25.02     0.186 C 
ENDROOT
BRANCH   7   8
ATOM      8  CB  LYS A 135      32.060  35.360  10.034  1.00 26.63     0.034 C 
BRANCH   8   9
ATOM      9  CG  LYS A 135      30.807  35.518   9.212  1.00 29.45     0.005 C 
BRANCH   9  10
ATOM     10  CD  LYS A 135      29.990  34.235   9.227  1.00 32.00     0.041 C 
BRANCH  10  11
ATOM     11  CE  LYS A 135      28.800  34.372  10.158  1.00 34.25     0.338 C 
ATOM     12  NZ  LYS A 135      27.676  33.498   9.724  1.00 35.99     0.618 N 
ENDBRANCH  10  11
ENDBRANCH   9  10
ENDBRANCH   8   9
ENDBRANCH   7   8
END_RES LYS A 135
