REMARK VINA RESULT:    -5.895      3.342      6.651
REMARK INTER + INTRA:         -22.430
REMARK INTER:                 -13.616
REMARK INTRA:                  -8.814
REMARK UNBOUND:                -7.575
REMARK SMILES CC(=O)N[C@@H]1[C@@H](O)C[C@](OC[C@H]2O[C@@H](O[C@H]3[C@H](O)[C@@H](O)[C@H](OCCN=[N+]=[N-])O[C@@H]3CO)[C@H](O)[C@@H](O)[C@H]2O)(C(=O)O)O[C@H]1C(O)[C@H](O)CNC(=O)OCc1cn(Cc2ccccc2Br)nn1
REMARK SMILES IDX 9 1 8 2 6 3 5 4 42 5 41 6 10 7 11 8 12 9 14 10 13 11 32 12
REMARK SMILES IDX 34 13 36 14 15 15 16 16 29 17 28 18 21 19 17 20 19 21 30 22
REMARK SMILES IDX 31 23 22 25 23 26 24 27 25 28 26 29 27 30 18 31 20 33 33 35
REMARK SMILES IDX 35 37 37 39 38 41 39 42 40 43 7 45 43 47 44 48 45 50 46 51
REMARK SMILES IDX 47 53 48 54 49 55 50 57 51 58 52 59 53 60 54 61 65 62 55 63
REMARK SMILES IDX 64 64 56 65 57 66 58 67 62 68 59 69 61 70 63 71 60 72 4 73
REMARK SMILES IDX 2 74 1 76 3 77
REMARK H PARENT 31 24 18 32 20 34 33 36 35 38 37 40 40 44 7 46 44 49 46 52
REMARK H PARENT 48 56 4 75
REMARK Flexibility Score: inf
ROOT
ATOM      1  C   UNL     1      28.315  36.556  12.359  1.00  0.00     0.272 C 
ATOM      2  C   UNL     1      27.872  37.701  13.180  1.00  0.00     0.113 C 
ATOM      3  C   UNL     1      28.127  37.471  14.626  1.00  0.00     0.145 C 
ATOM      4  C   UNL     1      29.589  37.193  14.834  1.00  0.00     0.142 C 
ATOM      5  C   UNL     1      30.227  36.436  13.734  1.00  0.00     0.178 C 
ATOM      6  O   UNL     1      29.783  36.625  12.473  1.00  0.00    -0.332 OA
ENDROOT
BRANCH   1   7
ATOM      7  O   UNL     1      28.098  36.663  11.035  1.00  0.00    -0.338 OA
BRANCH   7   8
ATOM      8  C   UNL     1      27.430  37.538  10.355  1.00  0.00     0.199 C 
BRANCH   8   9
ATOM      9  C   UNL     1      26.244  37.387   9.510  1.00  0.00     0.179 C 
ATOM     10  C   UNL     1      23.984  37.595   9.182  1.00  0.00     0.282 C 
ATOM     11  O   UNL     1      25.110  38.129   9.854  1.00  0.00    -0.341 OA
ATOM     12  C   UNL     1      24.065  38.095   7.766  1.00  0.00     0.202 C 
ATOM     13  C   UNL     1      25.407  37.841   7.172  1.00  0.00     0.179 C 
ATOM     14  C   UNL     1      26.417  37.161   8.053  1.00  0.00     0.177 C 
BRANCH  10  15
ATOM     15  O   UNL     1      22.884  38.039   9.853  1.00  0.00    -0.341 OA
BRANCH  15  16
ATOM     16  C   UNL     1      22.055  37.115  10.413  1.00  0.00     0.184 C 
ATOM     17  C   UNL     1      22.334  35.691  10.082  1.00  0.00     0.178 C 
ATOM     18  O   UNL     1      21.142  35.093   9.683  1.00  0.00    -0.341 OA
ATOM     19  C   UNL     1      20.769  35.742   8.479  1.00  0.00     0.281 C 
ATOM     20  C   UNL     1      20.582  37.431  10.204  1.00  0.00     0.180 C 
ATOM     21  C   UNL     1      20.143  37.073   8.797  1.00  0.00     0.202 C 
BRANCH  17  22
ATOM     22  C   UNL     1      22.825  34.901  11.294  1.00  0.00     0.191 C 
BRANCH  22  23
ATOM     23  O   UNL     1      21.928  33.879  11.607  1.00  0.00    -0.394 OA
ATOM     24  H   UNL     1      21.060  34.221  11.919  1.00  0.00     0.210 HD
ENDBRANCH  22  23
ENDBRANCH  17  22
BRANCH  19  25
ATOM     25  O   UNL     1      19.902  34.866   7.831  1.00  0.00    -0.350 OA
BRANCH  25  26
ATOM     26  C   UNL     1      18.576  35.075   8.210  1.00  0.00     0.169 C 
BRANCH  26  27
ATOM     27  C   UNL     1      18.043  33.767   8.768  1.00  0.00     0.119 C 
BRANCH  27  28
ATOM     28  N   UNL     1      17.646  32.938   7.659  1.00  0.00    -0.092 NA
ATOM     29  N   UNL     1      16.675  33.222   6.950  1.00  0.00     0.001 N 
ATOM     30  N   UNL     1      15.482  33.365   6.611  1.00  0.00    -0.003 NA
ENDBRANCH  27  28
ENDBRANCH  26  27
ENDBRANCH  25  26
ENDBRANCH  19  25
BRANCH  20  31
ATOM     31  O   UNL     1      19.785  36.672  11.064  1.00  0.00    -0.387 OA
ATOM     32  H   UNL     1      19.406  37.311  11.730  1.00  0.00     0.211 HD
ENDBRANCH  20  31
BRANCH  21  33
ATOM     33  O   UNL     1      20.410  38.056   7.880  1.00  0.00    -0.385 OA
ATOM     34  H   UNL     1      19.719  38.757   7.936  1.00  0.00     0.211 HD
ENDBRANCH  21  33
ENDBRANCH  15  16
ENDBRANCH  10  15
BRANCH  12  35
ATOM     35  O   UNL     1      23.137  37.439   6.941  1.00  0.00    -0.385 OA
ATOM     36  H   UNL     1      22.295  37.393   7.448  1.00  0.00     0.211 HD
ENDBRANCH  12  35
BRANCH  13  37
ATOM     37  O   UNL     1      25.954  39.060   6.748  1.00  0.00    -0.387 OA
ATOM     38  H   UNL     1      25.506  39.830   7.154  1.00  0.00     0.211 HD
ENDBRANCH  13  37
BRANCH  14  39
ATOM     39  O   UNL     1      27.668  37.538   7.587  1.00  0.00    -0.387 OA
ATOM     40  H   UNL     1      28.202  36.840   7.180  1.00  0.00     0.211 HD
ENDBRANCH  14  39
ENDBRANCH   8   9
ENDBRANCH   7   8
ENDBRANCH   1   7
BRANCH   1  41
ATOM     41  C   UNL     1      28.078  35.195  12.885  1.00  0.00     0.364 C 
ATOM     42  O   UNL     1      28.869  34.226  12.825  1.00  0.00    -0.246 OA
BRANCH  41  43
ATOM     43  O   UNL     1      26.869  34.927  13.505  1.00  0.00    -0.477 OA
ATOM     44  H   UNL     1      26.811  34.714  14.502  1.00  0.00     0.296 HD
ENDBRANCH  41  43
ENDBRANCH   1  41
BRANCH   3  45
ATOM     45  O   UNL     1      27.822  38.717  15.263  1.00  0.00    -0.391 OA
ATOM     46  H   UNL     1      28.551  39.355  15.139  1.00  0.00     0.211 HD
ENDBRANCH   3  45
BRANCH   5  47
ATOM     47  C   UNL     1      31.729  36.737  13.715  1.00  0.00     0.176 C 
BRANCH  47  48
ATOM     48  O   UNL     1      31.900  37.936  13.040  1.00  0.00    -0.388 OA
ATOM     49  H   UNL     1      31.182  38.140  12.415  1.00  0.00     0.211 HD
ENDBRANCH  47  48
BRANCH  47  50
ATOM     50  C   UNL     1      32.522  35.671  13.042  1.00  0.00     0.165 C 
BRANCH  50  51
ATOM     51  O   UNL     1      31.699  34.714  12.423  1.00  0.00    -0.388 OA
ATOM     52  H   UNL     1      31.811  34.752  11.439  1.00  0.00     0.211 HD
ENDBRANCH  50  51
BRANCH  50  53
ATOM     53  C   UNL     1      33.343  34.907  14.048  1.00  0.00     0.154 C 
BRANCH  53  54
ATOM     54  N   UNL     1      32.628  33.780  14.531  1.00  0.00    -0.319 N 
ATOM     55  C   UNL     1      32.070  33.687  15.823  1.00  0.00     0.407 C 
ATOM     56  H   UNL     1      32.510  32.955  13.872  1.00  0.00     0.167 HD
ATOM     57  O   UNL     1      32.171  34.627  16.650  1.00  0.00    -0.225 OA
BRANCH  55  58
ATOM     58  O   UNL     1      31.377  32.542  16.238  1.00  0.00    -0.443 OA
BRANCH  58  59
ATOM     59  C   UNL     1      30.320  32.006  15.489  1.00  0.00     0.294 C 
BRANCH  59  60
ATOM     60  C   UNL     1      28.994  32.582  15.808  1.00  0.00     0.120 A 
ATOM     61  C   UNL     1      27.803  31.839  15.823  1.00  0.00     0.138 A 
ATOM     62  N   UNL     1      28.642  33.830  16.127  1.00  0.00    -0.132 NA
ATOM     63  N   UNL     1      26.809  32.660  16.145  1.00  0.00    -0.248 N 
ATOM     64  N   UNL     1      27.342  33.873  16.326  1.00  0.00    -0.067 NA
BRANCH  63  65
ATOM     65  C   UNL     1      25.384  32.372  16.307  1.00  0.00     0.182 C 
BRANCH  65  66
ATOM     66  C   UNL     1      24.814  31.575  15.200  1.00  0.00    -0.012 A 
ATOM     67  C   UNL     1      24.557  32.247  13.994  1.00  0.00     0.007 A 
ATOM     68  C   UNL     1      24.501  30.246  15.286  1.00  0.00     0.023 A 
ATOM     69  C   UNL     1      24.005  31.558  12.958  1.00  0.00     0.000 A 
ATOM     70  C   UNL     1      23.938  29.558  14.222  1.00  0.00     0.016 A 
ATOM     71  Br  UNL     1      24.880  29.265  16.868  1.00  0.00    -0.050 Br
ATOM     72  C   UNL     1      23.692  30.229  13.053  1.00  0.00     0.001 A 
ENDBRANCH  65  66
ENDBRANCH  63  65
ENDBRANCH  59  60
ENDBRANCH  58  59
ENDBRANCH  55  58
ENDBRANCH  53  54
ENDBRANCH  50  53
ENDBRANCH  47  50
ENDBRANCH   5  47
BRANCH   4  73
ATOM     73  N   UNL     1      29.760  36.497  16.084  1.00  0.00    -0.348 N 
ATOM     74  C   UNL     1      29.949  37.162  17.332  1.00  0.00     0.217 C 
ATOM     75  H   UNL     1      29.756  35.457  16.140  1.00  0.00     0.163 HD
ATOM     76  C   UNL     1      30.122  36.375  18.594  1.00  0.00     0.114 C 
ATOM     77  O   UNL     1      29.966  38.400  17.340  1.00  0.00    -0.275 OA
ENDBRANCH   4  73
TORSDOF 31
BEGIN_RES LYS A 131
REMARK  4 active torsions:
REMARK  status: ('A' for Active; 'I' for Inactive)
REMARK    1  A    between atoms: CA   and  CB  
REMARK    2  A    between atoms: CB   and  CG  
REMARK    3  A    between atoms: CG   and  CD  
REMARK    4  A    between atoms: CD   and  CE  
ROOT
ATOM      1  CA  LYS A 131      29.867  25.555  16.977  1.00 20.52     0.186 C 
ENDROOT
BRANCH   1   2
ATOM      2  CB  LYS A 131      28.345  25.722  17.026  1.00 20.94     0.034 C 
BRANCH   2   3
ATOM      3  CG  LYS A 131      27.601  24.401  16.906  1.00 22.96     0.005 C 
BRANCH   3   4
ATOM      4  CD  LYS A 131      26.592  24.217  18.005  1.00 24.33     0.041 C 
BRANCH   4   5
ATOM      5  CE  LYS A 131      25.718  25.463  18.107  1.00 26.91     0.338 C 
ATOM      6  NZ  LYS A 131      24.508  25.319  17.263  1.00 27.40     0.618 N 
ENDBRANCH   4   5
ENDBRANCH   3   4
ENDBRANCH   2   3
ENDBRANCH   1   2
END_RES LYS A 131
BEGIN_RES LYS A 135
REMARK  4 active torsions:
REMARK  status: ('A' for Active; 'I' for Inactive)
REMARK    5  A    between atoms: CA   and  CB  
REMARK    6  A    between atoms: CB   and  CG  
REMARK    7  A    between atoms: CG   and  CD  
REMARK    8  A    between atoms: CD   and  CE  
ROOT
ATOM      7  CA  LYS A 135      33.193  34.663   9.290  1.00 25.02     0.186 C 
ENDROOT
BRANCH   7   8
ATOM      8  CB  LYS A 135      32.060  35.360  10.034  1.00 26.63     0.034 C 
BRANCH   8   9
ATOM      9  CG  LYS A 135      30.784  35.452   9.238  1.00 29.45     0.005 C 
BRANCH   9  10
ATOM     10  CD  LYS A 135      30.004  34.148   9.321  1.00 32.00     0.041 C 
BRANCH  10  11
ATOM     11  CE  LYS A 135      28.648  34.295   8.659  1.00 34.25     0.338 C 
ATOM     12  NZ  LYS A 135      27.567  33.744   9.522  1.00 35.99     0.618 N 
ENDBRANCH  10  11
ENDBRANCH   9  10
ENDBRANCH   8   9
ENDBRANCH   7   8
END_RES LYS A 135
