REMARK VINA RESULT:    -4.813      3.050      7.064
REMARK INTER + INTRA:         -22.147
REMARK INTER:                 -10.640
REMARK INTRA:                 -11.507
REMARK UNBOUND:               -10.018
REMARK SMILES COc1ccc(-n2cc(COC(=O)NC[C@@H](O)C(O)[C@@H]3O[C@@](OC[C@H]4O[C@@H](O[C@H]5[C@H](O)[C@@H](O)[C@H](OCCN=[N+]=[N-])O[C@@H]5CO)[C@H](O)[C@@H](O)[C@H]4O)(C(=O)O)C[C@H](O)[C@H]3NC(C)=O)nn2)cc1
REMARK SMILES IDX 22 1 54 2 55 3 57 4 20 5 21 6 23 7 24 8 25 9 27 10 26 11
REMARK SMILES IDX 45 12 47 13 49 14 28 15 29 16 42 17 41 18 34 19 30 20 32 21
REMARK SMILES IDX 43 22 44 23 35 25 36 26 37 27 38 28 39 29 40 30 31 31 33 33
REMARK SMILES IDX 46 35 48 37 50 39 51 41 52 42 53 43 56 45 18 47 19 48 16 50
REMARK SMILES IDX 17 51 15 53 14 54 12 55 13 57 11 58 10 59 9 60 8 61 62 62
REMARK SMILES IDX 7 63 63 64 6 65 5 66 64 67 4 68 65 69 3 70 2 71 1 72 58 73
REMARK SMILES IDX 59 74 60 76 61 77
REMARK H PARENT 44 24 31 32 33 34 46 36 48 38 50 40 53 44 56 46 19 49 17 52
REMARK H PARENT 14 56 58 75
REMARK Flexibility Score: inf
ROOT
ATOM      1  C   UNL     1      31.245  35.269  14.793  1.00  0.00     0.272 C 
ATOM      2  C   UNL     1      32.146  34.180  15.241  1.00  0.00     0.113 C 
ATOM      3  C   UNL     1      31.514  32.981  15.830  1.00  0.00     0.145 C 
ATOM      4  C   UNL     1      30.119  33.384  16.348  1.00  0.00     0.142 C 
ATOM      5  C   UNL     1      30.239  34.765  16.889  1.00  0.00     0.178 C 
ATOM      6  O   UNL     1      30.329  35.628  15.799  1.00  0.00    -0.332 OA
ENDROOT
BRANCH   1   7
ATOM      7  O   UNL     1      30.641  35.312  13.647  1.00  0.00    -0.338 OA
BRANCH   7   8
ATOM      8  C   UNL     1      29.487  35.178  13.108  1.00  0.00     0.199 C 
BRANCH   8   9
ATOM      9  C   UNL     1      28.763  36.264  12.366  1.00  0.00     0.179 C 
ATOM     10  C   UNL     1      27.390  36.823  10.627  1.00  0.00     0.282 C 
ATOM     11  O   UNL     1      27.933  35.789  11.409  1.00  0.00    -0.341 OA
ATOM     12  C   UNL     1      26.589  37.815  11.408  1.00  0.00     0.202 C 
ATOM     13  C   UNL     1      26.837  37.837  12.870  1.00  0.00     0.179 C 
ATOM     14  C   UNL     1      28.125  37.261  13.302  1.00  0.00     0.177 C 
BRANCH  10  15
ATOM     15  O   UNL     1      26.572  36.224   9.674  1.00  0.00    -0.341 OA
BRANCH  15  16
ATOM     16  C   UNL     1      25.291  36.704   9.686  1.00  0.00     0.184 C 
ATOM     17  C   UNL     1      24.284  35.655   9.984  1.00  0.00     0.178 C 
ATOM     18  O   UNL     1      22.967  36.179   9.885  1.00  0.00    -0.341 OA
ATOM     19  C   UNL     1      22.758  36.396   8.498  1.00  0.00     0.281 C 
ATOM     20  C   UNL     1      25.000  37.313   8.302  1.00  0.00     0.180 C 
ATOM     21  C   UNL     1      23.543  37.679   8.213  1.00  0.00     0.202 C 
BRANCH  17  22
ATOM     22  C   UNL     1      24.472  35.064  11.357  1.00  0.00     0.191 C 
BRANCH  22  23
ATOM     23  O   UNL     1      25.565  34.214  11.337  1.00  0.00    -0.394 OA
ATOM     24  H   UNL     1      26.116  34.315  10.529  1.00  0.00     0.210 HD
ENDBRANCH  22  23
ENDBRANCH  17  22
BRANCH  19  25
ATOM     25  O   UNL     1      21.445  36.524   8.208  1.00  0.00    -0.350 OA
BRANCH  25  26
ATOM     26  C   UNL     1      20.594  37.055   9.127  1.00  0.00     0.169 C 
BRANCH  26  27
ATOM     27  C   UNL     1      19.916  38.337   8.779  1.00  0.00     0.119 C 
BRANCH  27  28
ATOM     28  N   UNL     1      20.540  39.528   9.272  1.00  0.00    -0.092 NA
ATOM     29  N   UNL     1      21.150  40.285   8.525  1.00  0.00     0.001 N 
ATOM     30  N   UNL     1      21.828  40.890   7.688  1.00  0.00    -0.003 NA
ENDBRANCH  27  28
ENDBRANCH  26  27
ENDBRANCH  25  26
ENDBRANCH  19  25
BRANCH  20  31
ATOM     31  O   UNL     1      25.826  38.407   8.117  1.00  0.00    -0.387 OA
ATOM     32  H   UNL     1      25.365  39.011   7.455  1.00  0.00     0.211 HD
ENDBRANCH  20  31
BRANCH  21  33
ATOM     33  O   UNL     1      23.227  38.095   6.939  1.00  0.00    -0.385 OA
ATOM     34  H   UNL     1      23.551  39.014   6.768  1.00  0.00     0.211 HD
ENDBRANCH  21  33
ENDBRANCH  15  16
ENDBRANCH  10  15
BRANCH  12  35
ATOM     35  O   UNL     1      26.797  39.125  10.944  1.00  0.00    -0.385 OA
ATOM     36  H   UNL     1      26.624  39.195   9.978  1.00  0.00     0.211 HD
ENDBRANCH  12  35
BRANCH  13  37
ATOM     37  O   UNL     1      25.733  37.314  13.554  1.00  0.00    -0.387 OA
ATOM     38  H   UNL     1      24.972  37.120  12.969  1.00  0.00     0.211 HD
ENDBRANCH  13  37
BRANCH  14  39
ATOM     39  O   UNL     1      27.974  36.738  14.589  1.00  0.00    -0.387 OA
ATOM     40  H   UNL     1      27.091  37.041  14.920  1.00  0.00     0.211 HD
ENDBRANCH  14  39
ENDBRANCH   8   9
ENDBRANCH   7   8
ENDBRANCH   1   7
BRANCH   1  41
ATOM     41  C   UNL     1      32.186  36.515  14.824  1.00  0.00     0.364 C 
ATOM     42  O   UNL     1      33.104  36.582  15.644  1.00  0.00    -0.246 OA
BRANCH  41  43
ATOM     43  O   UNL     1      31.921  37.497  13.902  1.00  0.00    -0.477 OA
ATOM     44  H   UNL     1      31.115  38.130  14.000  1.00  0.00     0.296 HD
ENDBRANCH  41  43
ENDBRANCH   1  41
BRANCH   3  45
ATOM     45  O   UNL     1      31.476  31.857  15.057  1.00  0.00    -0.391 OA
ATOM     46  H   UNL     1      31.490  31.999  14.085  1.00  0.00     0.211 HD
ENDBRANCH   3  45
BRANCH   5  47
ATOM     47  C   UNL     1      28.980  35.234  17.657  1.00  0.00     0.176 C 
BRANCH  47  48
ATOM     48  O   UNL     1      27.847  34.772  17.061  1.00  0.00    -0.388 OA
ATOM     49  H   UNL     1      27.914  34.892  16.085  1.00  0.00     0.211 HD
ENDBRANCH  47  48
BRANCH  47  50
ATOM     50  C   UNL     1      29.165  35.224  19.087  1.00  0.00     0.165 C 
BRANCH  50  51
ATOM     51  O   UNL     1      29.203  33.943  19.704  1.00  0.00    -0.388 OA
ATOM     52  H   UNL     1      29.734  34.062  20.516  1.00  0.00     0.211 HD
ENDBRANCH  50  51
BRANCH  50  53
ATOM     53  C   UNL     1      28.413  36.064  20.033  1.00  0.00     0.154 C 
BRANCH  53  54
ATOM     54  N   UNL     1      27.062  36.312  19.805  1.00  0.00    -0.319 N 
ATOM     55  C   UNL     1      26.004  35.400  19.938  1.00  0.00     0.407 C 
ATOM     56  H   UNL     1      26.780  37.304  19.492  1.00  0.00     0.167 HD
ATOM     57  O   UNL     1      26.186  34.230  20.312  1.00  0.00    -0.225 OA
BRANCH  55  58
ATOM     58  O   UNL     1      24.688  35.823  19.640  1.00  0.00    -0.443 OA
BRANCH  58  59
ATOM     59  C   UNL     1      24.498  36.547  18.450  1.00  0.00     0.294 C 
BRANCH  59  60
ATOM     60  C   UNL     1      24.708  35.657  17.283  1.00  0.00     0.121 A 
ATOM     61  C   UNL     1      24.272  34.364  17.066  1.00  0.00     0.144 A 
ATOM     62  N   UNL     1      25.389  36.013  16.177  1.00  0.00    -0.131 NA
ATOM     63  N   UNL     1      24.701  33.993  15.853  1.00  0.00    -0.220 N 
ATOM     64  N   UNL     1      25.382  35.018  15.331  1.00  0.00    -0.062 NA
BRANCH  63  65
ATOM     65  C   UNL     1      24.540  32.788  15.122  1.00  0.00     0.067 A 
ATOM     66  C   UNL     1      25.131  31.599  15.460  1.00  0.00     0.032 A 
ATOM     67  C   UNL     1      23.743  32.800  13.979  1.00  0.00     0.032 A 
ATOM     68  C   UNL     1      24.940  30.459  14.693  1.00  0.00     0.048 A 
ATOM     69  C   UNL     1      23.553  31.664  13.216  1.00  0.00     0.048 A 
ATOM     70  C   UNL     1      24.149  30.469  13.558  1.00  0.00     0.119 A 
BRANCH  70  71
ATOM     71  O   UNL     1      23.965  29.304  12.788  1.00  0.00    -0.497 OA
ATOM     72  C   UNL     1      22.615  28.964  12.439  1.00  0.00     0.278 C 
ENDBRANCH  70  71
ENDBRANCH  63  65
ENDBRANCH  59  60
ENDBRANCH  58  59
ENDBRANCH  55  58
ENDBRANCH  53  54
ENDBRANCH  50  53
ENDBRANCH  47  50
ENDBRANCH   5  47
BRANCH   4  73
ATOM     73  N   UNL     1      29.643  32.355  17.229  1.00  0.00    -0.348 N 
ATOM     74  C   UNL     1      28.827  31.296  16.751  1.00  0.00     0.217 C 
ATOM     75  H   UNL     1      29.924  32.367  18.224  1.00  0.00     0.163 HD
ATOM     76  C   UNL     1      28.347  30.243  17.684  1.00  0.00     0.114 C 
ATOM     77  O   UNL     1      28.478  31.197  15.545  1.00  0.00    -0.275 OA
ENDBRANCH   4  73
TORSDOF 31
BEGIN_RES LYS A 131
REMARK  4 active torsions:
REMARK  status: ('A' for Active; 'I' for Inactive)
REMARK    1  A    between atoms: CA   and  CB  
REMARK    2  A    between atoms: CB   and  CG  
REMARK    3  A    between atoms: CG   and  CD  
REMARK    4  A    between atoms: CD   and  CE  
ROOT
ATOM      1  CA  LYS A 131      29.867  25.555  16.977  1.00 20.52     0.186 C 
ENDROOT
BRANCH   1   2
ATOM      2  CB  LYS A 131      28.345  25.722  17.026  1.00 20.94     0.034 C 
BRANCH   2   3
ATOM      3  CG  LYS A 131      27.602  24.400  16.912  1.00 22.96     0.005 C 
BRANCH   3   4
ATOM      4  CD  LYS A 131      26.422  24.332  17.842  1.00 24.33     0.041 C 
BRANCH   4   5
ATOM      5  CE  LYS A 131      25.998  25.744  18.231  1.00 26.91     0.338 C 
ATOM      6  NZ  LYS A 131      25.906  25.870  19.705  1.00 27.40     0.618 N 
ENDBRANCH   4   5
ENDBRANCH   3   4
ENDBRANCH   2   3
ENDBRANCH   1   2
END_RES LYS A 131
BEGIN_RES LYS A 135
REMARK  4 active torsions:
REMARK  status: ('A' for Active; 'I' for Inactive)
REMARK    5  A    between atoms: CA   and  CB  
REMARK    6  A    between atoms: CB   and  CG  
REMARK    7  A    between atoms: CG   and  CD  
REMARK    8  A    between atoms: CD   and  CE  
ROOT
ATOM      7  CA  LYS A 135      33.193  34.663   9.290  1.00 25.02     0.186 C 
ENDROOT
BRANCH   7   8
ATOM      8  CB  LYS A 135      32.060  35.360  10.034  1.00 26.63     0.034 C 
BRANCH   8   9
ATOM      9  CG  LYS A 135      30.694  34.821   9.693  1.00 29.45     0.005 C 
BRANCH   9  10
ATOM     10  CD  LYS A 135      30.599  34.499   8.210  1.00 32.00     0.041 C 
BRANCH  10  11
ATOM     11  CE  LYS A 135      29.283  34.994   7.641  1.00 34.25     0.338 C 
ATOM     12  NZ  LYS A 135      29.252  36.482   7.578  1.00 35.99     0.618 N 
ENDBRANCH  10  11
ENDBRANCH   9  10
ENDBRANCH   8   9
ENDBRANCH   7   8
END_RES LYS A 135
