REMARK VINA RESULT:    -3.194      4.188      8.544
REMARK INTER + INTRA:         -21.896
REMARK INTER:                 -10.976
REMARK INTRA:                 -10.920
REMARK UNBOUND:               -13.473
REMARK SMILES CC(=O)N[C@@H]1[C@@H](O)C[C@](OC[C@H]2O[C@@H](O[C@H]3[C@H](O)[C@@H](O)[C@H](OCCN=[N+]=[N-])O[C@@H]3CO)[C@H](O)[C@@H](O)[C@H]2O)(C(=O)O)O[C@H]1C(O)[C@H](O)CNC(=O)OCc1cn(CCOC(C)=O)nn1
REMARK SMILES IDX 43 1 42 2 9 3 8 4 41 5 6 6 5 7 10 8 11 9 12 10 14 11 13 12
REMARK SMILES IDX 32 13 34 14 36 15 15 16 16 17 29 18 28 19 21 20 17 21 19 22
REMARK SMILES IDX 30 23 31 24 22 26 23 27 24 28 25 29 26 30 27 31 18 32 20 34
REMARK SMILES IDX 33 36 35 38 37 40 38 42 39 43 40 44 7 46 4 48 2 49 1 51 3 52
REMARK SMILES IDX 44 53 45 55 46 56 47 58 48 59 49 60 50 62 51 63 52 64 53 65
REMARK SMILES IDX 54 66 63 67 55 68 62 69 56 70 57 71 58 72 59 73 61 74 60 75
REMARK H PARENT 31 25 18 33 20 35 33 37 35 39 37 41 40 45 7 47 4 50 44 54
REMARK H PARENT 46 57 48 61
REMARK Flexibility Score: inf
ROOT
ATOM      1  C   UNL     1      30.418  37.683   8.691  1.00  0.00     0.176 C 
ENDROOT
BRANCH   1   2
ATOM      2  C   UNL     1      29.633  37.833   7.413  1.00  0.00     0.178 C 
ATOM      3  C   UNL     1      28.441  39.515   6.270  1.00  0.00     0.272 C 
ATOM      4  C   UNL     1      28.363  38.392   5.265  1.00  0.00     0.113 C 
ATOM      5  O   UNL     1      29.336  39.210   7.331  1.00  0.00    -0.332 OA
ATOM      6  C   UNL     1      27.949  37.096   5.864  1.00  0.00     0.145 C 
ATOM      7  C   UNL     1      28.305  37.142   7.377  1.00  0.00     0.142 C 
BRANCH   3   8
ATOM      8  O   UNL     1      27.324  39.905   6.835  1.00  0.00    -0.338 OA
BRANCH   8   9
ATOM      9  C   UNL     1      26.117  40.082   6.377  1.00  0.00     0.199 C 
BRANCH   9  10
ATOM     10  C   UNL     1      24.861  39.943   7.126  1.00  0.00     0.179 C 
ATOM     11  C   UNL     1      23.179  38.403   7.463  1.00  0.00     0.282 C 
ATOM     12  O   UNL     1      24.550  38.530   7.195  1.00  0.00    -0.341 OA
ATOM     13  C   UNL     1      22.665  39.343   8.472  1.00  0.00     0.202 C 
ATOM     14  C   UNL     1      23.654  40.178   9.207  1.00  0.00     0.179 C 
ATOM     15  C   UNL     1      25.023  40.250   8.628  1.00  0.00     0.177 C 
BRANCH  11  16
ATOM     16  O   UNL     1      22.944  37.058   7.693  1.00  0.00    -0.341 OA
BRANCH  16  17
ATOM     17  C   UNL     1      21.993  36.827   8.654  1.00  0.00     0.184 C 
ATOM     18  C   UNL     1      22.307  35.542   9.387  1.00  0.00     0.178 C 
ATOM     19  O   UNL     1      21.309  35.414  10.362  1.00  0.00    -0.341 OA
ATOM     20  C   UNL     1      20.153  34.985   9.781  1.00  0.00     0.281 C 
ATOM     21  C   UNL     1      20.594  36.753   8.065  1.00  0.00     0.180 C 
ATOM     22  C   UNL     1      19.924  35.452   8.363  1.00  0.00     0.202 C 
BRANCH  18  23
ATOM     23  C   UNL     1      23.649  35.658  10.086  1.00  0.00     0.191 C 
BRANCH  23  24
ATOM     24  O   UNL     1      23.886  36.976  10.431  1.00  0.00    -0.394 OA
ATOM     25  H   UNL     1      24.059  37.459   9.569  1.00  0.00     0.210 HD
ENDBRANCH  23  24
ENDBRANCH  18  23
BRANCH  20  26
ATOM     26  O   UNL     1      19.094  35.372  10.613  1.00  0.00    -0.350 OA
BRANCH  26  27
ATOM     27  C   UNL     1      19.114  34.674  11.815  1.00  0.00     0.169 C 
BRANCH  27  28
ATOM     28  C   UNL     1      18.902  33.203  11.438  1.00  0.00     0.119 C 
BRANCH  28  29
ATOM     29  N   UNL     1      19.786  32.396  12.262  1.00  0.00    -0.092 NA
ATOM     30  N   UNL     1      20.951  32.731  12.509  1.00  0.00     0.001 N 
ATOM     31  N   UNL     1      22.189  32.850  12.435  1.00  0.00    -0.003 NA
ENDBRANCH  28  29
ENDBRANCH  27  28
ENDBRANCH  26  27
ENDBRANCH  20  26
BRANCH  21  32
ATOM     32  O   UNL     1      19.793  37.828   8.429  1.00  0.00    -0.387 OA
ATOM     33  H   UNL     1      19.422  38.328   7.661  1.00  0.00     0.211 HD
ENDBRANCH  21  32
BRANCH  22  34
ATOM     34  O   UNL     1      20.244  34.502   7.414  1.00  0.00    -0.385 OA
ATOM     35  H   UNL     1      19.511  33.821   7.392  1.00  0.00     0.211 HD
ENDBRANCH  22  34
ENDBRANCH  16  17
ENDBRANCH  11  16
BRANCH  13  36
ATOM     36  O   UNL     1      21.605  40.137   7.960  1.00  0.00    -0.385 OA
ATOM     37  H   UNL     1      21.284  40.785   8.622  1.00  0.00     0.211 HD
ENDBRANCH  13  36
BRANCH  14  38
ATOM     38  O   UNL     1      23.777  39.775  10.546  1.00  0.00    -0.387 OA
ATOM     39  H   UNL     1      24.389  38.981  10.572  1.00  0.00     0.211 HD
ENDBRANCH  14  38
BRANCH  15  40
ATOM     40  O   UNL     1      25.765  39.178   9.194  1.00  0.00    -0.387 OA
ATOM     41  H   UNL     1      25.231  38.707   9.867  1.00  0.00     0.211 HD
ENDBRANCH  15  40
ENDBRANCH   9  10
ENDBRANCH   8   9
ENDBRANCH   3   8
BRANCH   3  42
ATOM     42  C   UNL     1      29.192  40.600   5.579  1.00  0.00     0.364 C 
ATOM     43  O   UNL     1      30.403  40.585   5.286  1.00  0.00    -0.246 OA
BRANCH  42  44
ATOM     44  O   UNL     1      28.519  41.780   5.197  1.00  0.00    -0.477 OA
ATOM     45  H   UNL     1      27.788  42.135   5.796  1.00  0.00     0.296 HD
ENDBRANCH  42  44
ENDBRANCH   3  42
BRANCH   6  46
ATOM     46  O   UNL     1      26.629  36.752   5.684  1.00  0.00    -0.391 OA
ATOM     47  H   UNL     1      26.253  37.061   4.821  1.00  0.00     0.211 HD
ENDBRANCH   6  46
BRANCH   7  48
ATOM     48  N   UNL     1      28.227  35.826   7.915  1.00  0.00    -0.348 N 
ATOM     49  C   UNL     1      27.403  35.511   9.027  1.00  0.00     0.217 C 
ATOM     50  H   UNL     1      28.765  35.065   7.472  1.00  0.00     0.163 HD
ATOM     51  C   UNL     1      27.327  34.127   9.586  1.00  0.00     0.114 C 
ATOM     52  O   UNL     1      26.691  36.392   9.599  1.00  0.00    -0.275 OA
ENDBRANCH   7  48
ENDBRANCH   1   2
BRANCH   1  53
ATOM     53  O   UNL     1      29.452  37.888   9.726  1.00  0.00    -0.388 OA
ATOM     54  H   UNL     1      28.574  38.075   9.334  1.00  0.00     0.211 HD
ENDBRANCH   1  53
BRANCH   1  55
ATOM     55  C   UNL     1      31.372  38.841   8.856  1.00  0.00     0.165 C 
BRANCH  55  56
ATOM     56  O   UNL     1      32.256  38.868   7.765  1.00  0.00    -0.388 OA
ATOM     57  H   UNL     1      32.106  38.061   7.231  1.00  0.00     0.211 HD
ENDBRANCH  55  56
BRANCH  55  58
ATOM     58  C   UNL     1      32.105  38.823  10.161  1.00  0.00     0.154 C 
BRANCH  58  59
ATOM     59  N   UNL     1      31.399  39.373  11.275  1.00  0.00    -0.319 N 
ATOM     60  C   UNL     1      31.481  40.725  11.658  1.00  0.00     0.407 C 
ATOM     61  H   UNL     1      30.760  38.773  11.883  1.00  0.00     0.167 HD
ATOM     62  O   UNL     1      32.176  41.562  11.044  1.00  0.00    -0.225 OA
BRANCH  60  63
ATOM     63  O   UNL     1      30.783  41.223  12.770  1.00  0.00    -0.443 OA
BRANCH  63  64
ATOM     64  C   UNL     1      29.439  41.606  12.705  1.00  0.00     0.294 C 
BRANCH  64  65
ATOM     65  C   UNL     1      28.542  40.448  12.439  1.00  0.00     0.120 A 
ATOM     66  C   UNL     1      28.039  39.621  13.428  1.00  0.00     0.138 A 
ATOM     67  N   UNL     1      28.051  39.982  11.295  1.00  0.00    -0.132 NA
ATOM     68  N   UNL     1      27.273  38.701  12.835  1.00  0.00    -0.249 N 
ATOM     69  N   UNL     1      27.294  38.939  11.536  1.00  0.00    -0.067 NA
BRANCH  68  70
ATOM     70  C   UNL     1      26.541  37.601  13.481  1.00  0.00     0.187 C 
BRANCH  70  71
ATOM     71  C   UNL     1      25.253  38.125  14.076  1.00  0.00     0.256 C 
BRANCH  71  72
ATOM     72  O   UNL     1      24.257  38.123  13.059  1.00  0.00    -0.464 OA
BRANCH  72  73
ATOM     73  C   UNL     1      22.908  38.062  13.393  1.00  0.00     0.302 C 
ATOM     74  O   UNL     1      22.068  38.132  12.464  1.00  0.00    -0.253 OA
ATOM     75  C   UNL     1      22.438  37.917  14.810  1.00  0.00     0.139 C 
ENDBRANCH  72  73
ENDBRANCH  71  72
ENDBRANCH  70  71
ENDBRANCH  68  70
ENDBRANCH  64  65
ENDBRANCH  63  64
ENDBRANCH  60  63
ENDBRANCH  58  59
ENDBRANCH  55  58
ENDBRANCH   1  55
TORSDOF 33
BEGIN_RES LYS A 131
REMARK  4 active torsions:
REMARK  status: ('A' for Active; 'I' for Inactive)
REMARK    1  A    between atoms: CA   and  CB  
REMARK    2  A    between atoms: CB   and  CG  
REMARK    3  A    between atoms: CG   and  CD  
REMARK    4  A    between atoms: CD   and  CE  
ROOT
ATOM      1  CA  LYS A 131      29.867  25.555  16.977  1.00 20.52     0.186 C 
ENDROOT
BRANCH   1   2
ATOM      2  CB  LYS A 131      28.345  25.722  17.026  1.00 20.94     0.034 C 
BRANCH   2   3
ATOM      3  CG  LYS A 131      27.602  24.398  16.935  1.00 22.96     0.005 C 
BRANCH   3   4
ATOM      4  CD  LYS A 131      26.525  24.279  17.977  1.00 24.33     0.041 C 
BRANCH   4   5
ATOM      5  CE  LYS A 131      25.212  23.884  17.310  1.00 26.91     0.338 C 
ATOM      6  NZ  LYS A 131      24.838  22.499  17.682  1.00 27.40     0.618 N 
ENDBRANCH   4   5
ENDBRANCH   3   4
ENDBRANCH   2   3
ENDBRANCH   1   2
END_RES LYS A 131
BEGIN_RES LYS A 135
REMARK  4 active torsions:
REMARK  status: ('A' for Active; 'I' for Inactive)
REMARK    5  A    between atoms: CA   and  CB  
REMARK    6  A    between atoms: CB   and  CG  
REMARK    7  A    between atoms: CG   and  CD  
REMARK    8  A    between atoms: CD   and  CE  
ROOT
ATOM      7  CA  LYS A 135      33.193  34.663   9.290  1.00 25.02     0.186 C 
ENDROOT
BRANCH   7   8
ATOM      8  CB  LYS A 135      32.060  35.360  10.034  1.00 26.63     0.034 C 
BRANCH   8   9
ATOM      9  CG  LYS A 135      32.392  35.688  11.467  1.00 29.45     0.005 C 
BRANCH   9  10
ATOM     10  CD  LYS A 135      31.123  35.828  12.293  1.00 32.00     0.041 C 
BRANCH  10  11
ATOM     11  CE  LYS A 135      30.035  34.919  11.757  1.00 34.25     0.338 C 
ATOM     12  NZ  LYS A 135      29.102  34.502  12.840  1.00 35.99     0.618 N 
ENDBRANCH  10  11
ENDBRANCH   9  10
ENDBRANCH   8   9
ENDBRANCH   7   8
END_RES LYS A 135
