REMARK VINA RESULT:    -5.337      0.000      0.000
REMARK INTER + INTRA:         -23.204
REMARK INTER:                 -11.599
REMARK INTRA:                 -11.605
REMARK UNBOUND:               -10.068
REMARK SMILES CC(=O)N[C@@H]1[C@@H](O)C[C@](OC[C@H]2O[C@@H](O[C@H]3[C@H](O)[C@@H](O)[C@H](OCCN=[N+]=[N-])O[C@@H]3CO)[C@H](O)[C@@H](O)[C@H]2O)(C(=O)O)O[C@H]1C(O)[C@H](O)CNC(=O)OCc1cn(-c2cnc3ccccc3c2)nn1
REMARK SMILES IDX 9 1 8 2 6 3 5 4 42 5 41 6 10 7 11 8 12 9 14 10 13 11 32 12
REMARK SMILES IDX 34 13 36 14 15 15 16 16 29 17 28 18 21 19 17 20 19 21 30 22
REMARK SMILES IDX 31 23 22 25 23 26 24 27 25 28 26 29 27 30 18 31 20 33 33 35
REMARK SMILES IDX 35 37 37 39 38 41 39 42 40 43 7 45 43 47 44 48 45 50 46 51
REMARK SMILES IDX 47 53 48 54 49 55 50 57 51 58 52 59 53 60 54 61 67 62 55 63
REMARK SMILES IDX 66 64 56 65 57 66 65 67 58 68 64 69 59 70 63 71 60 72 62 73
REMARK SMILES IDX 61 74 4 75 2 76 1 78 3 79
REMARK H PARENT 31 24 18 32 20 34 33 36 35 38 37 40 40 44 7 46 44 49 46 52
REMARK H PARENT 48 56 4 77
REMARK Flexibility Score: inf
ROOT
ATOM      1  C   UNL     1      30.275  31.914  20.668  1.00  0.00     0.272 C 
ATOM      2  C   UNL     1      31.142  32.968  21.255  1.00  0.00     0.113 C 
ATOM      3  C   UNL     1      31.996  33.660  20.209  1.00  0.00     0.145 C 
ATOM      4  C   UNL     1      31.028  34.036  19.086  1.00  0.00     0.142 C 
ATOM      5  C   UNL     1      30.572  32.707  18.466  1.00  0.00     0.178 C 
ATOM      6  O   UNL     1      29.711  32.186  19.455  1.00  0.00    -0.332 OA
ENDROOT
BRANCH   1   7
ATOM      7  O   UNL     1      29.185  31.621  21.515  1.00  0.00    -0.338 OA
BRANCH   7   8
ATOM      8  C   UNL     1      29.522  30.961  22.664  1.00  0.00     0.199 C 
BRANCH   8   9
ATOM      9  C   UNL     1      28.638  29.739  22.793  1.00  0.00     0.179 C 
ATOM     10  C   UNL     1      26.699  28.735  22.087  1.00  0.00     0.282 C 
ATOM     11  O   UNL     1      27.731  29.599  21.762  1.00  0.00    -0.341 OA
ATOM     12  C   UNL     1      27.100  27.716  23.114  1.00  0.00     0.202 C 
ATOM     13  C   UNL     1      28.535  27.328  23.058  1.00  0.00     0.179 C 
ATOM     14  C   UNL     1      29.401  28.547  23.192  1.00  0.00     0.177 C 
BRANCH  10  15
ATOM     15  O   UNL     1      26.196  28.171  20.935  1.00  0.00    -0.341 OA
BRANCH  15  16
ATOM     16  C   UNL     1      26.533  28.889  19.787  1.00  0.00     0.184 C 
ATOM     17  C   UNL     1      25.382  29.697  19.238  1.00  0.00     0.178 C 
ATOM     18  O   UNL     1      25.160  29.576  17.902  1.00  0.00    -0.341 OA
ATOM     19  C   UNL     1      26.242  29.615  17.067  1.00  0.00     0.281 C 
ATOM     20  C   UNL     1      27.219  28.034  18.759  1.00  0.00     0.180 C 
ATOM     21  C   UNL     1      27.436  28.825  17.508  1.00  0.00     0.202 C 
BRANCH  17  22
ATOM     22  C   UNL     1      25.457  31.144  19.729  1.00  0.00     0.191 C 
BRANCH  22  23
ATOM     23  O   UNL     1      26.766  31.611  19.788  1.00  0.00    -0.394 OA
ATOM     24  H   UNL     1      27.014  32.155  19.013  1.00  0.00     0.210 HD
ENDBRANCH  22  23
ENDBRANCH  17  22
BRANCH  19  25
ATOM     25  O   UNL     1      26.593  30.911  16.681  1.00  0.00    -0.350 OA
BRANCH  25  26
ATOM     26  C   UNL     1      26.162  31.222  15.409  1.00  0.00     0.169 C 
BRANCH  26  27
ATOM     27  C   UNL     1      25.744  32.669  15.291  1.00  0.00     0.119 C 
BRANCH  27  28
ATOM     28  N   UNL     1      25.643  33.285  16.598  1.00  0.00    -0.092 NA
ATOM     29  N   UNL     1      25.346  34.470  16.746  1.00  0.00     0.001 N 
ATOM     30  N   UNL     1      24.679  35.492  16.907  1.00  0.00    -0.003 NA
ENDBRANCH  27  28
ENDBRANCH  26  27
ENDBRANCH  25  26
ENDBRANCH  19  25
BRANCH  20  31
ATOM     31  O   UNL     1      28.490  27.685  19.266  1.00  0.00    -0.387 OA
ATOM     32  H   UNL     1      28.389  27.158  20.104  1.00  0.00     0.211 HD
ENDBRANCH  20  31
BRANCH  21  33
ATOM     33  O   UNL     1      27.865  27.911  16.517  1.00  0.00    -0.385 OA
ATOM     34  H   UNL     1      28.831  28.080  16.305  1.00  0.00     0.211 HD
ENDBRANCH  21  33
ENDBRANCH  15  16
ENDBRANCH  10  15
BRANCH  12  35
ATOM     35  O   UNL     1      26.785  28.086  24.419  1.00  0.00    -0.385 OA
ATOM     36  H   UNL     1      26.925  29.051  24.572  1.00  0.00     0.211 HD
ENDBRANCH  12  35
BRANCH  13  37
ATOM     37  O   UNL     1      28.814  26.620  21.886  1.00  0.00    -0.387 OA
ATOM     38  H   UNL     1      29.405  25.875  22.084  1.00  0.00     0.211 HD
ENDBRANCH  13  37
BRANCH  14  39
ATOM     39  O   UNL     1      30.548  28.316  22.441  1.00  0.00    -0.387 OA
ATOM     40  H   UNL     1      30.468  27.556  21.835  1.00  0.00     0.211 HD
ENDBRANCH  14  39
ENDBRANCH   8   9
ENDBRANCH   7   8
ENDBRANCH   1   7
BRANCH   1  41
ATOM     41  C   UNL     1      31.100  30.669  20.493  1.00  0.00     0.364 C 
ATOM     42  O   UNL     1      32.210  30.534  21.102  1.00  0.00    -0.246 OA
BRANCH  41  43
ATOM     43  O   UNL     1      30.745  29.610  19.691  1.00  0.00    -0.477 OA
ATOM     44  H   UNL     1      29.823  29.534  19.235  1.00  0.00     0.296 HD
ENDBRANCH  41  43
ENDBRANCH   1  41
BRANCH   3  45
ATOM     45  O   UNL     1      32.654  34.758  20.708  1.00  0.00    -0.391 OA
ATOM     46  H   UNL     1      32.224  35.562  20.350  1.00  0.00     0.211 HD
ENDBRANCH   3  45
BRANCH   5  47
ATOM     47  C   UNL     1      29.703  32.932  17.260  1.00  0.00     0.176 C 
BRANCH  47  48
ATOM     48  O   UNL     1      28.356  32.795  17.688  1.00  0.00    -0.388 OA
ATOM     49  H   UNL     1      27.938  31.990  17.289  1.00  0.00     0.211 HD
ENDBRANCH  47  48
BRANCH  47  50
ATOM     50  C   UNL     1      29.881  31.905  16.149  1.00  0.00     0.165 C 
BRANCH  50  51
ATOM     51  O   UNL     1      30.317  30.742  16.879  1.00  0.00    -0.388 OA
ATOM     52  H   UNL     1      29.653  30.588  17.590  1.00  0.00     0.211 HD
ENDBRANCH  50  51
BRANCH  50  53
ATOM     53  C   UNL     1      31.097  32.241  15.313  1.00  0.00     0.154 C 
BRANCH  53  54
ATOM     54  N   UNL     1      30.937  33.254  14.340  1.00  0.00    -0.319 N 
ATOM     55  C   UNL     1      31.626  34.485  14.339  1.00  0.00     0.407 C 
ATOM     56  H   UNL     1      30.237  33.064  13.554  1.00  0.00     0.167 HD
ATOM     57  O   UNL     1      32.434  34.729  15.256  1.00  0.00    -0.225 OA
BRANCH  55  58
ATOM     58  O   UNL     1      31.372  35.371  13.316  1.00  0.00    -0.443 OA
BRANCH  58  59
ATOM     59  C   UNL     1      30.507  36.465  13.457  1.00  0.00     0.294 C 
BRANCH  59  60
ATOM     60  C   UNL     1      29.184  36.151  12.830  1.00  0.00     0.121 A 
ATOM     61  C   UNL     1      28.524  36.835  11.864  1.00  0.00     0.144 A 
ATOM     62  N   UNL     1      28.423  35.083  13.169  1.00  0.00    -0.131 NA
ATOM     63  N   UNL     1      27.378  36.164  11.641  1.00  0.00    -0.219 N 
ATOM     64  N   UNL     1      27.326  35.097  12.442  1.00  0.00    -0.062 NA
BRANCH  63  65
ATOM     65  C   UNL     1      26.389  36.556  10.692  1.00  0.00     0.085 A 
ATOM     66  C   UNL     1      26.580  37.669   9.937  1.00  0.00     0.140 A 
ATOM     67  C   UNL     1      25.250  35.779  10.559  1.00  0.00     0.040 A 
ATOM     68  N   UNL     1      25.638  38.022   9.040  1.00  0.00    -0.254 NA
ATOM     69  C   UNL     1      24.308  36.152   9.645  1.00  0.00     0.002 A 
ATOM     70  C   UNL     1      24.535  37.277   8.905  1.00  0.00     0.070 A 
ATOM     71  C   UNL     1      23.165  35.394   9.494  1.00  0.00     0.010 A 
ATOM     72  C   UNL     1      23.567  37.652   7.972  1.00  0.00     0.029 A 
ATOM     73  C   UNL     1      22.218  35.785   8.562  1.00  0.00     0.001 A 
ATOM     74  C   UNL     1      22.422  36.930   7.790  1.00  0.00     0.002 A 
ENDBRANCH  63  65
ENDBRANCH  59  60
ENDBRANCH  58  59
ENDBRANCH  55  58
ENDBRANCH  53  54
ENDBRANCH  50  53
ENDBRANCH  47  50
ENDBRANCH   5  47
BRANCH   4  75
ATOM     75  N   UNL     1      31.593  34.966  18.186  1.00  0.00    -0.348 N 
ATOM     76  C   UNL     1      31.300  36.376  18.304  1.00  0.00     0.217 C 
ATOM     77  H   UNL     1      32.247  34.723  17.414  1.00  0.00     0.163 HD
ATOM     78  C   UNL     1      31.877  37.353  17.379  1.00  0.00     0.114 C 
ATOM     79  O   UNL     1      30.521  36.717  19.245  1.00  0.00    -0.275 OA
ENDBRANCH   4  75
TORSDOF 30
BEGIN_RES LYS A 131
REMARK  4 active torsions:
REMARK  status: ('A' for Active; 'I' for Inactive)
REMARK    1  A    between atoms: CA   and  CB  
REMARK    2  A    between atoms: CB   and  CG  
REMARK    3  A    between atoms: CG   and  CD  
REMARK    4  A    between atoms: CD   and  CE  
ROOT
ATOM      1  CA  LYS A 131      29.867  25.555  16.977  1.00 20.52     0.186 C 
ENDROOT
BRANCH   1   2
ATOM      2  CB  LYS A 131      28.345  25.722  17.026  1.00 20.94     0.034 C 
BRANCH   2   3
ATOM      3  CG  LYS A 131      27.599  24.427  16.743  1.00 22.96     0.005 C 
BRANCH   3   4
ATOM      4  CD  LYS A 131      26.979  23.848  17.985  1.00 24.33     0.041 C 
BRANCH   4   5
ATOM      5  CE  LYS A 131      25.590  24.443  18.185  1.00 26.91     0.338 C 
ATOM      6  NZ  LYS A 131      24.834  24.439  16.910  1.00 27.40     0.618 N 
ENDBRANCH   4   5
ENDBRANCH   3   4
ENDBRANCH   2   3
ENDBRANCH   1   2
END_RES LYS A 131
BEGIN_RES LYS A 135
REMARK  4 active torsions:
REMARK  status: ('A' for Active; 'I' for Inactive)
REMARK    5  A    between atoms: CA   and  CB  
REMARK    6  A    between atoms: CB   and  CG  
REMARK    7  A    between atoms: CG   and  CD  
REMARK    8  A    between atoms: CD   and  CE  
ROOT
ATOM      7  CA  LYS A 135      33.193  34.663   9.290  1.00 25.02     0.186 C 
ENDROOT
BRANCH   7   8
ATOM      8  CB  LYS A 135      32.060  35.360  10.034  1.00 26.63     0.034 C 
BRANCH   8   9
ATOM      9  CG  LYS A 135      30.694  34.825   9.689  1.00 29.45     0.005 C 
BRANCH   9  10
ATOM     10  CD  LYS A 135      30.567  34.604   8.190  1.00 32.00     0.041 C 
BRANCH  10  11
ATOM     11  CE  LYS A 135      29.155  34.906   7.724  1.00 34.25     0.338 C 
ATOM     12  NZ  LYS A 135      28.148  34.308   8.644  1.00 35.99     0.618 N 
ENDBRANCH  10  11
ENDBRANCH   9  10
ENDBRANCH   8   9
ENDBRANCH   7   8
END_RES LYS A 135
