REMARK VINA RESULT:    -4.345      0.000      0.000
REMARK INTER + INTRA:         -23.414
REMARK INTER:                 -12.548
REMARK INTRA:                 -10.866
REMARK UNBOUND:               -11.702
REMARK SMILES CC(=O)N[C@@H]1[C@@H](O)C[C@](OC[C@H]2O[C@@H](O[C@H]3[C@H](O)[C@@H](O)[C@H](OCCN=[N+]=[N-])O[C@@H]3CO)[C@H](O)[C@@H](O)[C@H]2O)(C(=O)O)O[C@H]1C(O)[C@H](O)CNC(=O)OCc1cn([C@@H](CC(=O)O)C(=O)O)nn1
REMARK SMILES IDX 43 1 42 2 9 3 8 4 41 5 6 6 5 7 10 8 11 9 12 10 14 11 13 12
REMARK SMILES IDX 32 13 34 14 36 15 15 16 16 17 29 18 28 19 21 20 17 21 19 22
REMARK SMILES IDX 30 23 31 24 22 26 23 27 24 28 25 29 26 30 27 31 18 32 20 34
REMARK SMILES IDX 33 36 35 38 37 40 38 42 39 43 40 44 7 46 4 48 2 49 1 51 3 52
REMARK SMILES IDX 44 53 45 55 46 56 47 58 48 59 49 60 50 62 51 63 52 64 53 65
REMARK SMILES IDX 54 66 65 67 55 68 64 69 56 70 57 71 58 72 59 73 60 74 61 76
REMARK SMILES IDX 62 77 63 78
REMARK H PARENT 31 25 18 33 20 35 33 37 35 39 37 41 40 45 7 47 4 50 44 54
REMARK H PARENT 46 57 48 61 60 75 63 79
REMARK Flexibility Score: inf
ROOT
ATOM      1  C   UNL     1      22.030  38.705   8.348  1.00  0.00     0.176 C 
ENDROOT
BRANCH   1   2
ATOM      2  C   UNL     1      22.644  39.992   8.870  1.00  0.00     0.178 C 
ATOM      3  C   UNL     1      24.256  41.604   8.295  1.00  0.00     0.272 C 
ATOM      4  C   UNL     1      24.044  41.831   9.798  1.00  0.00     0.113 C 
ATOM      5  O   UNL     1      23.626  40.372   8.008  1.00  0.00    -0.332 OA
ATOM      6  C   UNL     1      24.381  40.502  10.458  1.00  0.00     0.145 C 
ATOM      7  C   UNL     1      23.087  39.689  10.290  1.00  0.00     0.142 C 
BRANCH   3   8
ATOM      8  O   UNL     1      25.472  41.593   7.997  1.00  0.00    -0.338 OA
BRANCH   8   9
ATOM      9  C   UNL     1      26.678  41.588   7.692  1.00  0.00     0.199 C 
BRANCH   9  10
ATOM     10  C   UNL     1      27.047  41.214   6.256  1.00  0.00     0.179 C 
ATOM     11  C   UNL     1      29.206  40.449   6.473  1.00  0.00     0.282 C 
ATOM     12  O   UNL     1      28.351  41.362   5.927  1.00  0.00    -0.341 OA
ATOM     13  C   UNL     1      28.825  39.051   6.175  1.00  0.00     0.202 C 
ATOM     14  C   UNL     1      27.683  39.130   5.148  1.00  0.00     0.179 C 
ATOM     15  C   UNL     1      26.556  39.836   5.878  1.00  0.00     0.177 C 
BRANCH  11  16
ATOM     16  O   UNL     1      29.633  40.713   7.765  1.00  0.00    -0.341 OA
BRANCH  16  17
ATOM     17  C   UNL     1      31.000  40.803   7.888  1.00  0.00     0.184 C 
ATOM     18  C   UNL     1      31.489  40.223   9.167  1.00  0.00     0.178 C 
ATOM     19  O   UNL     1      32.875  40.271   9.249  1.00  0.00    -0.341 OA
ATOM     20  C   UNL     1      33.436  41.431   8.706  1.00  0.00     0.281 C 
ATOM     21  C   UNL     1      31.328  42.294   7.846  1.00  0.00     0.180 C 
ATOM     22  C   UNL     1      32.440  42.582   8.803  1.00  0.00     0.202 C 
BRANCH  18  23
ATOM     23  C   UNL     1      31.129  38.739   9.164  1.00  0.00     0.191 C 
BRANCH  23  24
ATOM     24  O   UNL     1      31.562  38.176   7.945  1.00  0.00    -0.394 OA
ATOM     25  H   UNL     1      32.459  37.781   8.156  1.00  0.00     0.210 HD
ENDBRANCH  23  24
ENDBRANCH  18  23
BRANCH  20  26
ATOM     26  O   UNL     1      33.665  41.191   7.363  1.00  0.00    -0.350 OA
BRANCH  26  27
ATOM     27  C   UNL     1      34.600  40.251   7.057  1.00  0.00     0.169 C 
BRANCH  27  28
ATOM     28  C   UNL     1      34.088  39.306   6.013  1.00  0.00     0.119 C 
BRANCH  28  29
ATOM     29  N   UNL     1      35.234  38.596   5.443  1.00  0.00    -0.092 NA
ATOM     30  N   UNL     1      35.421  38.693   4.213  1.00  0.00     0.001 N 
ATOM     31  N   UNL     1      35.630  38.273   3.060  1.00  0.00    -0.003 NA
ENDBRANCH  28  29
ENDBRANCH  27  28
ENDBRANCH  26  27
ENDBRANCH  20  26
BRANCH  21  32
ATOM     32  O   UNL     1      31.708  42.656   6.560  1.00  0.00    -0.387 OA
ATOM     33  H   UNL     1      30.900  42.815   5.993  1.00  0.00     0.211 HD
ENDBRANCH  21  32
BRANCH  22  34
ATOM     34  O   UNL     1      32.022  42.762  10.123  1.00  0.00    -0.385 OA
ATOM     35  H   UNL     1      31.637  43.694  10.140  1.00  0.00     0.211 HD
ENDBRANCH  22  34
ENDBRANCH  16  17
ENDBRANCH  11  16
BRANCH  13  36
ATOM     36  O   UNL     1      29.833  38.313   5.550  1.00  0.00    -0.385 OA
ATOM     37  H   UNL     1      29.734  37.363   5.850  1.00  0.00     0.211 HD
ENDBRANCH  13  36
BRANCH  14  38
ATOM     38  O   UNL     1      27.299  37.899   4.680  1.00  0.00    -0.387 OA
ATOM     39  H   UNL     1      27.743  37.153   5.173  1.00  0.00     0.211 HD
ENDBRANCH  14  38
BRANCH  15  40
ATOM     40  O   UNL     1      26.186  39.090   6.975  1.00  0.00    -0.387 OA
ATOM     41  H   UNL     1      25.595  39.549   7.595  1.00  0.00     0.211 HD
ENDBRANCH  15  40
ENDBRANCH   9  10
ENDBRANCH   8   9
ENDBRANCH   3   8
BRANCH   3  42
ATOM     42  C   UNL     1      23.413  42.698   7.645  1.00  0.00     0.364 C 
ATOM     43  O   UNL     1      23.228  42.688   6.420  1.00  0.00    -0.246 OA
BRANCH  42  44
ATOM     44  O   UNL     1      22.848  43.707   8.401  1.00  0.00    -0.477 OA
ATOM     45  H   UNL     1      23.409  44.326   9.002  1.00  0.00     0.296 HD
ENDBRANCH  42  44
ENDBRANCH   3  42
BRANCH   6  46
ATOM     46  O   UNL     1      25.308  39.794   9.662  1.00  0.00    -0.391 OA
ATOM     47  H   UNL     1      25.301  40.080   8.733  1.00  0.00     0.211 HD
ENDBRANCH   6  46
BRANCH   7  48
ATOM     48  N   UNL     1      22.174  40.182  11.295  1.00  0.00    -0.348 N 
ATOM     49  C   UNL     1      22.121  39.563  12.581  1.00  0.00     0.217 C 
ATOM     50  H   UNL     1      21.529  40.988  11.130  1.00  0.00     0.163 HD
ATOM     51  C   UNL     1      21.148  40.120  13.581  1.00  0.00     0.114 C 
ATOM     52  O   UNL     1      22.856  38.586  12.881  1.00  0.00    -0.275 OA
ENDBRANCH   7  48
ENDBRANCH   1   2
BRANCH   1  53
ATOM     53  O   UNL     1      20.971  38.281   9.143  1.00  0.00    -0.388 OA
ATOM     54  H   UNL     1      20.098  38.339   8.660  1.00  0.00     0.211 HD
ENDBRANCH   1  53
BRANCH   1  55
ATOM     55  C   UNL     1      22.979  37.593   8.098  1.00  0.00     0.165 C 
BRANCH  55  56
ATOM     56  O   UNL     1      23.726  37.678   6.944  1.00  0.00    -0.388 OA
ATOM     57  H   UNL     1      23.198  37.595   6.106  1.00  0.00     0.211 HD
ENDBRANCH  55  56
BRANCH  55  58
ATOM     58  C   UNL     1      22.337  36.266   8.316  1.00  0.00     0.154 C 
BRANCH  58  59
ATOM     59  N   UNL     1      23.052  35.342   9.139  1.00  0.00    -0.319 N 
ATOM     60  C   UNL     1      22.815  35.322  10.534  1.00  0.00     0.407 C 
ATOM     61  H   UNL     1      23.736  34.685   8.739  1.00  0.00     0.167 HD
ATOM     62  O   UNL     1      21.946  36.136  11.004  1.00  0.00    -0.225 OA
BRANCH  60  63
ATOM     63  O   UNL     1      23.442  34.503  11.456  1.00  0.00    -0.443 OA
BRANCH  63  64
ATOM     64  C   UNL     1      24.630  34.963  12.120  1.00  0.00     0.294 C 
BRANCH  64  65
ATOM     65  C   UNL     1      25.532  35.568  11.112  1.00  0.00     0.120 A 
ATOM     66  C   UNL     1      26.502  34.986  10.327  1.00  0.00     0.139 A 
ATOM     67  N   UNL     1      25.571  36.901  10.779  1.00  0.00    -0.132 NA
ATOM     68  N   UNL     1      27.089  35.952   9.562  1.00  0.00    -0.237 N 
ATOM     69  N   UNL     1      26.496  37.068   9.873  1.00  0.00    -0.066 NA
BRANCH  68  70
ATOM     70  C   UNL     1      28.163  35.760   8.615  1.00  0.00     0.229 C 
BRANCH  70  71
ATOM     71  C   UNL     1      28.719  34.360   8.808  1.00  0.00     0.161 C 
BRANCH  71  72
ATOM     72  C   UNL     1      30.194  34.363   8.853  1.00  0.00     0.306 C 
ATOM     73  O   UNL     1      30.856  35.329   8.396  1.00  0.00    -0.252 OA
BRANCH  72  74
ATOM     74  O   UNL     1      30.877  33.300   9.401  1.00  0.00    -0.481 OA
ATOM     75  H   UNL     1      31.441  32.705   8.782  1.00  0.00     0.296 HD
ENDBRANCH  72  74
ENDBRANCH  71  72
ENDBRANCH  70  71
BRANCH  70  76
ATOM     76  C   UNL     1      27.629  35.892   7.248  1.00  0.00     0.329 C 
ATOM     77  O   UNL     1      28.354  35.572   6.279  1.00  0.00    -0.250 OA
BRANCH  76  78
ATOM     78  O   UNL     1      26.349  36.358   6.977  1.00  0.00    -0.480 OA
ATOM     79  H   UNL     1      25.891  36.040   6.127  1.00  0.00     0.296 HD
ENDBRANCH  76  78
ENDBRANCH  70  76
ENDBRANCH  68  70
ENDBRANCH  64  65
ENDBRANCH  63  64
ENDBRANCH  60  63
ENDBRANCH  58  59
ENDBRANCH  55  58
ENDBRANCH   1  55
TORSDOF 35
BEGIN_RES LYS A 131
REMARK  4 active torsions:
REMARK  status: ('A' for Active; 'I' for Inactive)
REMARK    1  A    between atoms: CA   and  CB  
REMARK    2  A    between atoms: CB   and  CG  
REMARK    3  A    between atoms: CG   and  CD  
REMARK    4  A    between atoms: CD   and  CE  
ROOT
ATOM      1  CA  LYS A 131      29.867  25.555  16.977  1.00 20.52     0.186 C 
ENDROOT
BRANCH   1   2
ATOM      2  CB  LYS A 131      28.345  25.722  17.026  1.00 20.94     0.034 C 
BRANCH   2   3
ATOM      3  CG  LYS A 131      27.601  24.402  16.891  1.00 22.96     0.005 C 
BRANCH   3   4
ATOM      4  CD  LYS A 131      26.513  24.258  17.918  1.00 24.33     0.041 C 
BRANCH   4   5
ATOM      5  CE  LYS A 131      25.160  24.528  17.268  1.00 26.91     0.338 C 
ATOM      6  NZ  LYS A 131      24.215  25.103  18.254  1.00 27.40     0.618 N 
ENDBRANCH   4   5
ENDBRANCH   3   4
ENDBRANCH   2   3
ENDBRANCH   1   2
END_RES LYS A 131
BEGIN_RES LYS A 135
REMARK  4 active torsions:
REMARK  status: ('A' for Active; 'I' for Inactive)
REMARK    5  A    between atoms: CA   and  CB  
REMARK    6  A    between atoms: CB   and  CG  
REMARK    7  A    between atoms: CG   and  CD  
REMARK    8  A    between atoms: CD   and  CE  
ROOT
ATOM      7  CA  LYS A 135      33.193  34.663   9.290  1.00 25.02     0.186 C 
ENDROOT
BRANCH   7   8
ATOM      8  CB  LYS A 135      32.060  35.360  10.034  1.00 26.63     0.034 C 
BRANCH   8   9
ATOM      9  CG  LYS A 135      32.484  35.966  11.347  1.00 29.45     0.005 C 
BRANCH   9  10
ATOM     10  CD  LYS A 135      31.280  36.197  12.246  1.00 32.00     0.041 C 
BRANCH  10  11
ATOM     11  CE  LYS A 135      30.934  34.932  13.008  1.00 34.25     0.338 C 
ATOM     12  NZ  LYS A 135      31.862  34.725  14.154  1.00 35.99     0.618 N 
ENDBRANCH  10  11
ENDBRANCH   9  10
ENDBRANCH   8   9
ENDBRANCH   7   8
END_RES LYS A 135
