REMARK VINA RESULT:    -4.168      3.312      6.875
REMARK INTER + INTRA:         -21.661
REMARK INTER:                 -11.169
REMARK INTRA:                 -10.492
REMARK UNBOUND:               -10.427
REMARK SMILES CCN(CC)CCn1cc(COC(=O)NC[C@@H](O)C(O)[C@@H]2O[C@@](OC[C@H]3O[C@@H](O[C@H]4[C@H](O)[C@@H](O)[C@H](OCCN=[N+]=[N-])O[C@@H]4CO)[C@H](O)[C@@H](O)[C@H]3O)(C(=O)O)C[C@H](O)[C@H]2NC(C)=O)nn1
REMARK SMILES IDX 19 1 21 2 23 3 55 4 22 5 56 6 58 7 24 8 25 9 26 10 28 11
REMARK SMILES IDX 27 12 46 13 48 14 50 15 29 16 30 17 43 18 42 19 35 20 31 21
REMARK SMILES IDX 33 22 44 23 45 24 36 26 37 27 38 28 39 29 40 30 41 31 32 32
REMARK SMILES IDX 34 34 47 36 49 38 51 40 52 42 53 43 54 44 57 46 59 48 60 49
REMARK SMILES IDX 61 51 62 52 20 53 17 55 18 56 16 58 15 59 13 60 14 62 12 63
REMARK SMILES IDX 11 64 10 65 9 66 63 67 8 68 64 69 7 70 6 71 3 72 2 73 1 74
REMARK SMILES IDX 4 75 5 76
REMARK H PARENT 45 25 32 33 34 35 47 37 49 39 51 41 54 45 57 47 59 50 20 54
REMARK H PARENT 18 57 15 61
REMARK Flexibility Score: inf
ROOT
ATOM      1  C   UNL     1      30.715  39.086  13.312  1.00  0.00     0.176 C 
ENDROOT
BRANCH   1   2
ATOM      2  C   UNL     1      31.491  38.175  14.226  1.00  0.00     0.178 C 
ATOM      3  C   UNL     1      32.027  35.976  14.641  1.00  0.00     0.272 C 
ATOM      4  C   UNL     1      32.946  36.711  15.629  1.00  0.00     0.113 C 
ATOM      5  O   UNL     1      31.379  36.868  13.817  1.00  0.00    -0.332 OA
ATOM      6  C   UNL     1      32.232  37.713  16.476  1.00  0.00     0.145 C 
ATOM      7  C   UNL     1      31.030  38.226  15.666  1.00  0.00     0.142 C 
BRANCH   3   8
ATOM      8  O   UNL     1      31.197  35.182  15.395  1.00  0.00    -0.338 OA
BRANCH   8   9
ATOM      9  C   UNL     1      31.796  34.146  16.069  1.00  0.00     0.199 C 
BRANCH   9  10
ATOM     10  C   UNL     1      30.750  33.251  16.757  1.00  0.00     0.179 C 
ATOM     11  C   UNL     1      28.426  33.072  16.437  1.00  0.00     0.282 C 
ATOM     12  O   UNL     1      29.558  33.859  16.582  1.00  0.00    -0.341 OA
ATOM     13  C   UNL     1      28.565  31.755  17.091  1.00  0.00     0.202 C 
ATOM     14  C   UNL     1      29.770  30.974  16.647  1.00  0.00     0.179 C 
ATOM     15  C   UNL     1      30.804  31.918  16.075  1.00  0.00     0.177 C 
BRANCH  11  16
ATOM     16  O   UNL     1      28.147  33.099  15.078  1.00  0.00    -0.341 OA
BRANCH  16  17
ATOM     17  C   UNL     1      27.076  33.846  14.733  1.00  0.00     0.184 C 
ATOM     18  C   UNL     1      27.448  35.101  13.987  1.00  0.00     0.178 C 
ATOM     19  O   UNL     1      26.241  35.741  13.584  1.00  0.00    -0.341 OA
ATOM     20  C   UNL     1      25.746  36.436  14.666  1.00  0.00     0.281 C 
ATOM     21  C   UNL     1      26.233  34.286  15.926  1.00  0.00     0.180 C 
ATOM     22  C   UNL     1      25.966  35.757  15.946  1.00  0.00     0.202 C 
BRANCH  18  23
ATOM     23  C   UNL     1      28.376  34.924  12.841  1.00  0.00     0.191 C 
BRANCH  23  24
ATOM     24  O   UNL     1      29.588  34.458  13.336  1.00  0.00    -0.394 OA
ATOM     25  H   UNL     1      30.016  33.775  12.763  1.00  0.00     0.210 HD
ENDBRANCH  23  24
ENDBRANCH  18  23
BRANCH  20  26
ATOM     26  O   UNL     1      24.442  36.871  14.452  1.00  0.00    -0.350 OA
BRANCH  26  27
ATOM     27  C   UNL     1      23.924  36.558  13.231  1.00  0.00     0.169 C 
BRANCH  27  28
ATOM     28  C   UNL     1      23.604  37.780  12.391  1.00  0.00     0.119 C 
BRANCH  28  29
ATOM     29  N   UNL     1      24.805  38.349  11.813  1.00  0.00    -0.092 NA
ATOM     30  N   UNL     1      25.500  37.748  10.984  1.00  0.00     0.001 N 
ATOM     31  N   UNL     1      26.390  37.010  10.558  1.00  0.00    -0.003 NA
ENDBRANCH  28  29
ENDBRANCH  27  28
ENDBRANCH  26  27
ENDBRANCH  20  26
BRANCH  21  32
ATOM     32  O   UNL     1      25.033  33.601  15.886  1.00  0.00    -0.387 OA
ATOM     33  H   UNL     1      25.119  32.648  15.682  1.00  0.00     0.211 HD
ENDBRANCH  21  32
BRANCH  22  34
ATOM     34  O   UNL     1      26.963  36.447  16.680  1.00  0.00    -0.385 OA
ATOM     35  H   UNL     1      26.474  37.017  17.329  1.00  0.00     0.211 HD
ENDBRANCH  22  34
ENDBRANCH  16  17
ENDBRANCH  11  16
BRANCH  13  36
ATOM     36  O   UNL     1      28.717  31.970  18.492  1.00  0.00    -0.385 OA
ATOM     37  H   UNL     1      29.305  32.725  18.668  1.00  0.00     0.211 HD
ENDBRANCH  13  36
BRANCH  14  38
ATOM     38  O   UNL     1      29.482  29.936  15.776  1.00  0.00    -0.387 OA
ATOM     39  H   UNL     1      28.777  30.147  15.142  1.00  0.00     0.211 HD
ENDBRANCH  14  38
BRANCH  15  40
ATOM     40  O   UNL     1      30.520  32.094  14.727  1.00  0.00    -0.387 OA
ATOM     41  H   UNL     1      30.684  31.243  14.226  1.00  0.00     0.211 HD
ENDBRANCH  15  40
ENDBRANCH   9  10
ENDBRANCH   8   9
ENDBRANCH   3   8
BRANCH   3  42
ATOM     42  C   UNL     1      32.954  35.152  13.824  1.00  0.00     0.364 C 
ATOM     43  O   UNL     1      34.111  34.841  14.268  1.00  0.00    -0.246 OA
BRANCH  42  44
ATOM     44  O   UNL     1      32.668  34.669  12.563  1.00  0.00    -0.477 OA
ATOM     45  H   UNL     1      33.419  34.498  11.903  1.00  0.00     0.296 HD
ENDBRANCH  42  44
ENDBRANCH   3  42
BRANCH   6  46
ATOM     46  O   UNL     1      31.886  37.280  17.733  1.00  0.00    -0.391 OA
ATOM     47  H   UNL     1      32.671  37.421  18.320  1.00  0.00     0.211 HD
ENDBRANCH   6  46
BRANCH   7  48
ATOM     48  N   UNL     1      30.604  39.508  16.114  1.00  0.00    -0.348 N 
ATOM     49  C   UNL     1      29.216  39.680  16.466  1.00  0.00     0.217 C 
ATOM     50  H   UNL     1      31.204  40.346  16.218  1.00  0.00     0.163 HD
ATOM     51  C   UNL     1      28.700  40.989  16.939  1.00  0.00     0.114 C 
ATOM     52  O   UNL     1      28.395  38.728  16.384  1.00  0.00    -0.275 OA
ENDBRANCH   7  48
ENDBRANCH   1   2
BRANCH   1  53
ATOM     53  O   UNL     1      31.484  40.216  13.066  1.00  0.00    -0.388 OA
ATOM     54  H   UNL     1      32.283  39.955  12.508  1.00  0.00     0.211 HD
ENDBRANCH   1  53
BRANCH   1  55
ATOM     55  C   UNL     1      30.514  38.338  12.020  1.00  0.00     0.165 C 
BRANCH  55  56
ATOM     56  O   UNL     1      31.708  38.356  11.289  1.00  0.00    -0.388 OA
ATOM     57  H   UNL     1      31.485  38.220  10.337  1.00  0.00     0.211 HD
ENDBRANCH  55  56
BRANCH  55  58
ATOM     58  C   UNL     1      29.400  38.820  11.165  1.00  0.00     0.154 C 
BRANCH  58  59
ATOM     59  N   UNL     1      29.200  38.063   9.978  1.00  0.00    -0.319 N 
ATOM     60  C   UNL     1      29.678  38.580   8.726  1.00  0.00     0.407 C 
ATOM     61  H   UNL     1      28.718  37.163   9.986  1.00  0.00     0.167 HD
ATOM     62  O   UNL     1      30.258  39.682   8.665  1.00  0.00    -0.225 OA
BRANCH  60  63
ATOM     63  O   UNL     1      29.476  37.822   7.584  1.00  0.00    -0.443 OA
BRANCH  63  64
ATOM     64  C   UNL     1      28.626  38.355   6.554  1.00  0.00     0.294 C 
BRANCH  64  65
ATOM     65  C   UNL     1      27.240  38.022   6.909  1.00  0.00     0.120 A 
ATOM     66  C   UNL     1      26.284  38.975   7.277  1.00  0.00     0.138 A 
ATOM     67  N   UNL     1      26.607  36.853   6.963  1.00  0.00    -0.132 NA
ATOM     68  N   UNL     1      25.124  38.344   7.534  1.00  0.00    -0.251 N 
ATOM     69  N   UNL     1      25.345  37.071   7.339  1.00  0.00    -0.067 NA
BRANCH  68  70
ATOM     70  C   UNL     1      23.868  38.939   7.948  1.00  0.00     0.161 C 
BRANCH  70  71
ATOM     71  C   UNL     1      23.017  37.844   8.553  1.00  0.00     0.108 C 
BRANCH  71  72
ATOM     72  N   UNL     1      21.617  37.993   8.278  1.00  0.00    -0.302 NA
BRANCH  72  73
ATOM     73  C   UNL     1      20.936  38.736   9.303  1.00  0.00     0.081 C 
ATOM     74  C   UNL     1      20.020  39.753   8.634  1.00  0.00     0.021 C 
ENDBRANCH  72  73
BRANCH  72  75
ATOM     75  C   UNL     1      20.973  36.760   7.946  1.00  0.00     0.081 C 
ATOM     76  C   UNL     1      21.758  35.577   8.476  1.00  0.00     0.021 C 
ENDBRANCH  72  75
ENDBRANCH  71  72
ENDBRANCH  70  71
ENDBRANCH  68  70
ENDBRANCH  64  65
ENDBRANCH  63  64
ENDBRANCH  60  63
ENDBRANCH  58  59
ENDBRANCH  55  58
ENDBRANCH   1  55
TORSDOF 34
BEGIN_RES LYS A 131
REMARK  4 active torsions:
REMARK  status: ('A' for Active; 'I' for Inactive)
REMARK    1  A    between atoms: CA   and  CB  
REMARK    2  A    between atoms: CB   and  CG  
REMARK    3  A    between atoms: CG   and  CD  
REMARK    4  A    between atoms: CD   and  CE  
ROOT
ATOM      1  CA  LYS A 131      29.867  25.555  16.977  1.00 20.52     0.186 C 
ENDROOT
BRANCH   1   2
ATOM      2  CB  LYS A 131      28.345  25.722  17.026  1.00 20.94     0.034 C 
BRANCH   2   3
ATOM      3  CG  LYS A 131      27.600  24.408  16.844  1.00 22.96     0.005 C 
BRANCH   3   4
ATOM      4  CD  LYS A 131      26.231  24.443  17.464  1.00 24.33     0.041 C 
BRANCH   4   5
ATOM      5  CE  LYS A 131      26.236  25.395  18.656  1.00 26.91     0.338 C 
ATOM      6  NZ  LYS A 131      25.442  24.832  19.773  1.00 27.40     0.618 N 
ENDBRANCH   4   5
ENDBRANCH   3   4
ENDBRANCH   2   3
ENDBRANCH   1   2
END_RES LYS A 131
BEGIN_RES LYS A 135
REMARK  4 active torsions:
REMARK  status: ('A' for Active; 'I' for Inactive)
REMARK    5  A    between atoms: CA   and  CB  
REMARK    6  A    between atoms: CB   and  CG  
REMARK    7  A    between atoms: CG   and  CD  
REMARK    8  A    between atoms: CD   and  CE  
ROOT
ATOM      7  CA  LYS A 135      33.193  34.663   9.290  1.00 25.02     0.186 C 
ENDROOT
BRANCH   7   8
ATOM      8  CB  LYS A 135      32.060  35.360  10.034  1.00 26.63     0.034 C 
BRANCH   8   9
ATOM      9  CG  LYS A 135      30.746  34.628   9.953  1.00 29.45     0.005 C 
BRANCH   9  10
ATOM     10  CD  LYS A 135      30.328  34.434   8.503  1.00 32.00     0.041 C 
BRANCH  10  11
ATOM     11  CE  LYS A 135      28.821  34.534   8.365  1.00 34.25     0.338 C 
ATOM     12  NZ  LYS A 135      28.132  33.733   9.415  1.00 35.99     0.618 N 
ENDBRANCH  10  11
ENDBRANCH   9  10
ENDBRANCH   8   9
ENDBRANCH   7   8
END_RES LYS A 135
