REMARK VINA RESULT:    -6.765      3.284      8.010
REMARK INTER + INTRA:         -20.046
REMARK INTER:                  -8.581
REMARK INTRA:                 -11.465
REMARK UNBOUND:                -1.022
REMARK SMILES CC(=O)N[C@@H]1[C@@H](O)C[C@](OC[C@H]2O[C@@H](O[C@H]3[C@H](O)[C@@H](O)[C@H](OCCN=[N+]=[N-])O[C@@H]3CO)[C@H](O)[C@@H](O)[C@H]2O)(C(=O)O)O[C@H]1C(O)[C@H](O)CNC(=O)OCc1cn(C2CC(O)C=C[C@@H](O)C2)nn1
REMARK SMILES IDX 43 1 42 2 9 3 8 4 41 5 6 6 5 7 10 8 11 9 12 10 14 11 13 12
REMARK SMILES IDX 32 13 34 14 36 15 15 16 16 17 29 18 28 19 21 20 17 21 19 22
REMARK SMILES IDX 30 23 31 24 22 26 23 27 24 28 25 29 26 30 27 31 18 32 20 34
REMARK SMILES IDX 33 36 35 38 37 40 38 42 39 43 40 44 7 46 4 48 2 49 1 51 3 52
REMARK SMILES IDX 44 53 45 55 46 56 47 58 48 59 49 60 50 62 51 63 52 64 53 65
REMARK SMILES IDX 54 66 66 67 55 68 65 69 56 70 57 71 58 72 59 74 64 76 62 77
REMARK SMILES IDX 61 78 60 79 63 81
REMARK H PARENT 31 25 18 33 20 35 33 37 35 39 37 41 40 45 7 47 4 50 44 54
REMARK H PARENT 46 57 48 61 59 75 63 82
REMARK Flexibility Score: 90.00
ROOT
ATOM      1  C   UNL     1      22.595  36.957  11.662  1.00  0.00     0.176 C 
ENDROOT
BRANCH   1   2
ATOM      2  C   UNL     1      22.988  38.266  11.001  1.00  0.00     0.178 C 
ATOM      3  C   UNL     1      23.768  38.939   8.885  1.00  0.00     0.272 C 
ATOM      4  C   UNL     1      24.258  40.230   9.430  1.00  0.00     0.113 C 
ATOM      5  O   UNL     1      23.516  37.920   9.724  1.00  0.00    -0.332 OA
ATOM      6  C   UNL     1      23.989  40.442  10.875  1.00  0.00     0.145 C 
ATOM      7  C   UNL     1      24.029  39.081  11.638  1.00  0.00     0.142 C 
BRANCH   3   8
ATOM      8  O   UNL     1      24.634  38.551   7.842  1.00  0.00    -0.338 OA
BRANCH   8   9
ATOM      9  C   UNL     1      24.726  37.204   7.643  1.00  0.00     0.199 C 
BRANCH   9  10
ATOM     10  C   UNL     1      26.188  36.764   7.553  1.00  0.00     0.179 C 
ATOM     11  C   UNL     1      28.173  37.931   7.723  1.00  0.00     0.282 C 
ATOM     12  O   UNL     1      26.919  37.825   7.121  1.00  0.00    -0.341 OA
ATOM     13  C   UNL     1      27.870  38.226   9.180  1.00  0.00     0.202 C 
ATOM     14  C   UNL     1      27.374  36.927   9.774  1.00  0.00     0.179 C 
ATOM     15  C   UNL     1      26.644  36.070   8.789  1.00  0.00     0.177 C 
BRANCH  11  16
ATOM     16  O   UNL     1      28.891  38.920   7.093  1.00  0.00    -0.341 OA
BRANCH  16  17
ATOM     17  C   UNL     1      28.032  39.958   6.719  1.00  0.00     0.184 C 
ATOM     18  C   UNL     1      27.859  39.975   5.221  1.00  0.00     0.178 C 
ATOM     19  O   UNL     1      28.925  40.486   4.526  1.00  0.00    -0.341 OA
ATOM     20  C   UNL     1      29.920  41.034   5.332  1.00  0.00     0.281 C 
ATOM     21  C   UNL     1      28.459  41.292   7.267  1.00  0.00     0.180 C 
ATOM     22  C   UNL     1      29.308  42.054   6.286  1.00  0.00     0.202 C 
BRANCH  18  23
ATOM     23  C   UNL     1      26.585  40.715   4.836  1.00  0.00     0.191 C 
BRANCH  23  24
ATOM     24  O   UNL     1      25.509  40.349   5.623  1.00  0.00    -0.394 OA
ATOM     25  H   UNL     1      24.653  40.478   5.186  1.00  0.00     0.210 HD
ENDBRANCH  23  24
ENDBRANCH  18  23
BRANCH  20  26
ATOM     26  O   UNL     1      30.813  41.661   4.468  1.00  0.00    -0.350 OA
BRANCH  26  27
ATOM     27  C   UNL     1      30.093  42.239   3.429  1.00  0.00     0.169 C 
BRANCH  27  28
ATOM     28  C   UNL     1      30.653  43.601   3.060  1.00  0.00     0.119 C 
BRANCH  28  29
ATOM     29  N   UNL     1      29.786  44.661   3.531  1.00  0.00    -0.092 NA
ATOM     30  N   UNL     1      30.040  45.206   4.617  1.00  0.00     0.001 N 
ATOM     31  N   UNL     1      30.341  45.594   5.754  1.00  0.00    -0.003 NA
ENDBRANCH  28  29
ENDBRANCH  27  28
ENDBRANCH  26  27
ENDBRANCH  20  26
BRANCH  21  32
ATOM     32  O   UNL     1      27.342  42.051   7.615  1.00  0.00    -0.387 OA
ATOM     33  H   UNL     1      26.757  41.577   8.253  1.00  0.00     0.211 HD
ENDBRANCH  21  32
BRANCH  22  34
ATOM     34  O   UNL     1      30.321  42.749   6.934  1.00  0.00    -0.385 OA
ATOM     35  H   UNL     1      31.074  42.144   7.164  1.00  0.00     0.211 HD
ENDBRANCH  22  34
ENDBRANCH  16  17
ENDBRANCH  11  16
BRANCH  13  36
ATOM     36  O   UNL     1      28.936  38.701   9.896  1.00  0.00    -0.385 OA
ATOM     37  H   UNL     1      29.080  38.280  10.758  1.00  0.00     0.211 HD
ENDBRANCH  13  36
BRANCH  14  38
ATOM     38  O   UNL     1      26.596  37.263  10.881  1.00  0.00    -0.387 OA
ATOM     39  H   UNL     1      25.733  36.763  10.876  1.00  0.00     0.211 HD
ENDBRANCH  14  38
BRANCH  15  40
ATOM     40  O   UNL     1      25.499  35.512   9.394  1.00  0.00    -0.387 OA
ATOM     41  H   UNL     1      24.698  35.597   8.858  1.00  0.00     0.211 HD
ENDBRANCH  15  40
ENDBRANCH   9  10
ENDBRANCH   8   9
ENDBRANCH   3   8
BRANCH   3  42
ATOM     42  C   UNL     1      22.456  39.254   8.199  1.00  0.00     0.364 C 
ATOM     43  O   UNL     1      22.129  40.426   7.874  1.00  0.00    -0.246 OA
BRANCH  42  44
ATOM     44  O   UNL     1      21.604  38.197   7.930  1.00  0.00    -0.477 OA
ATOM     45  H   UNL     1      20.624  38.356   7.694  1.00  0.00     0.296 HD
ENDBRANCH  42  44
ENDBRANCH   3  42
BRANCH   6  46
ATOM     46  O   UNL     1      24.880  41.323  11.437  1.00  0.00    -0.391 OA
ATOM     47  H   UNL     1      25.798  40.994  11.327  1.00  0.00     0.211 HD
ENDBRANCH   6  46
BRANCH   7  48
ATOM     48  N   UNL     1      24.021  39.341  13.025  1.00  0.00    -0.348 N 
ATOM     49  C   UNL     1      24.999  38.754  13.867  1.00  0.00     0.217 C 
ATOM     50  H   UNL     1      23.327  39.984  13.448  1.00  0.00     0.163 HD
ATOM     51  C   UNL     1      25.010  39.013  15.331  1.00  0.00     0.114 C 
ATOM     52  O   UNL     1      25.871  38.001  13.372  1.00  0.00    -0.275 OA
ENDBRANCH   7  48
ENDBRANCH   1   2
BRANCH   1  53
ATOM     53  O   UNL     1      23.912  36.335  11.813  1.00  0.00    -0.388 OA
ATOM     54  H   UNL     1      24.568  37.075  12.004  1.00  0.00     0.211 HD
ENDBRANCH   1  53
BRANCH   1  55
ATOM     55  C   UNL     1      21.916  35.982  10.742  1.00  0.00     0.165 C 
BRANCH  55  56
ATOM     56  O   UNL     1      20.920  36.571  10.002  1.00  0.00    -0.388 OA
ATOM     57  H   UNL     1      20.847  36.228   9.083  1.00  0.00     0.211 HD
ENDBRANCH  55  56
BRANCH  55  58
ATOM     58  C   UNL     1      21.259  34.858  11.537  1.00  0.00     0.154 C 
BRANCH  58  59
ATOM     59  N   UNL     1      22.177  34.044  12.266  1.00  0.00    -0.319 N 
ATOM     60  C   UNL     1      22.128  33.899  13.681  1.00  0.00     0.407 C 
ATOM     61  H   UNL     1      22.939  33.515  11.746  1.00  0.00     0.167 HD
ATOM     62  O   UNL     1      21.220  34.535  14.288  1.00  0.00    -0.225 OA
BRANCH  60  63
ATOM     63  O   UNL     1      23.039  33.097  14.330  1.00  0.00    -0.443 OA
BRANCH  63  64
ATOM     64  C   UNL     1      24.018  32.369  13.596  1.00  0.00     0.294 C 
BRANCH  64  65
ATOM     65  C   UNL     1      25.149  33.282  13.319  1.00  0.00     0.120 A 
ATOM     66  C   UNL     1      26.140  33.693  14.172  1.00  0.00     0.138 A 
ATOM     67  N   UNL     1      25.392  33.884  12.142  1.00  0.00    -0.132 NA
ATOM     68  N   UNL     1      26.951  34.534  13.482  1.00  0.00    -0.249 N 
ATOM     69  N   UNL     1      26.472  34.627  12.260  1.00  0.00    -0.067 NA
BRANCH  68  70
ATOM     70  C   UNL     1      28.143  35.220  14.000  1.00  0.00     0.115 C 
BRANCH  70  71
ATOM     71  C   UNL     1      28.895  34.274  14.874  1.00  0.00     0.063 C 
BRANCH  71  72
ATOM     72  C   UNL     1      29.708  35.078  15.893  1.00  0.00     0.139 CG0
ATOM     73  G   UNL     1      30.834  35.728  15.204  1.00  0.00     0.000 G0
BRANCH  72  74
ATOM     74  O   UNL     1      30.152  34.239  16.913  1.00  0.00    -0.389 OA
ATOM     75  H   UNL     1      30.661  33.490  16.492  1.00  0.00     0.211 HD
ENDBRANCH  72  74
ENDBRANCH  71  72
ENDBRANCH  70  71
BRANCH  70  76
ATOM     76  C   UNL     1      28.973  35.669  12.839  1.00  0.00     0.063 C 
BRANCH  76  77
ATOM     77  C   UNL     1      29.730  36.920  13.300  1.00  0.00     0.139 C 
BRANCH  77  78
ATOM     78  C   UNL     1      30.900  36.518  14.126  1.00  0.00     0.002 C 
ATOM     79  C   UNL     1      30.868  35.749  15.205  1.00  0.00     0.002 CG0
ATOM     80  G   UNL     1      29.722  35.102  15.865  1.00  0.00     0.000 G0
ENDBRANCH  77  78
BRANCH  77  81
ATOM     81  O   UNL     1      30.113  37.711  12.228  1.00  0.00    -0.389 OA
ATOM     82  H   UNL     1      29.795  38.639  12.414  1.00  0.00     0.211 HD
ENDBRANCH  77  81
ENDBRANCH  76  77
ENDBRANCH  70  76
ENDBRANCH  68  70
ENDBRANCH  64  65
ENDBRANCH  63  64
ENDBRANCH  60  63
ENDBRANCH  58  59
ENDBRANCH  55  58
ENDBRANCH   1  55
TORSDOF 32
BEGIN_RES LYS A 131
REMARK  4 active torsions:
REMARK  status: ('A' for Active; 'I' for Inactive)
REMARK    1  A    between atoms: CA   and  CB  
REMARK    2  A    between atoms: CB   and  CG  
REMARK    3  A    between atoms: CG   and  CD  
REMARK    4  A    between atoms: CD   and  CE  
ROOT
ATOM      1  CA  LYS A 131      29.867  25.555  16.977  1.00 20.52     0.186 C 
ENDROOT
BRANCH   1   2
ATOM      2  CB  LYS A 131      28.345  25.722  17.026  1.00 20.94     0.034 C 
BRANCH   2   3
ATOM      3  CG  LYS A 131      27.602  24.397  16.952  1.00 22.96     0.005 C 
BRANCH   3   4
ATOM      4  CD  LYS A 131      26.162  24.530  17.362  1.00 24.33     0.041 C 
BRANCH   4   5
ATOM      5  CE  LYS A 131      25.891  23.633  18.566  1.00 26.91     0.338 C 
ATOM      6  NZ  LYS A 131      24.433  23.516  18.807  1.00 27.40     0.618 N 
ENDBRANCH   4   5
ENDBRANCH   3   4
ENDBRANCH   2   3
ENDBRANCH   1   2
END_RES LYS A 131
BEGIN_RES LYS A 135
REMARK  4 active torsions:
REMARK  status: ('A' for Active; 'I' for Inactive)
REMARK    5  A    between atoms: CA   and  CB  
REMARK    6  A    between atoms: CB   and  CG  
REMARK    7  A    between atoms: CG   and  CD  
REMARK    8  A    between atoms: CD   and  CE  
ROOT
ATOM      7  CA  LYS A 135      33.193  34.663   9.290  1.00 25.02     0.186 C 
ENDROOT
BRANCH   7   8
ATOM      8  CB  LYS A 135      32.060  35.360  10.034  1.00 26.63     0.034 C 
BRANCH   8   9
ATOM      9  CG  LYS A 135      30.915  35.768   9.143  1.00 29.45     0.005 C 
BRANCH   9  10
ATOM     10  CD  LYS A 135      30.167  34.545   8.636  1.00 32.00     0.041 C 
BRANCH  10  11
ATOM     11  CE  LYS A 135      29.514  33.805   9.787  1.00 34.25     0.338 C 
ATOM     12  NZ  LYS A 135      28.129  33.385   9.438  1.00 35.99     0.618 N 
ENDBRANCH  10  11
ENDBRANCH   9  10
ENDBRANCH   8   9
ENDBRANCH   7   8
END_RES LYS A 135
