REMARK VINA RESULT:    -4.370      2.789      7.816
REMARK INTER + INTRA:         -21.371
REMARK INTER:                  -8.722
REMARK INTRA:                 -12.650
REMARK UNBOUND:               -10.616
REMARK SMILES CC(=O)N[C@@H]1[C@@H](O)C[C@](OC[C@H]2O[C@@H](O[C@H]3[C@H](O)[C@@H](O)[C@H](OCCN=[N+]=[N-])O[C@@H]3CO)[C@H](O)[C@@H](O)[C@H]2O)(C(=O)O)O[C@H]1C(O)[C@H](O)CNC(=O)OCc1cn(C2CCCC2)nn1
REMARK SMILES IDX 9 1 8 2 6 3 5 4 42 5 41 6 10 7 11 8 12 9 14 10 13 11 32 12
REMARK SMILES IDX 34 13 36 14 15 15 16 16 29 17 28 18 21 19 17 20 19 21 30 22
REMARK SMILES IDX 31 23 22 25 23 26 24 27 25 28 26 29 27 30 18 31 20 33 33 35
REMARK SMILES IDX 35 37 37 39 38 41 39 42 40 43 7 45 43 47 44 48 45 50 46 51
REMARK SMILES IDX 47 53 48 54 49 55 50 57 51 58 52 59 53 60 54 61 62 62 55 63
REMARK SMILES IDX 61 64 56 65 57 66 60 67 58 68 59 69 4 70 2 71 1 73 3 74
REMARK H PARENT 31 24 18 32 20 34 33 36 35 38 37 40 40 44 7 46 44 49 46 52
REMARK H PARENT 48 56 4 72
REMARK Flexibility Score: inf
ROOT
ATOM      1  C   UNL     1      28.209  37.311   7.572  1.00  0.00     0.272 C 
ATOM      2  C   UNL     1      29.520  36.787   8.027  1.00  0.00     0.113 C 
ATOM      3  C   UNL     1      30.436  37.814   8.595  1.00  0.00     0.145 C 
ATOM      4  C   UNL     1      30.529  39.032   7.644  1.00  0.00     0.142 C 
ATOM      5  C   UNL     1      29.672  38.742   6.461  1.00  0.00     0.178 C 
ATOM      6  O   UNL     1      28.355  38.605   7.020  1.00  0.00    -0.332 OA
ENDROOT
BRANCH   1   7
ATOM      7  O   UNL     1      27.278  37.385   8.544  1.00  0.00    -0.338 OA
BRANCH   7   8
ATOM      8  C   UNL     1      26.881  36.244   9.194  1.00  0.00     0.199 C 
BRANCH   8   9
ATOM      9  C   UNL     1      26.553  36.633  10.633  1.00  0.00     0.179 C 
ATOM     10  C   UNL     1      24.370  37.428  10.473  1.00  0.00     0.282 C 
ATOM     11  O   UNL     1      25.708  37.691  10.739  1.00  0.00    -0.341 OA
ATOM     12  C   UNL     1      23.940  36.053  10.851  1.00  0.00     0.202 C 
ATOM     13  C   UNL     1      24.788  35.406  11.901  1.00  0.00     0.179 C 
ATOM     14  C   UNL     1      26.216  35.421  11.416  1.00  0.00     0.177 C 
BRANCH  10  15
ATOM     15  O   UNL     1      24.022  37.787   9.173  1.00  0.00    -0.341 OA
BRANCH  15  16
ATOM     16  C   UNL     1      23.704  39.141   9.068  1.00  0.00     0.184 C 
ATOM     17  C   UNL     1      22.309  39.414   8.618  1.00  0.00     0.178 C 
ATOM     18  O   UNL     1      22.147  40.790   8.474  1.00  0.00    -0.341 OA
ATOM     19  C   UNL     1      22.761  41.216   7.310  1.00  0.00     0.281 C 
ATOM     20  C   UNL     1      24.631  39.702   7.998  1.00  0.00     0.180 C 
ATOM     21  C   UNL     1      24.254  41.075   7.543  1.00  0.00     0.202 C 
BRANCH  17  22
ATOM     22  C   UNL     1      21.248  38.996   9.631  1.00  0.00     0.191 C 
BRANCH  22  23
ATOM     23  O   UNL     1      21.024  37.630   9.395  1.00  0.00    -0.394 OA
ATOM     24  H   UNL     1      20.077  37.441   9.286  1.00  0.00     0.210 HD
ENDBRANCH  22  23
ENDBRANCH  17  22
BRANCH  19  25
ATOM     25  O   UNL     1      22.500  42.571   7.131  1.00  0.00    -0.350 OA
BRANCH  25  26
ATOM     26  C   UNL     1      21.577  42.743   6.086  1.00  0.00     0.169 C 
BRANCH  26  27
ATOM     27  C   UNL     1      21.985  43.909   5.203  1.00  0.00     0.119 C 
BRANCH  27  28
ATOM     28  N   UNL     1      23.409  44.072   5.187  1.00  0.00    -0.092 NA
ATOM     29  N   UNL     1      24.110  43.666   4.238  1.00  0.00     0.001 N 
ATOM     30  N   UNL     1      24.744  42.859   3.563  1.00  0.00    -0.003 NA
ENDBRANCH  27  28
ENDBRANCH  26  27
ENDBRANCH  25  26
ENDBRANCH  19  25
BRANCH  20  31
ATOM     31  O   UNL     1      25.898  39.759   8.573  1.00  0.00    -0.387 OA
ATOM     32  H   UNL     1      25.933  39.347   9.472  1.00  0.00     0.211 HD
ENDBRANCH  20  31
BRANCH  21  33
ATOM     33  O   UNL     1      24.879  41.310   6.307  1.00  0.00    -0.385 OA
ATOM     34  H   UNL     1      24.805  42.287   6.155  1.00  0.00     0.211 HD
ENDBRANCH  21  33
ENDBRANCH  15  16
ENDBRANCH  10  15
BRANCH  12  35
ATOM     35  O   UNL     1      22.622  36.053  11.365  1.00  0.00    -0.385 OA
ATOM     36  H   UNL     1      22.677  35.777  12.299  1.00  0.00     0.211 HD
ENDBRANCH  12  35
BRANCH  13  37
ATOM     37  O   UNL     1      24.395  34.091  12.065  1.00  0.00    -0.387 OA
ATOM     38  H   UNL     1      24.765  33.569  11.319  1.00  0.00     0.211 HD
ENDBRANCH  13  37
BRANCH  14  39
ATOM     39  O   UNL     1      26.464  34.227  10.753  1.00  0.00    -0.387 OA
ATOM     40  H   UNL     1      26.986  34.342   9.946  1.00  0.00     0.211 HD
ENDBRANCH  14  39
ENDBRANCH   8   9
ENDBRANCH   7   8
ENDBRANCH   1   7
BRANCH   1  41
ATOM     41  C   UNL     1      27.746  36.485   6.393  1.00  0.00     0.364 C 
ATOM     42  O   UNL     1      28.293  35.419   6.068  1.00  0.00    -0.246 OA
BRANCH  41  43
ATOM     43  O   UNL     1      26.656  36.998   5.684  1.00  0.00    -0.477 OA
ATOM     44  H   UNL     1      26.524  36.711   4.705  1.00  0.00     0.296 HD
ENDBRANCH  41  43
ENDBRANCH   1  41
BRANCH   3  45
ATOM     45  O   UNL     1      30.180  38.197   9.887  1.00  0.00    -0.391 OA
ATOM     46  H   UNL     1      31.024  38.341  10.373  1.00  0.00     0.211 HD
ENDBRANCH   3  45
BRANCH   5  47
ATOM     47  C   UNL     1      29.525  39.875   5.478  1.00  0.00     0.176 C 
BRANCH  47  48
ATOM     48  O   UNL     1      29.744  41.090   6.253  1.00  0.00    -0.388 OA
ATOM     49  H   UNL     1      29.114  40.979   7.002  1.00  0.00     0.211 HD
ENDBRANCH  47  48
BRANCH  47  50
ATOM     50  C   UNL     1      28.140  40.101   4.938  1.00  0.00     0.165 C 
BRANCH  50  51
ATOM     51  O   UNL     1      27.597  39.144   4.157  1.00  0.00    -0.388 OA
ATOM     52  H   UNL     1      26.683  39.316   3.843  1.00  0.00     0.211 HD
ENDBRANCH  50  51
BRANCH  50  53
ATOM     53  C   UNL     1      28.161  41.401   4.141  1.00  0.00     0.154 C 
BRANCH  53  54
ATOM     54  N   UNL     1      27.345  42.389   4.860  1.00  0.00    -0.319 N 
ATOM     55  C   UNL     1      27.907  43.610   5.311  1.00  0.00     0.407 C 
ATOM     56  H   UNL     1      26.326  42.217   5.060  1.00  0.00     0.167 HD
ATOM     57  O   UNL     1      29.123  43.843   5.086  1.00  0.00    -0.225 OA
BRANCH  55  58
ATOM     58  O   UNL     1      27.155  44.545   5.986  1.00  0.00    -0.443 OA
BRANCH  58  59
ATOM     59  C   UNL     1      26.527  44.264   7.222  1.00  0.00     0.294 C 
BRANCH  59  60
ATOM     60  C   UNL     1      27.351  43.418   8.115  1.00  0.00     0.120 A 
ATOM     61  C   UNL     1      28.109  43.748   9.216  1.00  0.00     0.138 A 
ATOM     62  N   UNL     1      27.503  42.083   7.979  1.00  0.00    -0.132 NA
ATOM     63  N   UNL     1      28.679  42.641   9.698  1.00  0.00    -0.249 N 
ATOM     64  N   UNL     1      28.287  41.645   8.921  1.00  0.00    -0.067 NA
BRANCH  63  65
ATOM     65  C   UNL     1      29.563  42.503  10.850  1.00  0.00     0.109 C 
ATOM     66  C   UNL     1      29.307  43.528  11.904  1.00  0.00     0.027 C 
ATOM     67  C   UNL     1      29.266  41.181  11.525  1.00  0.00     0.027 C 
ATOM     68  C   UNL     1      28.349  42.930  12.902  1.00  0.00     0.002 C 
ATOM     69  C   UNL     1      28.243  41.460  12.584  1.00  0.00     0.002 C 
ENDBRANCH  63  65
ENDBRANCH  59  60
ENDBRANCH  58  59
ENDBRANCH  55  58
ENDBRANCH  53  54
ENDBRANCH  50  53
ENDBRANCH  47  50
ENDBRANCH   5  47
BRANCH   4  70
ATOM     70  N   UNL     1      31.924  39.301   7.381  1.00  0.00    -0.348 N 
ATOM     71  C   UNL     1      32.692  40.103   8.310  1.00  0.00     0.217 C 
ATOM     72  H   UNL     1      32.437  38.932   6.555  1.00  0.00     0.163 HD
ATOM     73  C   UNL     1      34.126  40.392   8.061  1.00  0.00     0.114 C 
ATOM     74  O   UNL     1      32.157  40.574   9.350  1.00  0.00    -0.275 OA
ENDBRANCH   4  70
TORSDOF 30
BEGIN_RES LYS A 131
REMARK  4 active torsions:
REMARK  status: ('A' for Active; 'I' for Inactive)
REMARK    1  A    between atoms: CA   and  CB  
REMARK    2  A    between atoms: CB   and  CG  
REMARK    3  A    between atoms: CG   and  CD  
REMARK    4  A    between atoms: CD   and  CE  
ROOT
ATOM      1  CA  LYS A 131      29.867  25.555  16.977  1.00 20.52     0.186 C 
ENDROOT
BRANCH   1   2
ATOM      2  CB  LYS A 131      28.345  25.722  17.026  1.00 20.94     0.034 C 
BRANCH   2   3
ATOM      3  CG  LYS A 131      27.602  24.399  16.920  1.00 22.96     0.005 C 
BRANCH   3   4
ATOM      4  CD  LYS A 131      26.154  24.531  17.302  1.00 24.33     0.041 C 
BRANCH   4   5
ATOM      5  CE  LYS A 131      25.993  24.252  18.793  1.00 26.91     0.338 C 
ATOM      6  NZ  LYS A 131      25.182  23.030  19.007  1.00 27.40     0.618 N 
ENDBRANCH   4   5
ENDBRANCH   3   4
ENDBRANCH   2   3
ENDBRANCH   1   2
END_RES LYS A 131
BEGIN_RES LYS A 135
REMARK  4 active torsions:
REMARK  status: ('A' for Active; 'I' for Inactive)
REMARK    5  A    between atoms: CA   and  CB  
REMARK    6  A    between atoms: CB   and  CG  
REMARK    7  A    between atoms: CG   and  CD  
REMARK    8  A    between atoms: CD   and  CE  
ROOT
ATOM      7  CA  LYS A 135      33.193  34.663   9.290  1.00 25.02     0.186 C 
ENDROOT
BRANCH   7   8
ATOM      8  CB  LYS A 135      32.060  35.360  10.034  1.00 26.63     0.034 C 
BRANCH   8   9
ATOM      9  CG  LYS A 135      30.837  34.498  10.213  1.00 29.45     0.005 C 
BRANCH   9  10
ATOM     10  CD  LYS A 135      29.944  35.055  11.311  1.00 32.00     0.041 C 
BRANCH  10  11
ATOM     11  CE  LYS A 135      30.720  35.204  12.605  1.00 34.25     0.338 C 
ATOM     12  NZ  LYS A 135      30.365  34.127  13.570  1.00 35.99     0.618 N 
ENDBRANCH  10  11
ENDBRANCH   9  10
ENDBRANCH   8   9
ENDBRANCH   7   8
END_RES LYS A 135
