REMARK VINA RESULT:    -4.683      2.713      6.875
REMARK INTER + INTRA:         -22.471
REMARK INTER:                 -11.434
REMARK INTRA:                 -11.037
REMARK UNBOUND:               -10.943
REMARK SMILES CC(=O)N[C@@H]1[C@@H](O)C[C@](OC[C@H]2O[C@@H](O[C@H]3[C@H](O)[C@@H](O)[C@H](OCCN=[N+]=[N-])O[C@@H]3CO)[C@H](O)[C@@H](O)[C@H]2O)(C(=O)O)O[C@H]1C(O)[C@H](O)CNC(=O)OCc1cn([C@@H]2C[C@H]3CC[C@@H](C2)N3C)nn1
REMARK SMILES IDX 9 1 8 2 6 3 5 4 42 5 41 6 10 7 11 8 12 9 14 10 13 11 32 12
REMARK SMILES IDX 34 13 36 14 15 15 16 16 29 17 28 18 21 19 17 20 19 21 30 22
REMARK SMILES IDX 31 23 22 25 23 26 24 27 25 28 26 29 27 30 18 31 20 33 33 35
REMARK SMILES IDX 35 37 37 39 38 41 39 42 40 43 7 45 43 47 44 48 45 50 46 51
REMARK SMILES IDX 47 53 48 54 49 55 50 57 51 58 52 59 53 60 54 61 66 62 55 63
REMARK SMILES IDX 65 64 56 65 62 66 57 67 61 68 58 69 63 70 60 71 59 72 64 73
REMARK SMILES IDX 4 74 2 75 1 77 3 78
REMARK H PARENT 31 24 18 32 20 34 33 36 35 38 37 40 40 44 7 46 44 49 46 52
REMARK H PARENT 48 56 4 76
REMARK Flexibility Score: inf
ROOT
ATOM      1  C   UNL     1      30.607  34.944  18.270  1.00  0.00     0.272 C 
ATOM      2  C   UNL     1      30.224  36.030  17.347  1.00  0.00     0.113 C 
ATOM      3  C   UNL     1      29.677  35.491  16.033  1.00  0.00     0.145 C 
ATOM      4  C   UNL     1      30.695  34.493  15.431  1.00  0.00     0.142 C 
ATOM      5  C   UNL     1      31.265  33.610  16.468  1.00  0.00     0.178 C 
ATOM      6  O   UNL     1      30.479  33.697  17.598  1.00  0.00    -0.332 OA
ENDROOT
BRANCH   1   7
ATOM      7  O   UNL     1      30.064  34.823  19.499  1.00  0.00    -0.338 OA
BRANCH   7   8
ATOM      8  C   UNL     1      29.074  34.114  19.934  1.00  0.00     0.199 C 
BRANCH   8   9
ATOM      9  C   UNL     1      29.252  33.398  21.264  1.00  0.00     0.179 C 
ATOM     10  C   UNL     1      28.365  31.243  21.575  1.00  0.00     0.282 C 
ATOM     11  O   UNL     1      28.127  32.581  21.445  1.00  0.00    -0.341 OA
ATOM     12  C   UNL     1      29.326  30.896  22.661  1.00  0.00     0.202 C 
ATOM     13  C   UNL     1      30.571  31.688  22.459  1.00  0.00     0.179 C 
ATOM     14  C   UNL     1      30.525  32.614  21.295  1.00  0.00     0.177 C 
BRANCH  10  15
ATOM     15  O   UNL     1      28.612  30.603  20.373  1.00  0.00    -0.341 OA
BRANCH  15  16
ATOM     16  C   UNL     1      27.808  29.508  20.134  1.00  0.00     0.184 C 
ATOM     17  C   UNL     1      28.588  28.310  19.760  1.00  0.00     0.178 C 
ATOM     18  O   UNL     1      27.791  27.164  19.680  1.00  0.00    -0.341 OA
ATOM     19  C   UNL     1      26.425  27.444  19.631  1.00  0.00     0.281 C 
ATOM     20  C   UNL     1      26.937  29.807  18.866  1.00  0.00     0.180 C 
ATOM     21  C   UNL     1      26.070  28.599  18.718  1.00  0.00     0.202 C 
BRANCH  17  22
ATOM     22  C   UNL     1      29.817  28.016  20.548  1.00  0.00     0.191 C 
BRANCH  22  23
ATOM     23  O   UNL     1      30.857  28.859  20.163  1.00  0.00    -0.394 OA
ATOM     24  H   UNL     1      30.620  29.290  19.306  1.00  0.00     0.210 HD
ENDBRANCH  22  23
ENDBRANCH  17  22
BRANCH  19  25
ATOM     25  O   UNL     1      25.860  27.507  20.874  1.00  0.00    -0.350 OA
BRANCH  25  26
ATOM     26  C   UNL     1      24.620  27.015  21.080  1.00  0.00     0.169 C 
BRANCH  26  27
ATOM     27  C   UNL     1      24.188  25.950  20.141  1.00  0.00     0.119 C 
BRANCH  27  28
ATOM     28  N   UNL     1      23.068  26.263  19.324  1.00  0.00    -0.092 NA
ATOM     29  N   UNL     1      23.152  26.590  18.136  1.00  0.00     0.001 N 
ATOM     30  N   UNL     1      22.977  27.323  17.158  1.00  0.00    -0.003 NA
ENDBRANCH  27  28
ENDBRANCH  26  27
ENDBRANCH  25  26
ENDBRANCH  19  25
BRANCH  20  31
ATOM     31  O   UNL     1      26.161  30.922  19.054  1.00  0.00    -0.387 OA
ATOM     32  H   UNL     1      25.543  31.052  18.285  1.00  0.00     0.211 HD
ENDBRANCH  20  31
BRANCH  21  33
ATOM     33  O   UNL     1      26.087  28.140  17.397  1.00  0.00    -0.385 OA
ATOM     34  H   UNL     1      26.256  28.893  16.812  1.00  0.00     0.211 HD
ENDBRANCH  21  33
ENDBRANCH  15  16
ENDBRANCH  10  15
BRANCH  12  35
ATOM     35  O   UNL     1      28.753  31.219  23.909  1.00  0.00    -0.385 OA
ATOM     36  H   UNL     1      28.782  32.208  23.999  1.00  0.00     0.211 HD
ENDBRANCH  12  35
BRANCH  13  37
ATOM     37  O   UNL     1      31.689  30.835  22.301  1.00  0.00    -0.387 OA
ATOM     38  H   UNL     1      31.391  29.901  22.186  1.00  0.00     0.211 HD
ENDBRANCH  13  37
BRANCH  14  39
ATOM     39  O   UNL     1      30.787  31.911  20.112  1.00  0.00    -0.387 OA
ATOM     40  H   UNL     1      31.640  31.413  20.278  1.00  0.00     0.211 HD
ENDBRANCH  14  39
ENDBRANCH   8   9
ENDBRANCH   7   8
ENDBRANCH   1   7
BRANCH   1  41
ATOM     41  C   UNL     1      32.088  35.098  18.549  1.00  0.00     0.364 C 
ATOM     42  O   UNL     1      32.862  35.816  17.895  1.00  0.00    -0.246 OA
BRANCH  41  43
ATOM     43  O   UNL     1      32.665  34.398  19.613  1.00  0.00    -0.477 OA
ATOM     44  H   UNL     1      33.616  34.021  19.526  1.00  0.00     0.296 HD
ENDBRANCH  41  43
ENDBRANCH   1  41
BRANCH   3  45
ATOM     45  O   UNL     1      28.415  34.949  16.122  1.00  0.00    -0.391 OA
ATOM     46  H   UNL     1      27.948  35.372  16.905  1.00  0.00     0.211 HD
ENDBRANCH   3  45
BRANCH   5  47
ATOM     47  C   UNL     1      31.069  32.097  16.081  1.00  0.00     0.176 C 
BRANCH  47  48
ATOM     48  O   UNL     1      30.647  32.182  14.684  1.00  0.00    -0.388 OA
ATOM     49  H   UNL     1      29.771  32.674  14.716  1.00  0.00     0.211 HD
ENDBRANCH  47  48
BRANCH  47  50
ATOM     50  C   UNL     1      29.868  31.495  16.732  1.00  0.00     0.165 C 
BRANCH  50  51
ATOM     51  O   UNL     1      30.239  30.521  17.630  1.00  0.00    -0.388 OA
ATOM     52  H   UNL     1      29.727  30.482  18.454  1.00  0.00     0.211 HD
ENDBRANCH  50  51
BRANCH  50  53
ATOM     53  C   UNL     1      28.763  31.108  15.823  1.00  0.00     0.154 C 
BRANCH  53  54
ATOM     54  N   UNL     1      27.661  32.065  15.914  1.00  0.00    -0.319 N 
ATOM     55  C   UNL     1      26.334  31.663  15.722  1.00  0.00     0.407 C 
ATOM     56  H   UNL     1      27.892  33.047  16.126  1.00  0.00     0.167 HD
ATOM     57  O   UNL     1      26.101  30.444  15.466  1.00  0.00    -0.225 OA
BRANCH  55  58
ATOM     58  O   UNL     1      25.258  32.539  15.800  1.00  0.00    -0.443 OA
BRANCH  58  59
ATOM     59  C   UNL     1      24.631  33.026  14.620  1.00  0.00     0.294 C 
BRANCH  59  60
ATOM     60  C   UNL     1      25.536  34.001  13.938  1.00  0.00     0.120 A 
ATOM     61  C   UNL     1      26.130  33.865  12.700  1.00  0.00     0.138 A 
ATOM     62  N   UNL     1      25.941  35.180  14.400  1.00  0.00    -0.132 NA
ATOM     63  N   UNL     1      26.872  34.951  12.442  1.00  0.00    -0.249 N 
ATOM     64  N   UNL     1      26.730  35.743  13.521  1.00  0.00    -0.067 NA
BRANCH  63  65
ATOM     65  C   UNL     1      27.680  35.286  11.294  1.00  0.00     0.112 C 
ATOM     66  C   UNL     1      27.311  34.526  10.054  1.00  0.00     0.046 C 
ATOM     67  C   UNL     1      27.445  36.770  10.975  1.00  0.00     0.046 C 
ATOM     68  C   UNL     1      25.976  34.980   9.526  1.00  0.00     0.058 C 
ATOM     69  C   UNL     1      25.995  36.986  10.589  1.00  0.00     0.058 C 
ATOM     70  N   UNL     1      25.313  35.703  10.603  1.00  0.00    -0.300 NA
ATOM     71  C   UNL     1      26.114  36.018   8.443  1.00  0.00     0.021 C 
ATOM     72  C   UNL     1      25.903  37.345   9.119  1.00  0.00     0.021 C 
ATOM     73  C   UNL     1      23.926  35.816  10.270  1.00  0.00     0.105 C 
ENDBRANCH  63  65
ENDBRANCH  59  60
ENDBRANCH  58  59
ENDBRANCH  55  58
ENDBRANCH  53  54
ENDBRANCH  50  53
ENDBRANCH  47  50
ENDBRANCH   5  47
BRANCH   4  74
ATOM     74  N   UNL     1      31.667  35.288  14.669  1.00  0.00    -0.348 N 
ATOM     75  C   UNL     1      31.675  35.253  13.223  1.00  0.00     0.217 C 
ATOM     76  H   UNL     1      32.385  35.904  15.095  1.00  0.00     0.163 HD
ATOM     77  C   UNL     1      32.610  36.015  12.391  1.00  0.00     0.114 C 
ATOM     78  O   UNL     1      30.821  34.520  12.682  1.00  0.00    -0.275 OA
ENDBRANCH   4  74
TORSDOF 30
BEGIN_RES LYS A 131
REMARK  4 active torsions:
REMARK  status: ('A' for Active; 'I' for Inactive)
REMARK    1  A    between atoms: CA   and  CB  
REMARK    2  A    between atoms: CB   and  CG  
REMARK    3  A    between atoms: CG   and  CD  
REMARK    4  A    between atoms: CD   and  CE  
ROOT
ATOM      1  CA  LYS A 131      29.867  25.555  16.977  1.00 20.52     0.186 C 
ENDROOT
BRANCH   1   2
ATOM      2  CB  LYS A 131      28.345  25.722  17.026  1.00 20.94     0.034 C 
BRANCH   2   3
ATOM      3  CG  LYS A 131      27.601  24.406  16.863  1.00 22.96     0.005 C 
BRANCH   3   4
ATOM      4  CD  LYS A 131      26.798  24.054  18.084  1.00 24.33     0.041 C 
BRANCH   4   5
ATOM      5  CE  LYS A 131      25.710  23.054  17.708  1.00 26.91     0.338 C 
ATOM      6  NZ  LYS A 131      24.593  23.738  17.015  1.00 27.40     0.618 N 
ENDBRANCH   4   5
ENDBRANCH   3   4
ENDBRANCH   2   3
ENDBRANCH   1   2
END_RES LYS A 131
BEGIN_RES LYS A 135
REMARK  4 active torsions:
REMARK  status: ('A' for Active; 'I' for Inactive)
REMARK    5  A    between atoms: CA   and  CB  
REMARK    6  A    between atoms: CB   and  CG  
REMARK    7  A    between atoms: CG   and  CD  
REMARK    8  A    between atoms: CD   and  CE  
ROOT
ATOM      7  CA  LYS A 135      33.193  34.663   9.290  1.00 25.02     0.186 C 
ENDROOT
BRANCH   7   8
ATOM      8  CB  LYS A 135      32.060  35.360  10.034  1.00 26.63     0.034 C 
BRANCH   8   9
ATOM      9  CG  LYS A 135      30.735  35.286   9.320  1.00 29.45     0.005 C 
BRANCH   9  10
ATOM     10  CD  LYS A 135      30.357  36.644   8.749  1.00 32.00     0.041 C 
BRANCH  10  11
ATOM     11  CE  LYS A 135      30.868  37.759   9.642  1.00 34.25     0.338 C 
ATOM     12  NZ  LYS A 135      30.003  38.967   9.540  1.00 35.99     0.618 N 
ENDBRANCH  10  11
ENDBRANCH   9  10
ENDBRANCH   8   9
ENDBRANCH   7   8
END_RES LYS A 135
