REMARK VINA RESULT:    -3.109      5.368     11.164
REMARK INTER + INTRA:         -22.472
REMARK INTER:                 -10.600
REMARK INTRA:                 -11.872
REMARK UNBOUND:               -13.729
REMARK SMILES CCOC(CCn1cc(COC(=O)NC[C@@H](O)C(O)[C@@H]2O[C@@](OC[C@H]3O[C@@H](O[C@H]4[C@H](O)[C@@H](O)[C@H](OCCN=[N+]=[N-])O[C@@H]4CO)[C@H](O)[C@@H](O)[C@H]3O)(C(=O)O)C[C@H](O)[C@H]2NC(C)=O)nn1)OCC
REMARK SMILES IDX 18 1 20 2 22 3 54 4 21 5 55 6 57 7 23 8 24 9 25 10 27 11
REMARK SMILES IDX 26 12 45 13 47 14 49 15 28 16 29 17 42 18 41 19 34 20 30 21
REMARK SMILES IDX 32 22 43 23 44 24 35 26 36 27 37 28 38 29 39 30 40 31 31 32
REMARK SMILES IDX 33 34 46 36 48 38 50 40 51 42 52 43 53 44 56 46 58 48 59 49
REMARK SMILES IDX 60 51 61 52 19 53 16 55 17 56 15 58 14 59 12 60 13 62 11 63
REMARK SMILES IDX 10 64 9 65 8 66 62 67 7 68 63 69 6 70 5 71 4 72 3 73 2 74
REMARK SMILES IDX 1 75 64 76 65 77 66 78
REMARK H PARENT 44 25 31 33 33 35 46 37 48 39 50 41 53 45 56 47 58 50 19 54
REMARK H PARENT 17 57 14 61
REMARK Flexibility Score: inf
ROOT
ATOM      1  C   UNL     1      29.765  30.915  19.145  1.00  0.00     0.176 C 
ENDROOT
BRANCH   1   2
ATOM      2  C   UNL     1      30.883  30.432  20.021  1.00  0.00     0.178 C 
ATOM      3  C   UNL     1      31.464  28.882  21.638  1.00  0.00     0.272 C 
ATOM      4  C   UNL     1      32.782  29.527  21.398  1.00  0.00     0.113 C 
ATOM      5  O   UNL     1      30.420  29.426  20.856  1.00  0.00    -0.332 OA
ATOM      6  C   UNL     1      32.785  31.016  21.345  1.00  0.00     0.145 C 
ATOM      7  C   UNL     1      31.387  31.525  20.969  1.00  0.00     0.142 C 
BRANCH   3   8
ATOM      8  O   UNL     1      31.021  28.774  22.894  1.00  0.00    -0.338 OA
BRANCH   8   9
ATOM      9  C   UNL     1      29.855  29.315  23.290  1.00  0.00     0.199 C 
BRANCH   9  10
ATOM     10  C   UNL     1      28.999  28.302  24.017  1.00  0.00     0.179 C 
ATOM     11  C   UNL     1      27.447  26.687  23.852  1.00  0.00     0.282 C 
ATOM     12  O   UNL     1      28.595  27.243  23.226  1.00  0.00    -0.341 OA
ATOM     13  C   UNL     1      27.889  25.991  25.085  1.00  0.00     0.202 C 
ATOM     14  C   UNL     1      28.623  26.959  25.982  1.00  0.00     0.179 C 
ATOM     15  C   UNL     1      29.675  27.773  25.278  1.00  0.00     0.177 C 
BRANCH  11  16
ATOM     16  O   UNL     1      26.772  25.887  22.924  1.00  0.00    -0.341 OA
BRANCH  16  17
ATOM     17  C   UNL     1      25.911  26.662  22.214  1.00  0.00     0.184 C 
ATOM     18  C   UNL     1      24.465  26.350  22.257  1.00  0.00     0.178 C 
ATOM     19  O   UNL     1      23.766  27.475  21.798  1.00  0.00    -0.341 OA
ATOM     20  C   UNL     1      24.009  27.677  20.431  1.00  0.00     0.281 C 
ATOM     21  C   UNL     1      26.266  26.620  20.693  1.00  0.00     0.180 C 
ATOM     22  C   UNL     1      25.485  27.812  20.122  1.00  0.00     0.202 C 
BRANCH  18  23
ATOM     23  C   UNL     1      24.007  26.053  23.652  1.00  0.00     0.191 C 
BRANCH  23  24
ATOM     24  O   UNL     1      24.374  27.051  24.555  1.00  0.00    -0.394 OA
ATOM     25  H   UNL     1      23.611  27.457  25.004  1.00  0.00     0.210 HD
ENDBRANCH  23  24
ENDBRANCH  18  23
BRANCH  20  26
ATOM     26  O   UNL     1      23.392  28.868  20.092  1.00  0.00    -0.350 OA
BRANCH  26  27
ATOM     27  C   UNL     1      23.089  29.713  21.117  1.00  0.00     0.169 C 
BRANCH  27  28
ATOM     28  C   UNL     1      23.649  31.085  20.849  1.00  0.00     0.119 C 
BRANCH  28  29
ATOM     29  N   UNL     1      24.401  31.533  22.018  1.00  0.00    -0.092 NA
ATOM     30  N   UNL     1      25.407  30.844  22.284  1.00  0.00     0.001 N 
ATOM     31  N   UNL     1      26.168  30.120  22.930  1.00  0.00    -0.003 NA
ENDBRANCH  28  29
ENDBRANCH  27  28
ENDBRANCH  26  27
ENDBRANCH  20  26
BRANCH  21  32
ATOM     32  O   UNL     1      27.611  26.781  20.492  1.00  0.00    -0.387 OA
ATOM     33  H   UNL     1      27.873  27.725  20.360  1.00  0.00     0.211 HD
ENDBRANCH  21  32
BRANCH  22  34
ATOM     34  O   UNL     1      25.655  27.914  18.768  1.00  0.00    -0.385 OA
ATOM     35  H   UNL     1      26.639  27.792  18.586  1.00  0.00     0.211 HD
ENDBRANCH  22  34
ENDBRANCH  16  17
ENDBRANCH  11  16
BRANCH  13  36
ATOM     36  O   UNL     1      26.795  25.532  25.835  1.00  0.00    -0.385 OA
ATOM     37  H   UNL     1      27.062  25.267  26.743  1.00  0.00     0.211 HD
ENDBRANCH  13  36
BRANCH  14  38
ATOM     38  O   UNL     1      29.110  26.339  27.128  1.00  0.00    -0.387 OA
ATOM     39  H   UNL     1      28.394  25.829  27.595  1.00  0.00     0.211 HD
ENDBRANCH  14  38
BRANCH  15  40
ATOM     40  O   UNL     1      30.784  27.019  24.923  1.00  0.00    -0.387 OA
ATOM     41  H   UNL     1      31.213  26.626  25.716  1.00  0.00     0.211 HD
ENDBRANCH  15  40
ENDBRANCH   9  10
ENDBRANCH   8   9
ENDBRANCH   3   8
BRANCH   3  42
ATOM     42  C   UNL     1      31.580  27.484  21.111  1.00  0.00     0.364 C 
ATOM     43  O   UNL     1      31.334  26.493  21.823  1.00  0.00    -0.246 OA
BRANCH  42  44
ATOM     44  O   UNL     1      31.968  27.236  19.798  1.00  0.00    -0.477 OA
ATOM     45  H   UNL     1      32.369  26.330  19.579  1.00  0.00     0.296 HD
ENDBRANCH  42  44
ENDBRANCH   3  42
BRANCH   6  46
ATOM     46  O   UNL     1      33.245  31.636  22.480  1.00  0.00    -0.391 OA
ATOM     47  H   UNL     1      34.227  31.745  22.515  1.00  0.00     0.211 HD
ENDBRANCH   6  46
BRANCH   7  48
ATOM     48  N   UNL     1      31.421  32.821  20.375  1.00  0.00    -0.348 N 
ATOM     49  C   UNL     1      31.193  33.951  21.210  1.00  0.00     0.217 C 
ATOM     50  H   UNL     1      31.606  32.983  19.366  1.00  0.00     0.163 HD
ATOM     51  C   UNL     1      31.220  35.315  20.621  1.00  0.00     0.114 C 
ATOM     52  O   UNL     1      30.963  33.816  22.459  1.00  0.00    -0.275 OA
ENDBRANCH   7  48
ENDBRANCH   1   2
BRANCH   1  53
ATOM     53  O   UNL     1      30.112  30.567  17.827  1.00  0.00    -0.388 OA
ATOM     54  H   UNL     1      29.675  29.704  17.569  1.00  0.00     0.211 HD
ENDBRANCH   1  53
BRANCH   1  55
ATOM     55  C   UNL     1      28.523  30.119  19.494  1.00  0.00     0.165 C 
BRANCH  55  56
ATOM     56  O   UNL     1      28.492  28.931  18.824  1.00  0.00    -0.388 OA
ATOM     57  H   UNL     1      27.970  28.944  17.983  1.00  0.00     0.211 HD
ENDBRANCH  55  56
BRANCH  55  58
ATOM     58  C   UNL     1      27.287  30.925  19.206  1.00  0.00     0.154 C 
BRANCH  58  59
ATOM     59  N   UNL     1      27.239  31.549  17.916  1.00  0.00    -0.319 N 
ATOM     60  C   UNL     1      26.851  30.917  16.724  1.00  0.00     0.407 C 
ATOM     61  H   UNL     1      27.526  32.576  17.892  1.00  0.00     0.167 HD
ATOM     62  O   UNL     1      26.496  29.727  16.670  1.00  0.00    -0.225 OA
BRANCH  60  63
ATOM     63  O   UNL     1      26.850  31.629  15.504  1.00  0.00    -0.443 OA
BRANCH  63  64
ATOM     64  C   UNL     1      27.293  32.995  15.498  1.00  0.00     0.294 C 
BRANCH  64  65
ATOM     65  C   UNL     1      28.774  33.009  15.614  1.00  0.00     0.120 A 
ATOM     66  C   UNL     1      29.557  33.966  16.214  1.00  0.00     0.138 A 
ATOM     67  N   UNL     1      29.607  32.081  15.136  1.00  0.00    -0.132 NA
ATOM     68  N   UNL     1      30.839  33.570  16.071  1.00  0.00    -0.252 N 
ATOM     69  N   UNL     1      30.833  32.424  15.414  1.00  0.00    -0.067 NA
BRANCH  68  70
ATOM     70  C   UNL     1      31.967  34.302  16.566  1.00  0.00     0.151 C 
BRANCH  70  71
ATOM     71  C   UNL     1      32.929  34.767  15.511  1.00  0.00     0.086 C 
BRANCH  71  72
ATOM     72  C   UNL     1      32.635  36.229  15.178  1.00  0.00     0.251 C 
BRANCH  72  73
ATOM     73  O   UNL     1      31.756  36.684  16.142  1.00  0.00    -0.353 OA
BRANCH  73  74
ATOM     74  C   UNL     1      31.895  38.044  16.387  1.00  0.00     0.160 C 
ATOM     75  C   UNL     1      30.606  38.650  16.907  1.00  0.00     0.035 C 
ENDBRANCH  73  74
ENDBRANCH  72  73
BRANCH  72  76
ATOM     76  O   UNL     1      32.242  36.395  13.883  1.00  0.00    -0.353 OA
BRANCH  76  77
ATOM     77  C   UNL     1      32.084  35.268  13.124  1.00  0.00     0.160 C 
ATOM     78  C   UNL     1      30.622  35.098  12.784  1.00  0.00     0.035 C 
ENDBRANCH  76  77
ENDBRANCH  72  76
ENDBRANCH  71  72
ENDBRANCH  70  71
ENDBRANCH  68  70
ENDBRANCH  64  65
ENDBRANCH  63  64
ENDBRANCH  60  63
ENDBRANCH  58  59
ENDBRANCH  55  58
ENDBRANCH   1  55
TORSDOF 36
BEGIN_RES LYS A 131
REMARK  4 active torsions:
REMARK  status: ('A' for Active; 'I' for Inactive)
REMARK    1  A    between atoms: CA   and  CB  
REMARK    2  A    between atoms: CB   and  CG  
REMARK    3  A    between atoms: CG   and  CD  
REMARK    4  A    between atoms: CD   and  CE  
ROOT
ATOM      1  CA  LYS A 131      29.867  25.555  16.977  1.00 20.52     0.186 C 
ENDROOT
BRANCH   1   2
ATOM      2  CB  LYS A 131      28.345  25.722  17.026  1.00 20.94     0.034 C 
BRANCH   2   3
ATOM      3  CG  LYS A 131      27.600  24.411  16.829  1.00 22.96     0.005 C 
BRANCH   3   4
ATOM      4  CD  LYS A 131      26.852  23.994  18.065  1.00 24.33     0.041 C 
BRANCH   4   5
ATOM      5  CE  LYS A 131      25.410  24.484  17.977  1.00 26.91     0.338 C 
ATOM      6  NZ  LYS A 131      24.643  23.669  17.006  1.00 27.40     0.618 N 
ENDBRANCH   4   5
ENDBRANCH   3   4
ENDBRANCH   2   3
ENDBRANCH   1   2
END_RES LYS A 131
BEGIN_RES LYS A 135
REMARK  4 active torsions:
REMARK  status: ('A' for Active; 'I' for Inactive)
REMARK    5  A    between atoms: CA   and  CB  
REMARK    6  A    between atoms: CB   and  CG  
REMARK    7  A    between atoms: CG   and  CD  
REMARK    8  A    between atoms: CD   and  CE  
ROOT
ATOM      7  CA  LYS A 135      33.193  34.663   9.290  1.00 25.02     0.186 C 
ENDROOT
BRANCH   7   8
ATOM      8  CB  LYS A 135      32.060  35.360  10.034  1.00 26.63     0.034 C 
BRANCH   8   9
ATOM      9  CG  LYS A 135      30.874  35.681   9.162  1.00 29.45     0.005 C 
BRANCH   9  10
ATOM     10  CD  LYS A 135      30.353  34.425   8.481  1.00 32.00     0.041 C 
BRANCH  10  11
ATOM     11  CE  LYS A 135      28.838  34.453   8.398  1.00 34.25     0.338 C 
ATOM     12  NZ  LYS A 135      28.224  33.788   9.581  1.00 35.99     0.618 N 
ENDBRANCH  10  11
ENDBRANCH   9  10
ENDBRANCH   8   9
ENDBRANCH   7   8
END_RES LYS A 135
