REMARK VINA RESULT:    -3.513      1.665      2.108
REMARK INTER + INTRA:         -23.145
REMARK INTER:                 -11.076
REMARK INTRA:                 -12.068
REMARK UNBOUND:               -13.881
REMARK SMILES CCOC(=O)c1cccc(-n2cc(COC(=O)NC[C@@H](O)C(O)[C@@H]3O[C@@](OC[C@H]4O[C@@H](O[C@H]5[C@H](O)[C@@H](O)[C@H](OCCN=[N+]=[N-])O[C@@H]5CO)[C@H](O)[C@@H](O)[C@H]4O)(C(=O)O)C[C@H](O)[C@H]3NC(C)=O)nn2)c1
REMARK SMILES IDX 22 1 24 2 26 3 58 4 25 5 59 6 61 7 27 8 28 9 29 10 31 11
REMARK SMILES IDX 30 12 49 13 51 14 53 15 32 16 33 17 46 18 45 19 38 20 34 21
REMARK SMILES IDX 36 22 47 23 48 24 39 26 40 27 41 28 42 29 43 30 44 31 35 32
REMARK SMILES IDX 37 34 50 36 52 38 54 40 55 42 56 43 57 44 60 46 62 48 63 49
REMARK SMILES IDX 64 51 65 52 23 53 20 55 21 56 19 58 18 59 16 60 17 62 15 63
REMARK SMILES IDX 14 64 13 65 12 66 66 67 11 68 67 69 10 70 68 71 9 72 6 73
REMARK SMILES IDX 8 74 7 75 4 76 5 77 3 78 2 79 1 80
REMARK H PARENT 48 25 35 33 37 35 50 37 52 39 54 41 57 45 60 47 62 50 23 54
REMARK H PARENT 21 57 18 61
REMARK Flexibility Score: inf
ROOT
ATOM      1  C   UNL     1      29.268  36.655  15.079  1.00  0.00     0.176 C 
ENDROOT
BRANCH   1   2
ATOM      2  C   UNL     1      30.344  35.680  14.844  1.00  0.00     0.178 C 
ATOM      3  C   UNL     1      30.880  33.535  15.681  1.00  0.00     0.272 C 
ATOM      4  C   UNL     1      31.978  33.754  14.690  1.00  0.00     0.113 C 
ATOM      5  O   UNL     1      30.449  34.878  15.982  1.00  0.00    -0.332 OA
ATOM      6  C   UNL     1      32.710  35.073  14.879  1.00  0.00     0.145 C 
ATOM      7  C   UNL     1      31.697  36.213  14.527  1.00  0.00     0.142 C 
BRANCH   3   8
ATOM      8  O   UNL     1      31.380  33.054  16.850  1.00  0.00    -0.338 OA
BRANCH   8   9
ATOM      9  C   UNL     1      30.978  33.350  18.061  1.00  0.00     0.199 C 
BRANCH   9  10
ATOM     10  C   UNL     1      30.010  32.623  18.892  1.00  0.00     0.179 C 
ATOM     11  C   UNL     1      27.873  31.670  18.913  1.00  0.00     0.282 C 
ATOM     12  O   UNL     1      28.750  32.660  18.412  1.00  0.00    -0.341 OA
ATOM     13  C   UNL     1      28.416  31.041  20.159  1.00  0.00     0.202 C 
ATOM     14  C   UNL     1      29.786  30.468  19.990  1.00  0.00     0.179 C 
ATOM     15  C   UNL     1      30.470  31.130  18.844  1.00  0.00     0.177 C 
BRANCH  11  16
ATOM     16  O   UNL     1      27.640  30.834  17.861  1.00  0.00    -0.341 OA
BRANCH  16  17
ATOM     17  C   UNL     1      26.410  30.794  17.300  1.00  0.00     0.184 C 
ATOM     18  C   UNL     1      26.156  29.397  16.801  1.00  0.00     0.178 C 
ATOM     19  O   UNL     1      24.878  29.275  16.255  1.00  0.00    -0.341 OA
ATOM     20  C   UNL     1      24.854  30.031  15.050  1.00  0.00     0.281 C 
ATOM     21  C   UNL     1      26.285  31.725  16.081  1.00  0.00     0.180 C 
ATOM     22  C   UNL     1      24.902  31.469  15.487  1.00  0.00     0.202 C 
BRANCH  18  23
ATOM     23  C   UNL     1      26.294  28.392  17.908  1.00  0.00     0.191 C 
BRANCH  23  24
ATOM     24  O   UNL     1      27.661  28.071  18.112  1.00  0.00    -0.394 OA
ATOM     25  H   UNL     1      28.001  28.523  18.926  1.00  0.00     0.210 HD
ENDBRANCH  23  24
ENDBRANCH  18  23
BRANCH  20  26
ATOM     26  O   UNL     1      23.728  29.684  14.361  1.00  0.00    -0.350 OA
BRANCH  26  27
ATOM     27  C   UNL     1      22.580  29.783  15.135  1.00  0.00     0.169 C 
BRANCH  27  28
ATOM     28  C   UNL     1      21.654  28.612  14.989  1.00  0.00     0.119 C 
BRANCH  28  29
ATOM     29  N   UNL     1      22.450  27.382  14.897  1.00  0.00    -0.092 NA
ATOM     30  N   UNL     1      21.957  26.346  15.363  1.00  0.00     0.001 N 
ATOM     31  N   UNL     1      21.506  25.199  15.558  1.00  0.00    -0.003 NA
ENDBRANCH  28  29
ENDBRANCH  27  28
ENDBRANCH  26  27
ENDBRANCH  20  26
BRANCH  21  32
ATOM     32  O   UNL     1      26.276  33.057  16.467  1.00  0.00    -0.387 OA
ATOM     33  H   UNL     1      25.333  33.326  16.573  1.00  0.00     0.211 HD
ENDBRANCH  21  32
BRANCH  22  34
ATOM     34  O   UNL     1      24.643  32.346  14.439  1.00  0.00    -0.385 OA
ATOM     35  H   UNL     1      25.344  33.058  14.340  1.00  0.00     0.211 HD
ENDBRANCH  22  34
ENDBRANCH  16  17
ENDBRANCH  11  16
BRANCH  13  36
ATOM     36  O   UNL     1      28.351  31.976  21.210  1.00  0.00    -0.385 OA
ATOM     37  H   UNL     1      27.997  31.582  22.039  1.00  0.00     0.211 HD
ENDBRANCH  13  36
BRANCH  14  38
ATOM     38  O   UNL     1      29.815  29.092  19.986  1.00  0.00    -0.387 OA
ATOM     39  H   UNL     1      29.512  28.796  19.086  1.00  0.00     0.211 HD
ENDBRANCH  14  38
BRANCH  15  40
ATOM     40  O   UNL     1      30.194  30.551  17.646  1.00  0.00    -0.387 OA
ATOM     41  H   UNL     1      29.226  30.624  17.455  1.00  0.00     0.211 HD
ENDBRANCH  15  40
ENDBRANCH   9  10
ENDBRANCH   8   9
ENDBRANCH   3   8
BRANCH   3  42
ATOM     42  C   UNL     1      29.711  32.816  15.196  1.00  0.00     0.364 C 
ATOM     43  O   UNL     1      29.644  31.577  15.187  1.00  0.00    -0.246 OA
BRANCH  42  44
ATOM     44  O   UNL     1      28.602  33.512  14.714  1.00  0.00    -0.477 OA
ATOM     45  H   UNL     1      27.912  33.112  14.113  1.00  0.00     0.296 HD
ENDBRANCH  42  44
ENDBRANCH   3  42
BRANCH   6  46
ATOM     46  O   UNL     1      33.000  35.224  16.212  1.00  0.00    -0.391 OA
ATOM     47  H   UNL     1      33.936  34.955  16.377  1.00  0.00     0.211 HD
ENDBRANCH   6  46
BRANCH   7  48
ATOM     48  N   UNL     1      31.890  36.492  13.124  1.00  0.00    -0.348 N 
ATOM     49  C   UNL     1      31.603  37.757  12.515  1.00  0.00     0.217 C 
ATOM     50  H   UNL     1      32.267  35.758  12.451  1.00  0.00     0.163 HD
ATOM     51  C   UNL     1      31.814  38.009  11.064  1.00  0.00     0.114 C 
ATOM     52  O   UNL     1      31.160  38.692  13.212  1.00  0.00    -0.275 OA
ENDBRANCH   7  48
ENDBRANCH   1   2
BRANCH   1  53
ATOM     53  O   UNL     1      28.297  36.740  14.118  1.00  0.00    -0.388 OA
ATOM     54  H   UNL     1      27.821  37.603  14.130  1.00  0.00     0.211 HD
ENDBRANCH   1  53
BRANCH   1  55
ATOM     55  C   UNL     1      28.676  36.698  16.464  1.00  0.00     0.165 C 
BRANCH  55  56
ATOM     56  O   UNL     1      28.055  35.483  16.772  1.00  0.00    -0.388 OA
ATOM     57  H   UNL     1      28.677  34.729  16.604  1.00  0.00     0.211 HD
ENDBRANCH  55  56
BRANCH  55  58
ATOM     58  C   UNL     1      27.860  37.919  16.763  1.00  0.00     0.154 C 
BRANCH  58  59
ATOM     59  N   UNL     1      26.505  37.804  16.273  1.00  0.00    -0.319 N 
ATOM     60  C   UNL     1      25.442  37.434  17.126  1.00  0.00     0.407 C 
ATOM     61  H   UNL     1      26.283  38.001  15.248  1.00  0.00     0.167 HD
ATOM     62  O   UNL     1      25.549  37.183  18.347  1.00  0.00    -0.225 OA
BRANCH  60  63
ATOM     63  O   UNL     1      24.134  37.313  16.615  1.00  0.00    -0.443 OA
BRANCH  63  64
ATOM     64  C   UNL     1      23.688  36.268  15.807  1.00  0.00     0.294 C 
BRANCH  64  65
ATOM     65  C   UNL     1      24.554  35.912  14.676  1.00  0.00     0.121 A 
ATOM     66  C   UNL     1      24.420  36.361  13.366  1.00  0.00     0.144 A 
ATOM     67  N   UNL     1      25.612  35.109  14.685  1.00  0.00    -0.131 NA
ATOM     68  N   UNL     1      25.397  35.808  12.649  1.00  0.00    -0.220 N 
ATOM     69  N   UNL     1      26.114  35.055  13.452  1.00  0.00    -0.062 NA
BRANCH  68  70
ATOM     70  C   UNL     1      25.620  36.007  11.270  1.00  0.00     0.067 A 
ATOM     71  C   UNL     1      26.288  37.133  10.793  1.00  0.00     0.044 A 
ATOM     72  C   UNL     1      25.203  35.101  10.332  1.00  0.00     0.028 A 
ATOM     73  C   UNL     1      26.537  37.364   9.467  1.00  0.00     0.062 A 
ATOM     74  C   UNL     1      25.437  35.298   8.979  1.00  0.00     0.003 A 
ATOM     75  C   UNL     1      26.099  36.422   8.543  1.00  0.00     0.016 A 
BRANCH  73  76
ATOM     76  C   UNL     1      27.235  38.558   9.039  1.00  0.00     0.338 C 
ATOM     77  O   UNL     1      26.671  39.354   8.264  1.00  0.00    -0.246 OA
BRANCH  76  78
ATOM     78  O   UNL     1      28.506  38.811   9.487  1.00  0.00    -0.462 OA
BRANCH  78  79
ATOM     79  C   UNL     1      28.930  40.050  10.007  1.00  0.00     0.230 C 
ATOM     80  C   UNL     1      28.479  40.188  11.445  1.00  0.00     0.049 C 
ENDBRANCH  78  79
ENDBRANCH  76  78
ENDBRANCH  73  76
ENDBRANCH  68  70
ENDBRANCH  64  65
ENDBRANCH  63  64
ENDBRANCH  60  63
ENDBRANCH  58  59
ENDBRANCH  55  58
ENDBRANCH   1  55
TORSDOF 33
BEGIN_RES LYS A 131
REMARK  4 active torsions:
REMARK  status: ('A' for Active; 'I' for Inactive)
REMARK    1  A    between atoms: CA   and  CB  
REMARK    2  A    between atoms: CB   and  CG  
REMARK    3  A    between atoms: CG   and  CD  
REMARK    4  A    between atoms: CD   and  CE  
ROOT
ATOM      1  CA  LYS A 131      29.867  25.555  16.977  1.00 20.52     0.186 C 
ENDROOT
BRANCH   1   2
ATOM      2  CB  LYS A 131      28.345  25.722  17.026  1.00 20.94     0.034 C 
BRANCH   2   3
ATOM      3  CG  LYS A 131      27.601  24.402  16.889  1.00 22.96     0.005 C 
BRANCH   3   4
ATOM      4  CD  LYS A 131      26.374  24.351  17.757  1.00 24.33     0.041 C 
BRANCH   4   5
ATOM      5  CE  LYS A 131      25.658  23.021  17.547  1.00 26.91     0.338 C 
ATOM      6  NZ  LYS A 131      24.256  23.247  17.125  1.00 27.40     0.618 N 
ENDBRANCH   4   5
ENDBRANCH   3   4
ENDBRANCH   2   3
ENDBRANCH   1   2
END_RES LYS A 131
BEGIN_RES LYS A 135
REMARK  4 active torsions:
REMARK  status: ('A' for Active; 'I' for Inactive)
REMARK    5  A    between atoms: CA   and  CB  
REMARK    6  A    between atoms: CB   and  CG  
REMARK    7  A    between atoms: CG   and  CD  
REMARK    8  A    between atoms: CD   and  CE  
ROOT
ATOM      7  CA  LYS A 135      33.193  34.663   9.290  1.00 25.02     0.186 C 
ENDROOT
BRANCH   7   8
ATOM      8  CB  LYS A 135      32.060  35.360  10.034  1.00 26.63     0.034 C 
BRANCH   8   9
ATOM      9  CG  LYS A 135      30.715  34.714   9.825  1.00 29.45     0.005 C 
BRANCH   9  10
ATOM     10  CD  LYS A 135      30.400  34.598   8.341  1.00 32.00     0.041 C 
BRANCH  10  11
ATOM     11  CE  LYS A 135      29.513  35.744   7.893  1.00 34.25     0.338 C 
ATOM     12  NZ  LYS A 135      28.970  35.500   6.528  1.00 35.99     0.618 N 
ENDBRANCH  10  11
ENDBRANCH   9  10
ENDBRANCH   8   9
ENDBRANCH   7   8
END_RES LYS A 135
