REMARK VINA RESULT:    -3.616      4.928      9.823
REMARK INTER + INTRA:         -22.636
REMARK INTER:                 -11.524
REMARK INTRA:                 -11.112
REMARK UNBOUND:               -13.100
REMARK SMILES CC(=O)N[C@@H]1[C@@H](O)C[C@](OC[C@H]2O[C@@H](O[C@H]3[C@H](O)[C@@H](O)[C@H](OCCN=[N+]=[N-])O[C@@H]3CO)[C@H](O)[C@@H](O)[C@H]2O)(C(=O)O)O[C@H]1C(O)[C@H](O)CNC(=O)OCc1cn(CCNS(C)(=O)=O)nn1
REMARK SMILES IDX 43 1 42 2 9 3 8 4 41 5 6 6 5 7 10 8 11 9 12 10 14 11 13 12
REMARK SMILES IDX 32 13 34 14 36 15 15 16 16 17 29 18 28 19 21 20 17 21 19 22
REMARK SMILES IDX 30 23 31 24 22 26 23 27 24 28 25 29 26 30 27 31 18 32 20 34
REMARK SMILES IDX 33 36 35 38 37 40 38 42 39 43 40 44 7 46 4 48 2 49 1 51 3 52
REMARK SMILES IDX 44 53 45 55 46 56 47 58 48 59 49 60 50 62 51 63 52 64 53 65
REMARK SMILES IDX 54 66 64 67 55 68 63 69 56 70 57 71 58 72 59 74 61 75 62 76
REMARK SMILES IDX 60 77
REMARK H PARENT 31 25 18 33 20 35 33 37 35 39 37 41 40 45 7 47 4 50 44 54
REMARK H PARENT 46 57 48 61 58 73
REMARK Flexibility Score: inf
ROOT
ATOM      1  C   UNL     1      29.441  34.661  14.868  1.00  0.00     0.176 C 
ENDROOT
BRANCH   1   2
ATOM      2  C   UNL     1      29.318  36.163  14.549  1.00  0.00     0.178 C 
ATOM      3  C   UNL     1      28.861  37.483  12.670  1.00  0.00     0.272 C 
ATOM      4  C   UNL     1      30.177  38.153  12.660  1.00  0.00     0.113 C 
ATOM      5  O   UNL     1      28.917  36.226  13.258  1.00  0.00    -0.332 OA
ATOM      6  C   UNL     1      31.152  37.683  13.703  1.00  0.00     0.145 C 
ATOM      7  C   UNL     1      30.604  36.845  14.806  1.00  0.00     0.142 C 
BRANCH   3   8
ATOM      8  O   UNL     1      28.282  37.247  11.420  1.00  0.00    -0.338 OA
BRANCH   8   9
ATOM      9  C   UNL     1      28.585  38.232  10.495  1.00  0.00     0.199 C 
BRANCH   9  10
ATOM     10  C   UNL     1      28.322  37.743   9.113  1.00  0.00     0.179 C 
ATOM     11  C   UNL     1      26.716  37.115   7.582  1.00  0.00     0.282 C 
ATOM     12  O   UNL     1      26.977  37.784   8.790  1.00  0.00    -0.341 OA
ATOM     13  C   UNL     1      27.399  37.769   6.432  1.00  0.00     0.202 C 
ATOM     14  C   UNL     1      28.889  37.683   6.687  1.00  0.00     0.179 C 
ATOM     15  C   UNL     1      29.213  38.249   8.029  1.00  0.00     0.177 C 
BRANCH  11  16
ATOM     16  O   UNL     1      25.362  37.087   7.430  1.00  0.00    -0.341 OA
BRANCH  16  17
ATOM     17  C   UNL     1      24.623  37.322   8.539  1.00  0.00     0.184 C 
ATOM     18  C   UNL     1      23.880  36.226   9.193  1.00  0.00     0.178 C 
ATOM     19  O   UNL     1      22.804  36.779   9.890  1.00  0.00    -0.341 OA
ATOM     20  C   UNL     1      21.789  37.161   9.062  1.00  0.00     0.281 C 
ATOM     21  C   UNL     1      23.644  38.508   8.319  1.00  0.00     0.180 C 
ATOM     22  C   UNL     1      22.372  37.841   7.840  1.00  0.00     0.202 C 
BRANCH  18  23
ATOM     23  C   UNL     1      24.734  35.572  10.274  1.00  0.00     0.191 C 
BRANCH  23  24
ATOM     24  O   UNL     1      25.452  36.566  10.978  1.00  0.00    -0.394 OA
ATOM     25  H   UNL     1      25.660  36.284  11.895  1.00  0.00     0.210 HD
ENDBRANCH  23  24
ENDBRANCH  18  23
BRANCH  20  26
ATOM     26  O   UNL     1      20.874  37.998   9.718  1.00  0.00    -0.350 OA
BRANCH  26  27
ATOM     27  C   UNL     1      19.922  38.551   8.900  1.00  0.00     0.169 C 
BRANCH  27  28
ATOM     28  C   UNL     1      18.655  37.771   9.052  1.00  0.00     0.119 C 
BRANCH  28  29
ATOM     29  N   UNL     1      18.342  36.994   7.859  1.00  0.00    -0.092 NA
ATOM     30  N   UNL     1      18.875  35.871   7.812  1.00  0.00     0.001 N 
ATOM     31  N   UNL     1      19.295  34.776   7.459  1.00  0.00    -0.003 NA
ENDBRANCH  28  29
ENDBRANCH  27  28
ENDBRANCH  26  27
ENDBRANCH  20  26
BRANCH  21  32
ATOM     32  O   UNL     1      23.366  39.121   9.544  1.00  0.00    -0.387 OA
ATOM     33  H   UNL     1      22.772  38.526  10.074  1.00  0.00     0.211 HD
ENDBRANCH  21  32
BRANCH  22  34
ATOM     34  O   UNL     1      22.554  36.976   6.785  1.00  0.00    -0.385 OA
ATOM     35  H   UNL     1      22.540  36.018   7.038  1.00  0.00     0.211 HD
ENDBRANCH  22  34
ENDBRANCH  16  17
ENDBRANCH  11  16
BRANCH  13  36
ATOM     36  O   UNL     1      27.190  37.049   5.246  1.00  0.00    -0.385 OA
ATOM     37  H   UNL     1      26.234  37.030   4.987  1.00  0.00     0.211 HD
ENDBRANCH  13  36
BRANCH  14  38
ATOM     38  O   UNL     1      29.628  38.197   5.650  1.00  0.00    -0.387 OA
ATOM     39  H   UNL     1      29.048  38.498   4.882  1.00  0.00     0.211 HD
ENDBRANCH  14  38
BRANCH  15  40
ATOM     40  O   UNL     1      29.091  39.634   7.969  1.00  0.00    -0.387 OA
ATOM     41  H   UNL     1      28.595  40.014   8.739  1.00  0.00     0.211 HD
ENDBRANCH  15  40
ENDBRANCH   9  10
ENDBRANCH   8   9
ENDBRANCH   3   8
BRANCH   3  42
ATOM     42  C   UNL     1      27.852  38.297  13.390  1.00  0.00     0.364 C 
ATOM     43  O   UNL     1      26.608  38.020  13.346  1.00  0.00    -0.246 OA
BRANCH  42  44
ATOM     44  O   UNL     1      28.151  39.405  14.157  1.00  0.00    -0.477 OA
ATOM     45  H   UNL     1      29.092  39.777  14.260  1.00  0.00     0.296 HD
ENDBRANCH  42  44
ENDBRANCH   3  42
BRANCH   6  46
ATOM     46  O   UNL     1      32.236  37.040  13.122  1.00  0.00    -0.391 OA
ATOM     47  H   UNL     1      32.279  37.081  12.145  1.00  0.00     0.211 HD
ENDBRANCH   6  46
BRANCH   7  48
ATOM     48  N   UNL     1      30.481  37.699  15.999  1.00  0.00    -0.348 N 
ATOM     49  C   UNL     1      30.778  37.328  17.314  1.00  0.00     0.217 C 
ATOM     50  H   UNL     1      30.164  38.723  15.863  1.00  0.00     0.163 HD
ATOM     51  C   UNL     1      30.597  38.290  18.457  1.00  0.00     0.114 C 
ATOM     52  O   UNL     1      31.204  36.177  17.602  1.00  0.00    -0.275 OA
ENDBRANCH   7  48
ENDBRANCH   1   2
BRANCH   1  53
ATOM     53  O   UNL     1      28.420  33.976  14.186  1.00  0.00    -0.388 OA
ATOM     54  H   UNL     1      27.636  33.983  14.763  1.00  0.00     0.211 HD
ENDBRANCH   1  53
BRANCH   1  55
ATOM     55  C   UNL     1      30.749  34.142  14.397  1.00  0.00     0.165 C 
BRANCH  55  56
ATOM     56  O   UNL     1      30.940  34.128  13.037  1.00  0.00    -0.388 OA
ATOM     57  H   UNL     1      30.434  34.836  12.558  1.00  0.00     0.211 HD
ENDBRANCH  55  56
BRANCH  55  58
ATOM     58  C   UNL     1      31.204  32.862  15.026  1.00  0.00     0.154 C 
BRANCH  58  59
ATOM     59  N   UNL     1      30.145  31.891  15.111  1.00  0.00    -0.319 N 
ATOM     60  C   UNL     1      29.863  31.320  16.410  1.00  0.00     0.407 C 
ATOM     61  H   UNL     1      29.577  31.575  14.309  1.00  0.00     0.167 HD
ATOM     62  O   UNL     1      30.555  31.740  17.372  1.00  0.00    -0.225 OA
BRANCH  60  63
ATOM     63  O   UNL     1      28.887  30.370  16.565  1.00  0.00    -0.443 OA
BRANCH  63  64
ATOM     64  C   UNL     1      27.750  30.639  17.350  1.00  0.00     0.294 C 
BRANCH  64  65
ATOM     65  C   UNL     1      26.881  31.636  16.699  1.00  0.00     0.120 A 
ATOM     66  C   UNL     1      26.048  32.557  17.314  1.00  0.00     0.138 A 
ATOM     67  N   UNL     1      26.758  31.865  15.399  1.00  0.00    -0.132 NA
ATOM     68  N   UNL     1      25.453  33.309  16.387  1.00  0.00    -0.251 N 
ATOM     69  N   UNL     1      25.897  32.873  15.207  1.00  0.00    -0.067 NA
BRANCH  68  70
ATOM     70  C   UNL     1      24.501  34.382  16.621  1.00  0.00     0.162 C 
BRANCH  70  71
ATOM     71  C   UNL     1      24.818  35.561  15.702  1.00  0.00     0.122 C 
BRANCH  71  72
ATOM     72  N   UNL     1      26.209  35.904  15.775  1.00  0.00    -0.214 NA
ATOM     73  H   UNL     1      26.468  36.467  14.920  1.00  0.00     0.141 HD
BRANCH  72  74
ATOM     74  S   UNL     1      26.591  36.872  17.144  1.00  0.00     0.208 S 
ATOM     75  O   UNL     1      27.414  38.076  16.715  1.00  0.00    -0.213 OA
ATOM     76  O   UNL     1      25.267  37.369  17.694  1.00  0.00    -0.213 OA
ATOM     77  C   UNL     1      27.445  35.932  18.371  1.00  0.00     0.176 C 
ENDBRANCH  72  74
ENDBRANCH  71  72
ENDBRANCH  70  71
ENDBRANCH  68  70
ENDBRANCH  64  65
ENDBRANCH  63  64
ENDBRANCH  60  63
ENDBRANCH  58  59
ENDBRANCH  55  58
ENDBRANCH   1  55
TORSDOF 33
BEGIN_RES LYS A 131
REMARK  4 active torsions:
REMARK  status: ('A' for Active; 'I' for Inactive)
REMARK    1  A    between atoms: CA   and  CB  
REMARK    2  A    between atoms: CB   and  CG  
REMARK    3  A    between atoms: CG   and  CD  
REMARK    4  A    between atoms: CD   and  CE  
ROOT
ATOM      1  CA  LYS A 131      29.867  25.555  16.977  1.00 20.52     0.186 C 
ENDROOT
BRANCH   1   2
ATOM      2  CB  LYS A 131      28.345  25.722  17.026  1.00 20.94     0.034 C 
BRANCH   2   3
ATOM      3  CG  LYS A 131      27.601  24.401  16.903  1.00 22.96     0.005 C 
BRANCH   3   4
ATOM      4  CD  LYS A 131      26.277  24.428  17.616  1.00 24.33     0.041 C 
BRANCH   4   5
ATOM      5  CE  LYS A 131      26.068  25.799  18.249  1.00 26.91     0.338 C 
ATOM      6  NZ  LYS A 131      25.825  25.666  19.705  1.00 27.40     0.618 N 
ENDBRANCH   4   5
ENDBRANCH   3   4
ENDBRANCH   2   3
ENDBRANCH   1   2
END_RES LYS A 131
BEGIN_RES LYS A 135
REMARK  4 active torsions:
REMARK  status: ('A' for Active; 'I' for Inactive)
REMARK    5  A    between atoms: CA   and  CB  
REMARK    6  A    between atoms: CB   and  CG  
REMARK    7  A    between atoms: CG   and  CD  
REMARK    8  A    between atoms: CD   and  CE  
ROOT
ATOM      7  CA  LYS A 135      33.193  34.663   9.290  1.00 25.02     0.186 C 
ENDROOT
BRANCH   7   8
ATOM      8  CB  LYS A 135      32.060  35.360  10.034  1.00 26.63     0.034 C 
BRANCH   8   9
ATOM      9  CG  LYS A 135      30.783  35.449   9.239  1.00 29.45     0.005 C 
BRANCH   9  10
ATOM     10  CD  LYS A 135      30.145  34.077   9.092  1.00 32.00     0.041 C 
BRANCH  10  11
ATOM     11  CE  LYS A 135      28.691  34.206   8.679  1.00 34.25     0.338 C 
ATOM     12  NZ  LYS A 135      27.783  33.711   9.750  1.00 35.99     0.618 N 
ENDBRANCH  10  11
ENDBRANCH   9  10
ENDBRANCH   8   9
ENDBRANCH   7   8
END_RES LYS A 135
