REMARK VINA RESULT:    -5.461      2.093      4.144
REMARK INTER + INTRA:         -25.591
REMARK INTER:                 -14.426
REMARK INTRA:                 -11.164
REMARK UNBOUND:               -11.349
REMARK SMILES CC(=O)N[C@@H]1[C@@H](O)C[C@](OC[C@H]2O[C@@H](O[C@H]3[C@H](O)[C@@H](O)[C@H](OCCN=[N+]=[N-])O[C@@H]3CO)[C@H](O)[C@@H](O)[C@H]2O)(C(=O)O)O[C@H]1C(O)[C@H](O)CNC(=O)OCc1cn(-c2ccc(-c3c4ccc(=O)cc-4oc4cc(O)ccc34)c(C(=O)[O-])c2)nn1
REMARK SMILES IDX 9 1 8 2 6 3 5 4 42 5 41 6 10 7 11 8 12 9 14 10 13 11 32 12
REMARK SMILES IDX 34 13 36 14 15 15 16 16 29 17 28 18 21 19 17 20 19 21 30 22
REMARK SMILES IDX 31 23 22 25 23 26 24 27 25 28 26 29 27 30 18 31 20 33 33 35
REMARK SMILES IDX 35 37 37 39 38 41 39 42 40 43 7 45 43 47 44 48 45 50 46 51
REMARK SMILES IDX 47 53 48 54 49 55 50 57 51 58 52 59 53 60 54 61 82 62 55 63
REMARK SMILES IDX 81 64 56 65 80 66 57 67 76 68 58 69 59 70 77 71 78 72 79 73
REMARK SMILES IDX 60 74 75 75 61 76 74 77 69 78 67 79 62 80 73 81 70 82 68 83
REMARK SMILES IDX 66 84 63 85 71 86 64 87 65 88 72 89 4 91 2 92 1 94 3 95
REMARK H PARENT 31 24 18 32 20 34 33 36 35 38 37 40 40 44 7 46 44 49 46 52
REMARK H PARENT 48 56 72 90 4 93
REMARK Flexibility Score: inf
ROOT
ATOM      1  C   UNL     1      27.471  38.877   6.698  1.00  0.00     0.272 C 
ATOM      2  C   UNL     1      26.924  37.490   6.468  1.00  0.00     0.113 C 
ATOM      3  C   UNL     1      26.551  36.781   7.740  1.00  0.00     0.145 C 
ATOM      4  C   UNL     1      27.199  37.514   8.887  1.00  0.00     0.142 C 
ATOM      5  C   UNL     1      28.610  37.820   8.460  1.00  0.00     0.178 C 
ATOM      6  O   UNL     1      28.604  38.846   7.547  1.00  0.00    -0.332 OA
ENDROOT
BRANCH   1   7
ATOM      7  O   UNL     1      26.581  39.803   7.166  1.00  0.00    -0.338 OA
BRANCH   7   8
ATOM      8  C   UNL     1      25.563  40.086   6.326  1.00  0.00     0.199 C 
BRANCH   8   9
ATOM      9  C   UNL     1      24.225  40.207   7.072  1.00  0.00     0.179 C 
ATOM     10  C   UNL     1      22.727  38.974   8.317  1.00  0.00     0.282 C 
ATOM     11  O   UNL     1      23.644  39.015   7.304  1.00  0.00    -0.341 OA
ATOM     12  C   UNL     1      22.020  40.244   8.586  1.00  0.00     0.202 C 
ATOM     13  C   UNL     1      22.957  41.418   8.746  1.00  0.00     0.179 C 
ATOM     14  C   UNL     1      24.358  41.033   8.297  1.00  0.00     0.177 C 
BRANCH  10  15
ATOM     15  O   UNL     1      23.352  38.360   9.401  1.00  0.00    -0.341 OA
BRANCH  15  16
ATOM     16  C   UNL     1      22.580  37.437  10.028  1.00  0.00     0.184 C 
ATOM     17  C   UNL     1      22.535  37.631  11.512  1.00  0.00     0.178 C 
ATOM     18  O   UNL     1      21.426  36.963  12.053  1.00  0.00    -0.341 OA
ATOM     19  C   UNL     1      21.276  35.701  11.493  1.00  0.00     0.281 C 
ATOM     20  C   UNL     1      23.098  35.998   9.846  1.00  0.00     0.180 C 
ATOM     21  C   UNL     1      22.553  35.147  10.973  1.00  0.00     0.202 C 
BRANCH  17  22
ATOM     22  C   UNL     1      22.419  39.086  11.846  1.00  0.00     0.191 C 
BRANCH  22  23
ATOM     23  O   UNL     1      23.696  39.651  11.843  1.00  0.00    -0.394 OA
ATOM     24  H   UNL     1      23.580  40.617  11.980  1.00  0.00     0.210 HD
ENDBRANCH  22  23
ENDBRANCH  17  22
BRANCH  19  25
ATOM     25  O   UNL     1      20.282  35.692  10.537  1.00  0.00    -0.350 OA
BRANCH  25  26
ATOM     26  C   UNL     1      19.002  35.884  11.042  1.00  0.00     0.169 C 
BRANCH  26  27
ATOM     27  C   UNL     1      18.283  36.786  10.055  1.00  0.00     0.119 C 
BRANCH  27  28
ATOM     28  N   UNL     1      19.111  37.881   9.627  1.00  0.00    -0.092 NA
ATOM     29  N   UNL     1      18.941  38.992  10.145  1.00  0.00     0.001 N 
ATOM     30  N   UNL     1      19.114  40.084  10.688  1.00  0.00    -0.003 NA
ENDBRANCH  27  28
ENDBRANCH  26  27
ENDBRANCH  25  26
ENDBRANCH  19  25
BRANCH  20  31
ATOM     31  O   UNL     1      22.540  35.531   8.659  1.00  0.00    -0.387 OA
ATOM     32  H   UNL     1      22.886  34.657   8.374  1.00  0.00     0.211 HD
ENDBRANCH  20  31
BRANCH  21  33
ATOM     33  O   UNL     1      23.490  34.914  11.981  1.00  0.00    -0.385 OA
ATOM     34  H   UNL     1      23.057  35.252  12.825  1.00  0.00     0.211 HD
ENDBRANCH  21  33
ENDBRANCH  15  16
ENDBRANCH  10  15
BRANCH  12  35
ATOM     35  O   UNL     1      21.092  40.525   7.550  1.00  0.00    -0.385 OA
ATOM     36  H   UNL     1      21.597  40.909   6.773  1.00  0.00     0.211 HD
ENDBRANCH  12  35
BRANCH  13  37
ATOM     37  O   UNL     1      22.929  41.948  10.025  1.00  0.00    -0.387 OA
ATOM     38  H   UNL     1      23.118  41.217  10.659  1.00  0.00     0.211 HD
ENDBRANCH  13  37
BRANCH  14  39
ATOM     39  O   UNL     1      24.983  40.399   9.362  1.00  0.00    -0.387 OA
ATOM     40  H   UNL     1      24.580  40.800  10.187  1.00  0.00     0.211 HD
ENDBRANCH  14  39
ENDBRANCH   8   9
ENDBRANCH   7   8
ENDBRANCH   1   7
BRANCH   1  41
ATOM     41  C   UNL     1      28.074  39.275   5.364  1.00  0.00     0.364 C 
ATOM     42  O   UNL     1      27.770  38.737   4.284  1.00  0.00    -0.246 OA
BRANCH  41  43
ATOM     43  O   UNL     1      29.021  40.293   5.309  1.00  0.00    -0.477 OA
ATOM     44  H   UNL     1      28.745  41.264   5.351  1.00  0.00     0.296 HD
ENDBRANCH  41  43
ENDBRANCH   1  41
BRANCH   3  45
ATOM     45  O   UNL     1      25.175  36.689   7.828  1.00  0.00    -0.391 OA
ATOM     46  H   UNL     1      24.965  36.043   8.547  1.00  0.00     0.211 HD
ENDBRANCH   3  45
BRANCH   5  47
ATOM     47  C   UNL     1      29.436  38.318   9.651  1.00  0.00     0.176 C 
BRANCH  47  48
ATOM     48  O   UNL     1      28.895  39.562  10.056  1.00  0.00    -0.388 OA
ATOM     49  H   UNL     1      29.084  39.768  10.985  1.00  0.00     0.211 HD
ENDBRANCH  47  48
BRANCH  47  50
ATOM     50  C   UNL     1      30.845  38.598   9.244  1.00  0.00     0.165 C 
BRANCH  50  51
ATOM     51  O   UNL     1      31.155  37.892   8.081  1.00  0.00    -0.388 OA
ATOM     52  H   UNL     1      32.093  38.094   7.831  1.00  0.00     0.211 HD
ENDBRANCH  50  51
BRANCH  50  53
ATOM     53  C   UNL     1      31.876  38.380  10.295  1.00  0.00     0.154 C 
BRANCH  53  54
ATOM     54  N   UNL     1      31.289  38.111  11.589  1.00  0.00    -0.319 N 
ATOM     55  C   UNL     1      31.756  37.125  12.489  1.00  0.00     0.407 C 
ATOM     56  H   UNL     1      30.448  38.663  11.939  1.00  0.00     0.167 HD
ATOM     57  O   UNL     1      32.738  36.420  12.186  1.00  0.00    -0.225 OA
BRANCH  55  58
ATOM     58  O   UNL     1      31.164  36.892  13.724  1.00  0.00    -0.443 OA
BRANCH  58  59
ATOM     59  C   UNL     1      31.923  36.490  14.871  1.00  0.00     0.294 C 
BRANCH  59  60
ATOM     60  C   UNL     1      31.492  35.103  15.177  1.00  0.00     0.121 A 
ATOM     61  C   UNL     1      30.209  34.648  15.310  1.00  0.00     0.144 A 
ATOM     62  N   UNL     1      32.293  34.019  15.384  1.00  0.00    -0.131 NA
ATOM     63  N   UNL     1      30.235  33.327  15.589  1.00  0.00    -0.220 N 
ATOM     64  N   UNL     1      31.519  32.978  15.627  1.00  0.00    -0.062 NA
BRANCH  63  65
ATOM     65  C   UNL     1      29.100  32.500  15.793  1.00  0.00     0.067 A 
ATOM     66  C   UNL     1      27.918  32.992  16.293  1.00  0.00     0.039 A 
ATOM     67  C   UNL     1      29.188  31.168  15.476  1.00  0.00     0.029 A 
ATOM     68  C   UNL     1      26.845  32.150  16.468  1.00  0.00     0.007 A 
ATOM     69  C   UNL     1      28.111  30.326  15.652  1.00  0.00     0.012 A 
ATOM     70  C   UNL     1      26.918  30.796  16.150  1.00  0.00    -0.008 A 
BRANCH  68  71
ATOM     71  C   UNL     1      25.570  32.640  16.998  1.00  0.00     0.072 C 
ATOM     72  O   UNL     1      24.692  33.144  16.257  1.00  0.00    -0.545 OA
ATOM     73  O   UNL     1      25.324  32.549  18.345  1.00  0.00    -0.545 OA
ENDBRANCH  68  71
BRANCH  70  74
ATOM     74  C   UNL     1      25.777  29.918  16.337  1.00  0.00     0.004 A 
ATOM     75  C   UNL     1      24.845  29.817  15.333  1.00  0.00     0.026 A 
ATOM     76  C   UNL     1      25.597  29.187  17.483  1.00  0.00     0.026 A 
ATOM     77  C   UNL     1      24.944  30.512  14.151  1.00  0.00     0.016 A 
ATOM     78  C   UNL     1      23.757  28.975  15.529  1.00  0.00     0.139 A 
ATOM     79  C   UNL     1      24.421  28.304  17.644  1.00  0.00     0.139 A 
ATOM     80  C   UNL     1      26.485  29.236  18.528  1.00  0.00     0.016 A 
ATOM     81  C   UNL     1      24.000  30.403  13.147  1.00  0.00     0.047 A 
ATOM     82  C   UNL     1      22.824  28.872  14.527  1.00  0.00     0.093 A 
ATOM     83  O   UNL     1      23.591  28.276  16.634  1.00  0.00    -0.456 OA
ATOM     84  C   UNL     1      24.245  27.575  18.792  1.00  0.00     0.099 A 
ATOM     85  C   UNL     1      26.294  28.495  19.680  1.00  0.00     0.053 A 
ATOM     86  C   UNL     1      22.918  29.571  13.331  1.00  0.00     0.119 A 
ATOM     87  C   UNL     1      25.182  27.679  19.794  1.00  0.00     0.182 A 
ATOM     88  O   UNL     1      25.065  27.030  20.868  1.00  0.00    -0.290 OA
BRANCH  86  89
ATOM     89  O   UNL     1      21.976  29.467  12.319  1.00  0.00    -0.508 OA
ATOM     90  H   UNL     1      22.172  29.979  11.462  1.00  0.00     0.293 HD
ENDBRANCH  86  89
ENDBRANCH  70  74
ENDBRANCH  63  65
ENDBRANCH  59  60
ENDBRANCH  58  59
ENDBRANCH  55  58
ENDBRANCH  53  54
ENDBRANCH  50  53
ENDBRANCH  47  50
ENDBRANCH   5  47
BRANCH   4  91
ATOM     91  N   UNL     1      27.154  36.762  10.123  1.00  0.00    -0.348 N 
ATOM     92  C   UNL     1      26.579  37.365  11.259  1.00  0.00     0.217 C 
ATOM     93  H   UNL     1      27.527  35.792  10.216  1.00  0.00     0.163 HD
ATOM     94  C   UNL     1      26.481  36.689  12.576  1.00  0.00     0.114 C 
ATOM     95  O   UNL     1      26.104  38.552  11.210  1.00  0.00    -0.275 OA
ENDBRANCH   4  91
TORSDOF 33
BEGIN_RES LYS A 131
REMARK  4 active torsions:
REMARK  status: ('A' for Active; 'I' for Inactive)
REMARK    1  A    between atoms: CA   and  CB  
REMARK    2  A    between atoms: CB   and  CG  
REMARK    3  A    between atoms: CG   and  CD  
REMARK    4  A    between atoms: CD   and  CE  
ROOT
ATOM      1  CA  LYS A 131      29.867  25.555  16.977  1.00 20.52     0.186 C 
ENDROOT
BRANCH   1   2
ATOM      2  CB  LYS A 131      28.345  25.722  17.026  1.00 20.94     0.034 C 
BRANCH   2   3
ATOM      3  CG  LYS A 131      27.610  24.400  17.183  1.00 22.96     0.005 C 
BRANCH   3   4
ATOM      4  CD  LYS A 131      26.594  24.444  18.290  1.00 24.33     0.041 C 
BRANCH   4   5
ATOM      5  CE  LYS A 131      25.700  23.211  18.210  1.00 26.91     0.338 C 
ATOM      6  NZ  LYS A 131      24.707  23.360  17.120  1.00 27.40     0.618 N 
ENDBRANCH   4   5
ENDBRANCH   3   4
ENDBRANCH   2   3
ENDBRANCH   1   2
END_RES LYS A 131
BEGIN_RES LYS A 135
REMARK  4 active torsions:
REMARK  status: ('A' for Active; 'I' for Inactive)
REMARK    5  A    between atoms: CA   and  CB  
REMARK    6  A    between atoms: CB   and  CG  
REMARK    7  A    between atoms: CG   and  CD  
REMARK    8  A    between atoms: CD   and  CE  
ROOT
ATOM      7  CA  LYS A 135      33.193  34.663   9.290  1.00 25.02     0.186 C 
ENDROOT
BRANCH   7   8
ATOM      8  CB  LYS A 135      32.060  35.360  10.034  1.00 26.63     0.034 C 
BRANCH   8   9
ATOM      9  CG  LYS A 135      30.734  34.655   9.910  1.00 29.45     0.005 C 
BRANCH   9  10
ATOM     10  CD  LYS A 135      30.348  34.491   8.448  1.00 32.00     0.041 C 
BRANCH  10  11
ATOM     11  CE  LYS A 135      28.852  34.280   8.312  1.00 34.25     0.338 C 
ATOM     12  NZ  LYS A 135      28.278  33.697   9.556  1.00 35.99     0.618 N 
ENDBRANCH  10  11
ENDBRANCH   9  10
ENDBRANCH   8   9
ENDBRANCH   7   8
END_RES LYS A 135
