REMARK VINA RESULT:    -4.840      2.904      8.573
REMARK INTER + INTRA:         -25.602
REMARK INTER:                 -11.707
REMARK INTRA:                 -13.895
REMARK UNBOUND:               -12.132
REMARK SMILES CCOCCc1c(-c2ccccc2)nc(N)nc1-n1cc(COC(=O)NC[C@@H](O)C(O)[C@@H]2O[C@@](OC[C@H]3O[C@@H](O[C@H]4[C@H](O)[C@@H](O)[C@H](OCCN=[N+]=[N-])O[C@@H]4CO)[C@H](O)[C@@H](O)[C@H]3O)(C(=O)O)C[C@H](O)[C@H]2NC(C)=O)nn1
REMARK SMILES IDX 30 1 32 2 34 3 66 4 33 5 67 6 69 7 35 8 36 9 37 10 39 11
REMARK SMILES IDX 38 12 57 13 59 14 61 15 40 16 41 17 54 18 53 19 46 20 42 21
REMARK SMILES IDX 44 22 55 23 56 24 47 26 48 27 49 28 50 29 51 30 52 31 43 32
REMARK SMILES IDX 45 34 58 36 60 38 62 40 63 42 64 43 65 44 68 46 70 48 71 49
REMARK SMILES IDX 72 51 73 52 31 53 28 55 29 56 27 58 26 59 24 60 25 62 23 63
REMARK SMILES IDX 22 64 21 65 20 66 74 67 19 68 75 69 18 70 17 71 6 72 15 73
REMARK SMILES IDX 7 74 14 75 5 76 4 77 3 78 2 79 1 80 16 81 8 84 9 85 13 86
REMARK SMILES IDX 10 87 12 88 11 89
REMARK H PARENT 56 25 43 33 45 35 58 37 60 39 62 41 65 45 68 47 70 50 31 54
REMARK H PARENT 29 57 26 61 16 82 16 83
REMARK Flexibility Score: inf
ROOT
ATOM      1  C   UNL     1      30.215  39.114  15.187  1.00  0.00     0.176 C 
ENDROOT
BRANCH   1   2
ATOM      2  C   UNL     1      31.327  38.127  15.380  1.00  0.00     0.178 C 
ATOM      3  C   UNL     1      31.920  36.058  14.462  1.00  0.00     0.272 C 
ATOM      4  C   UNL     1      33.103  36.236  15.416  1.00  0.00     0.113 C 
ATOM      5  O   UNL     1      31.180  37.176  14.326  1.00  0.00    -0.332 OA
ATOM      6  C   UNL     1      32.675  36.670  16.785  1.00  0.00     0.145 C 
ATOM      7  C   UNL     1      31.323  37.348  16.650  1.00  0.00     0.142 C 
BRANCH   3   8
ATOM      8  O   UNL     1      31.229  34.943  14.883  1.00  0.00    -0.338 OA
BRANCH   8   9
ATOM      9  C   UNL     1      30.742  34.129  13.895  1.00  0.00     0.199 C 
BRANCH   9  10
ATOM     10  C   UNL     1      29.252  33.861  14.048  1.00  0.00     0.179 C 
ATOM     11  C   UNL     1      27.791  33.851  15.867  1.00  0.00     0.282 C 
ATOM     12  O   UNL     1      29.013  33.530  15.350  1.00  0.00    -0.341 OA
ATOM     13  C   UNL     1      27.648  35.372  15.719  1.00  0.00     0.202 C 
ATOM     14  C   UNL     1      27.392  35.575  14.226  1.00  0.00     0.179 C 
ATOM     15  C   UNL     1      28.363  34.829  13.381  1.00  0.00     0.177 C 
BRANCH  11  16
ATOM     16  O   UNL     1      27.705  33.441  17.177  1.00  0.00    -0.341 OA
BRANCH  16  17
ATOM     17  C   UNL     1      28.603  32.428  17.473  1.00  0.00     0.184 C 
ATOM     18  C   UNL     1      27.900  31.192  17.921  1.00  0.00     0.178 C 
ATOM     19  O   UNL     1      28.042  30.846  19.228  1.00  0.00    -0.341 OA
ATOM     20  C   UNL     1      29.273  30.922  19.800  1.00  0.00     0.281 C 
ATOM     21  C   UNL     1      29.671  32.895  18.415  1.00  0.00     0.180 C 
ATOM     22  C   UNL     1      30.315  31.703  19.072  1.00  0.00     0.202 C 
BRANCH  18  23
ATOM     23  C   UNL     1      28.161  30.018  16.976  1.00  0.00     0.191 C 
BRANCH  23  24
ATOM     24  O   UNL     1      27.816  28.813  17.561  1.00  0.00    -0.394 OA
ATOM     25  H   UNL     1      28.205  28.805  18.472  1.00  0.00     0.210 HD
ENDBRANCH  23  24
ENDBRANCH  18  23
BRANCH  20  26
ATOM     26  O   UNL     1      29.731  29.623  19.994  1.00  0.00    -0.350 OA
BRANCH  26  27
ATOM     27  C   UNL     1      29.113  28.953  21.021  1.00  0.00     0.169 C 
BRANCH  27  28
ATOM     28  C   UNL     1      28.843  27.496  20.734  1.00  0.00     0.119 C 
BRANCH  28  29
ATOM     29  N   UNL     1      27.571  27.385  20.021  1.00  0.00    -0.092 NA
ATOM     30  N   UNL     1      26.592  26.827  20.530  1.00  0.00     0.001 N 
ATOM     31  N   UNL     1      25.757  26.137  21.113  1.00  0.00    -0.003 NA
ENDBRANCH  28  29
ENDBRANCH  27  28
ENDBRANCH  26  27
ENDBRANCH  20  26
BRANCH  21  32
ATOM     32  O   UNL     1      30.672  33.625  17.768  1.00  0.00    -0.387 OA
ATOM     33  H   UNL     1      30.363  33.971  16.887  1.00  0.00     0.211 HD
ENDBRANCH  21  32
BRANCH  22  34
ATOM     34  O   UNL     1      31.238  32.181  20.001  1.00  0.00    -0.385 OA
ATOM     35  H   UNL     1      32.131  31.769  19.890  1.00  0.00     0.211 HD
ENDBRANCH  22  34
ENDBRANCH  16  17
ENDBRANCH  11  16
BRANCH  13  36
ATOM     36  O   UNL     1      26.600  35.880  16.447  1.00  0.00    -0.385 OA
ATOM     37  H   UNL     1      25.852  35.227  16.525  1.00  0.00     0.211 HD
ENDBRANCH  13  36
BRANCH  14  38
ATOM     38  O   UNL     1      27.208  36.894  13.883  1.00  0.00    -0.387 OA
ATOM     39  H   UNL     1      28.015  37.453  14.101  1.00  0.00     0.211 HD
ENDBRANCH  14  38
BRANCH  15  40
ATOM     40  O   UNL     1      29.156  35.783  12.707  1.00  0.00    -0.387 OA
ATOM     41  H   UNL     1      29.742  35.316  12.058  1.00  0.00     0.211 HD
ENDBRANCH  15  40
ENDBRANCH   9  10
ENDBRANCH   8   9
ENDBRANCH   3   8
BRANCH   3  42
ATOM     42  C   UNL     1      32.580  35.759  13.151  1.00  0.00     0.364 C 
ATOM     43  O   UNL     1      32.201  36.504  12.180  1.00  0.00    -0.246 OA
BRANCH  42  44
ATOM     44  O   UNL     1      33.517  34.790  12.935  1.00  0.00    -0.477 OA
ATOM     45  H   UNL     1      33.551  34.319  12.034  1.00  0.00     0.296 HD
ENDBRANCH  42  44
ENDBRANCH   3  42
BRANCH   6  46
ATOM     46  O   UNL     1      32.596  35.513  17.575  1.00  0.00    -0.391 OA
ATOM     47  H   UNL     1      31.710  35.401  17.970  1.00  0.00     0.211 HD
ENDBRANCH   6  46
BRANCH   7  48
ATOM     48  N   UNL     1      30.966  38.051  17.842  1.00  0.00    -0.348 N 
ATOM     49  C   UNL     1      30.171  37.496  18.879  1.00  0.00     0.217 C 
ATOM     50  H   UNL     1      31.336  39.021  17.944  1.00  0.00     0.163 HD
ATOM     51  C   UNL     1      29.865  38.315  20.069  1.00  0.00     0.114 C 
ATOM     52  O   UNL     1      29.741  36.328  18.778  1.00  0.00    -0.275 OA
ENDBRANCH   7  48
ENDBRANCH   1   2
BRANCH   1  53
ATOM     53  O   UNL     1      29.024  38.420  15.594  1.00  0.00    -0.388 OA
ATOM     54  H   UNL     1      29.173  37.482  15.353  1.00  0.00     0.211 HD
ENDBRANCH   1  53
BRANCH   1  55
ATOM     55  C   UNL     1      29.955  39.639  13.833  1.00  0.00     0.165 C 
BRANCH  55  56
ATOM     56  O   UNL     1      29.203  38.620  13.179  1.00  0.00    -0.388 OA
ATOM     57  H   UNL     1      29.297  37.795  13.697  1.00  0.00     0.211 HD
ENDBRANCH  55  56
BRANCH  55  58
ATOM     58  C   UNL     1      31.111  39.976  12.987  1.00  0.00     0.154 C 
BRANCH  58  59
ATOM     59  N   UNL     1      31.288  39.194  11.826  1.00  0.00    -0.319 N 
ATOM     60  C   UNL     1      31.353  39.674  10.505  1.00  0.00     0.407 C 
ATOM     61  H   UNL     1      31.388  38.113  11.886  1.00  0.00     0.167 HD
ATOM     62  O   UNL     1      31.253  40.889  10.227  1.00  0.00    -0.225 OA
BRANCH  60  63
ATOM     63  O   UNL     1      31.537  38.825   9.408  1.00  0.00    -0.443 OA
BRANCH  63  64
ATOM     64  C   UNL     1      30.474  38.462   8.554  1.00  0.00     0.294 C 
BRANCH  64  65
ATOM     65  C   UNL     1      29.239  38.159   9.316  1.00  0.00     0.121 A 
ATOM     66  C   UNL     1      27.965  38.575   9.028  1.00  0.00     0.146 A 
ATOM     67  N   UNL     1      29.125  37.438  10.455  1.00  0.00    -0.131 NA
ATOM     68  N   UNL     1      27.098  38.100   9.999  1.00  0.00    -0.202 N 
ATOM     69  N   UNL     1      27.855  37.432  10.816  1.00  0.00    -0.060 NA
BRANCH  68  70
ATOM     70  C   UNL     1      25.734  38.427   9.912  1.00  0.00     0.164 A 
ATOM     71  N   UNL     1      25.365  39.721  10.088  1.00  0.00    -0.193 NA
ATOM     72  C   UNL     1      24.721  37.518   9.573  1.00  0.00     0.026 A 
ATOM     73  C   UNL     1      24.111  40.156   9.954  1.00  0.00     0.222 A 
ATOM     74  C   UNL     1      23.434  37.940   9.427  1.00  0.00     0.081 A 
ATOM     75  N   UNL     1      23.165  39.273   9.627  1.00  0.00    -0.213 NA
BRANCH  72  76
ATOM     76  C   UNL     1      25.126  36.109   9.511  1.00  0.00     0.070 C 
BRANCH  76  77
ATOM     77  C   UNL     1      24.866  35.329  10.781  1.00  0.00     0.165 C 
BRANCH  77  78
ATOM     78  O   UNL     1      24.992  36.001  11.958  1.00  0.00    -0.381 OA
BRANCH  78  79
ATOM     79  C   UNL     1      23.926  36.020  12.806  1.00  0.00     0.156 C 
ATOM     80  C   UNL     1      23.521  37.462  13.159  1.00  0.00     0.035 C 
ENDBRANCH  78  79
ENDBRANCH  77  78
ENDBRANCH  76  77
ENDBRANCH  72  76
BRANCH  73  81
ATOM     81  N   UNL     1      23.772  41.532  10.154  1.00  0.00    -0.368 N 
ATOM     82  H   UNL     1      23.587  42.150   9.338  1.00  0.00     0.159 HD
ATOM     83  H   UNL     1      23.698  41.960  11.091  1.00  0.00     0.159 HD
ENDBRANCH  73  81
BRANCH  74  84
ATOM     84  C   UNL     1      22.339  37.072   9.056  1.00  0.00     0.001 A 
ATOM     85  C   UNL     1      21.521  36.583  10.072  1.00  0.00     0.010 A 
ATOM     86  C   UNL     1      22.065  36.738   7.742  1.00  0.00     0.010 A 
ATOM     87  C   UNL     1      20.433  35.766   9.793  1.00  0.00     0.001 A 
ATOM     88  C   UNL     1      20.984  35.928   7.488  1.00  0.00     0.001 A 
ATOM     89  C   UNL     1      20.172  35.443   8.482  1.00  0.00     0.000 A 
ENDBRANCH  74  84
ENDBRANCH  68  70
ENDBRANCH  64  65
ENDBRANCH  63  64
ENDBRANCH  60  63
ENDBRANCH  58  59
ENDBRANCH  55  58
ENDBRANCH   1  55
TORSDOF 36
BEGIN_RES LYS A 131
REMARK  4 active torsions:
REMARK  status: ('A' for Active; 'I' for Inactive)
REMARK    1  A    between atoms: CA   and  CB  
REMARK    2  A    between atoms: CB   and  CG  
REMARK    3  A    between atoms: CG   and  CD  
REMARK    4  A    between atoms: CD   and  CE  
ROOT
ATOM      1  CA  LYS A 131      29.867  25.555  16.977  1.00 20.52     0.186 C 
ENDROOT
BRANCH   1   2
ATOM      2  CB  LYS A 131      28.345  25.722  17.026  1.00 20.94     0.034 C 
BRANCH   2   3
ATOM      3  CG  LYS A 131      27.601  24.401  16.898  1.00 22.96     0.005 C 
BRANCH   3   4
ATOM      4  CD  LYS A 131      26.551  24.238  17.962  1.00 24.33     0.041 C 
BRANCH   4   5
ATOM      5  CE  LYS A 131      25.280  23.668  17.338  1.00 26.91     0.338 C 
ATOM      6  NZ  LYS A 131      24.768  22.537  18.147  1.00 27.40     0.618 N 
ENDBRANCH   4   5
ENDBRANCH   3   4
ENDBRANCH   2   3
ENDBRANCH   1   2
END_RES LYS A 131
BEGIN_RES LYS A 135
REMARK  4 active torsions:
REMARK  status: ('A' for Active; 'I' for Inactive)
REMARK    5  A    between atoms: CA   and  CB  
REMARK    6  A    between atoms: CB   and  CG  
REMARK    7  A    between atoms: CG   and  CD  
REMARK    8  A    between atoms: CD   and  CE  
ROOT
ATOM      7  CA  LYS A 135      33.193  34.663   9.290  1.00 25.02     0.186 C 
ENDROOT
BRANCH   7   8
ATOM      8  CB  LYS A 135      32.060  35.360  10.034  1.00 26.63     0.034 C 
BRANCH   8   9
ATOM      9  CG  LYS A 135      30.738  34.645   9.925  1.00 29.45     0.005 C 
BRANCH   9  10
ATOM     10  CD  LYS A 135      30.318  34.513   8.469  1.00 32.00     0.041 C 
BRANCH  10  11
ATOM     11  CE  LYS A 135      28.806  34.529   8.347  1.00 34.25     0.338 C 
ATOM     12  NZ  LYS A 135      28.168  33.820   9.491  1.00 35.99     0.618 N 
ENDBRANCH  10  11
ENDBRANCH   9  10
ENDBRANCH   8   9
ENDBRANCH   7   8
END_RES LYS A 135
