REMARK VINA RESULT:    -4.390      3.188      8.175
REMARK INTER + INTRA:         -23.458
REMARK INTER:                 -11.928
REMARK INTRA:                 -11.531
REMARK UNBOUND:               -12.269
REMARK SMILES CC(=O)N[C@@H]1[C@@H](O)C[C@](OC[C@H]2O[C@@H](O[C@H]3[C@H](O)[C@@H](O)[C@H](OCCN=[N+]=[N-])O[C@@H]3CO)[C@H](O)[C@@H](O)[C@H]2O)(C(=O)O)O[C@H]1C(O)[C@H](O)CNC(=O)OCc1cn(-c2cccc(S(N)(=O)=O)c2)nn1
REMARK SMILES IDX 9 1 8 2 6 3 5 4 42 5 41 6 10 7 11 8 12 9 14 10 13 11 32 12
REMARK SMILES IDX 34 13 36 14 15 15 16 16 29 17 28 18 21 19 17 20 19 21 30 22
REMARK SMILES IDX 31 23 22 25 23 26 24 27 25 28 26 29 27 30 18 31 20 33 33 35
REMARK SMILES IDX 35 37 37 39 38 41 39 42 40 43 7 45 43 47 44 48 45 50 46 51
REMARK SMILES IDX 47 53 48 54 49 55 50 57 51 58 52 59 53 60 54 61 67 62 55 63
REMARK SMILES IDX 66 64 56 65 65 66 57 67 60 68 58 69 59 70 61 71 63 72 64 73
REMARK SMILES IDX 62 74 4 77 2 78 1 80 3 81
REMARK H PARENT 31 24 18 32 20 34 33 36 35 38 37 40 40 44 7 46 44 49 46 52
REMARK H PARENT 48 56 62 75 62 76 4 79
REMARK Flexibility Score: inf
ROOT
ATOM      1  C   UNL     1      27.128  38.144   6.770  1.00  0.00     0.272 C 
ATOM      2  C   UNL     1      28.189  37.869   7.853  1.00  0.00     0.113 C 
ATOM      3  C   UNL     1      29.231  38.929   7.754  1.00  0.00     0.145 C 
ATOM      4  C   UNL     1      28.636  40.279   7.940  1.00  0.00     0.142 C 
ATOM      5  C   UNL     1      27.244  40.383   7.427  1.00  0.00     0.178 C 
ATOM      6  O   UNL     1      26.549  39.313   7.027  1.00  0.00    -0.332 OA
ENDROOT
BRANCH   1   7
ATOM      7  O   UNL     1      26.223  37.062   6.941  1.00  0.00    -0.338 OA
BRANCH   7   8
ATOM      8  C   UNL     1      25.908  36.961   8.261  1.00  0.00     0.199 C 
BRANCH   8   9
ATOM      9  C   UNL     1      24.423  36.791   8.502  1.00  0.00     0.179 C 
ATOM     10  C   UNL     1      22.973  36.547  10.188  1.00  0.00     0.282 C 
ATOM     11  O   UNL     1      24.028  37.365   9.709  1.00  0.00    -0.341 OA
ATOM     12  C   UNL     1      21.971  36.260   9.130  1.00  0.00     0.202 C 
ATOM     13  C   UNL     1      22.100  37.099   7.883  1.00  0.00     0.179 C 
ATOM     14  C   UNL     1      23.536  37.286   7.428  1.00  0.00     0.177 C 
BRANCH  10  15
ATOM     15  O   UNL     1      22.487  37.010  11.384  1.00  0.00    -0.341 OA
BRANCH  15  16
ATOM     16  C   UNL     1      22.972  36.374  12.503  1.00  0.00     0.184 C 
ATOM     17  C   UNL     1      24.055  35.406  12.093  1.00  0.00     0.178 C 
ATOM     18  O   UNL     1      23.931  34.195  12.786  1.00  0.00    -0.341 OA
ATOM     19  C   UNL     1      22.857  33.516  12.262  1.00  0.00     0.281 C 
ATOM     20  C   UNL     1      21.804  35.650  13.136  1.00  0.00     0.180 C 
ATOM     21  C   UNL     1      21.611  34.264  12.609  1.00  0.00     0.202 C 
BRANCH  17  22
ATOM     22  C   UNL     1      25.441  35.906  12.344  1.00  0.00     0.191 C 
BRANCH  22  23
ATOM     23  O   UNL     1      25.526  37.297  12.139  1.00  0.00    -0.394 OA
ATOM     24  H   UNL     1      25.980  37.505  11.288  1.00  0.00     0.210 HD
ENDBRANCH  22  23
ENDBRANCH  17  22
BRANCH  19  25
ATOM     25  O   UNL     1      22.750  32.217  12.760  1.00  0.00    -0.350 OA
BRANCH  25  26
ATOM     26  C   UNL     1      23.852  31.762  13.432  1.00  0.00     0.169 C 
BRANCH  26  27
ATOM     27  C   UNL     1      23.543  30.911  14.646  1.00  0.00     0.119 C 
BRANCH  27  28
ATOM     28  N   UNL     1      23.350  31.726  15.829  1.00  0.00    -0.092 NA
ATOM     29  N   UNL     1      23.788  32.870  15.922  1.00  0.00     0.001 N 
ATOM     30  N   UNL     1      24.187  34.004  16.120  1.00  0.00    -0.003 NA
ENDBRANCH  27  28
ENDBRANCH  26  27
ENDBRANCH  25  26
ENDBRANCH  19  25
BRANCH  20  31
ATOM     31  O   UNL     1      22.042  35.548  14.519  1.00  0.00    -0.387 OA
ATOM     32  H   UNL     1      22.285  34.627  14.789  1.00  0.00     0.211 HD
ENDBRANCH  20  31
BRANCH  21  33
ATOM     33  O   UNL     1      20.800  34.295  11.451  1.00  0.00    -0.385 OA
ATOM     34  H   UNL     1      21.406  34.263  10.674  1.00  0.00     0.211 HD
ENDBRANCH  21  33
ENDBRANCH  15  16
ENDBRANCH  10  15
BRANCH  12  35
ATOM     35  O   UNL     1      21.891  34.886   8.796  1.00  0.00    -0.385 OA
ATOM     36  H   UNL     1      22.362  34.836   7.904  1.00  0.00     0.211 HD
ENDBRANCH  12  35
BRANCH  13  37
ATOM     37  O   UNL     1      21.391  38.281   7.978  1.00  0.00    -0.387 OA
ATOM     38  H   UNL     1      21.544  38.769   7.106  1.00  0.00     0.211 HD
ENDBRANCH  13  37
BRANCH  14  39
ATOM     39  O   UNL     1      23.738  38.662   7.271  1.00  0.00    -0.387 OA
ATOM     40  H   UNL     1      24.656  38.869   6.966  1.00  0.00     0.211 HD
ENDBRANCH  14  39
ENDBRANCH   8   9
ENDBRANCH   7   8
ENDBRANCH   1   7
BRANCH   1  41
ATOM     41  C   UNL     1      27.834  37.997   5.473  1.00  0.00     0.364 C 
ATOM     42  O   UNL     1      28.566  36.956   5.300  1.00  0.00    -0.246 OA
BRANCH  41  43
ATOM     43  O   UNL     1      27.793  38.860   4.418  1.00  0.00    -0.477 OA
ATOM     44  H   UNL     1      26.959  38.985   3.829  1.00  0.00     0.296 HD
ENDBRANCH  41  43
ENDBRANCH   1  41
BRANCH   3  45
ATOM     45  O   UNL     1      30.167  38.641   8.787  1.00  0.00    -0.391 OA
ATOM     46  H   UNL     1      29.683  37.973   9.368  1.00  0.00     0.211 HD
ENDBRANCH   3  45
BRANCH   5  47
ATOM     47  C   UNL     1      26.424  41.171   8.478  1.00  0.00     0.176 C 
BRANCH  47  48
ATOM     48  O   UNL     1      27.224  42.170   9.000  1.00  0.00    -0.388 OA
ATOM     49  H   UNL     1      28.060  42.333   8.531  1.00  0.00     0.211 HD
ENDBRANCH  47  48
BRANCH  47  50
ATOM     50  C   UNL     1      25.807  40.247   9.455  1.00  0.00     0.165 C 
BRANCH  50  51
ATOM     51  O   UNL     1      24.421  40.367   9.384  1.00  0.00    -0.388 OA
ATOM     52  H   UNL     1      24.251  40.844   8.521  1.00  0.00     0.211 HD
ENDBRANCH  50  51
BRANCH  50  53
ATOM     53  C   UNL     1      26.214  40.555  10.886  1.00  0.00     0.154 C 
BRANCH  53  54
ATOM     54  N   UNL     1      27.376  39.759  11.201  1.00  0.00    -0.319 N 
ATOM     55  C   UNL     1      28.636  40.416  11.469  1.00  0.00     0.407 C 
ATOM     56  H   UNL     1      27.351  38.715  11.239  1.00  0.00     0.167 HD
ATOM     57  O   UNL     1      28.735  41.669  11.431  1.00  0.00    -0.225 OA
BRANCH  55  58
ATOM     58  O   UNL     1      29.704  39.594  11.766  1.00  0.00    -0.443 OA
BRANCH  58  59
ATOM     59  C   UNL     1      29.885  39.073  13.049  1.00  0.00     0.294 C 
BRANCH  59  60
ATOM     60  C   UNL     1      29.612  37.629  13.099  1.00  0.00     0.121 A 
ATOM     61  C   UNL     1      30.234  36.749  13.997  1.00  0.00     0.144 A 
ATOM     62  N   UNL     1      28.783  36.895  12.368  1.00  0.00    -0.131 NA
ATOM     63  N   UNL     1      29.747  35.536  13.757  1.00  0.00    -0.220 N 
ATOM     64  N   UNL     1      28.886  35.646  12.785  1.00  0.00    -0.062 NA
BRANCH  63  65
ATOM     65  C   UNL     1      30.136  34.363  14.485  1.00  0.00     0.068 A 
ATOM     66  C   UNL     1      29.147  33.458  14.880  1.00  0.00     0.050 A 
ATOM     67  C   UNL     1      31.442  34.126  14.789  1.00  0.00     0.028 A 
ATOM     68  C   UNL     1      29.466  32.320  15.577  1.00  0.00     0.084 A 
ATOM     69  C   UNL     1      31.771  33.004  15.478  1.00  0.00     0.004 A 
ATOM     70  C   UNL     1      30.800  32.085  15.883  1.00  0.00     0.022 A 
BRANCH  68  71
ATOM     71  S   UNL     1      28.288  31.150  16.098  1.00  0.00     0.238 S 
ATOM     72  O   UNL     1      26.946  31.538  15.542  1.00  0.00    -0.207 OA
ATOM     73  O   UNL     1      28.202  31.126  17.590  1.00  0.00    -0.207 OA
BRANCH  71  74
ATOM     74  N   UNL     1      28.754  29.586  15.494  1.00  0.00    -0.225 NA
ATOM     75  H   UNL     1      28.367  28.858  16.135  1.00  0.00     0.137 HD
ATOM     76  H   UNL     1      29.782  29.521  15.345  1.00  0.00     0.137 HD
ENDBRANCH  71  74
ENDBRANCH  68  71
ENDBRANCH  63  65
ENDBRANCH  59  60
ENDBRANCH  58  59
ENDBRANCH  55  58
ENDBRANCH  53  54
ENDBRANCH  50  53
ENDBRANCH  47  50
ENDBRANCH   5  47
BRANCH   4  77
ATOM     77  N   UNL     1      29.481  41.224   7.192  1.00  0.00    -0.348 N 
ATOM     78  C   UNL     1      30.620  41.854   7.762  1.00  0.00     0.217 C 
ATOM     79  H   UNL     1      29.240  41.446   6.205  1.00  0.00     0.163 HD
ATOM     80  C   UNL     1      31.435  42.797   6.956  1.00  0.00     0.114 C 
ATOM     81  O   UNL     1      30.907  41.583   8.965  1.00  0.00    -0.275 OA
ENDBRANCH   4  77
TORSDOF 32
BEGIN_RES LYS A 131
REMARK  4 active torsions:
REMARK  status: ('A' for Active; 'I' for Inactive)
REMARK    1  A    between atoms: CA   and  CB  
REMARK    2  A    between atoms: CB   and  CG  
REMARK    3  A    between atoms: CG   and  CD  
REMARK    4  A    between atoms: CD   and  CE  
ROOT
ATOM      1  CA  LYS A 131      29.867  25.555  16.977  1.00 20.52     0.186 C 
ENDROOT
BRANCH   1   2
ATOM      2  CB  LYS A 131      28.345  25.722  17.026  1.00 20.94     0.034 C 
BRANCH   2   3
ATOM      3  CG  LYS A 131      27.601  24.402  16.893  1.00 22.96     0.005 C 
BRANCH   3   4
ATOM      4  CD  LYS A 131      26.151  24.529  17.269  1.00 24.33     0.041 C 
BRANCH   4   5
ATOM      5  CE  LYS A 131      25.632  23.180  17.757  1.00 26.91     0.338 C 
ATOM      6  NZ  LYS A 131      25.516  23.172  19.235  1.00 27.40     0.618 N 
ENDBRANCH   4   5
ENDBRANCH   3   4
ENDBRANCH   2   3
ENDBRANCH   1   2
END_RES LYS A 131
BEGIN_RES LYS A 135
REMARK  4 active torsions:
REMARK  status: ('A' for Active; 'I' for Inactive)
REMARK    5  A    between atoms: CA   and  CB  
REMARK    6  A    between atoms: CB   and  CG  
REMARK    7  A    between atoms: CG   and  CD  
REMARK    8  A    between atoms: CD   and  CE  
ROOT
ATOM      7  CA  LYS A 135      33.193  34.663   9.290  1.00 25.02     0.186 C 
ENDROOT
BRANCH   7   8
ATOM      8  CB  LYS A 135      32.060  35.360  10.034  1.00 26.63     0.034 C 
BRANCH   8   9
ATOM      9  CG  LYS A 135      30.733  34.657   9.906  1.00 29.45     0.005 C 
BRANCH   9  10
ATOM     10  CD  LYS A 135      30.320  34.552   8.446  1.00 32.00     0.041 C 
BRANCH  10  11
ATOM     11  CE  LYS A 135      28.812  34.437   8.327  1.00 34.25     0.338 C 
ATOM     12  NZ  LYS A 135      28.200  34.036   9.624  1.00 35.99     0.618 N 
ENDBRANCH  10  11
ENDBRANCH   9  10
ENDBRANCH   8   9
ENDBRANCH   7   8
END_RES LYS A 135
