REMARK VINA RESULT:    -4.584      1.978      6.341
REMARK INTER + INTRA:         -21.824
REMARK INTER:                 -12.273
REMARK INTRA:                  -9.551
REMARK UNBOUND:               -10.541
REMARK SMILES CC(=O)N[C@@H]1[C@@H](O)C[C@](OC[C@H]2O[C@@H](O[C@H]3[C@H](O)[C@@H](O)[C@H](OCCN=[N+]=[N-])O[C@@H]3CO)[C@H](O)[C@@H](O)[C@H]2O)(C(=O)O)O[C@H]1C(O)[C@H](O)CNC(=O)OCc1cn(-c2ccccc2)nn1
REMARK SMILES IDX 9 1 8 2 6 3 5 4 42 5 41 6 10 7 11 8 12 9 14 10 13 11 32 12
REMARK SMILES IDX 34 13 36 14 15 15 16 16 29 17 28 18 21 19 17 20 19 21 30 22
REMARK SMILES IDX 31 23 22 25 23 26 24 27 25 28 26 29 27 30 18 31 20 33 33 35
REMARK SMILES IDX 35 37 37 39 38 41 39 42 40 43 7 45 43 47 44 48 45 50 46 51
REMARK SMILES IDX 47 53 48 54 49 55 50 57 51 58 52 59 53 60 54 61 63 62 55 63
REMARK SMILES IDX 62 64 56 65 57 66 61 67 58 68 60 69 59 70 4 71 2 72 1 74
REMARK SMILES IDX 3 75
REMARK H PARENT 31 24 18 32 20 34 33 36 35 38 37 40 40 44 7 46 44 49 46 52
REMARK H PARENT 48 56 4 73
REMARK Flexibility Score: inf
ROOT
ATOM      1  C   UNL     1      31.469  34.034  16.853  1.00  0.00     0.272 C 
ATOM      2  C   UNL     1      32.441  35.121  16.580  1.00  0.00     0.113 C 
ATOM      3  C   UNL     1      32.009  36.115  15.567  1.00  0.00     0.145 C 
ATOM      4  C   UNL     1      30.545  36.465  15.754  1.00  0.00     0.142 C 
ATOM      5  C   UNL     1      29.785  35.163  15.642  1.00  0.00     0.178 C 
ATOM      6  O   UNL     1      30.106  34.450  16.768  1.00  0.00    -0.332 OA
ENDROOT
BRANCH   1   7
ATOM      7  O   UNL     1      31.521  33.506  18.110  1.00  0.00    -0.338 OA
BRANCH   7   8
ATOM      8  C   UNL     1      30.636  33.741  19.061  1.00  0.00     0.199 C 
BRANCH   8   9
ATOM      9  C   UNL     1      30.039  32.680  19.900  1.00  0.00     0.179 C 
ATOM     10  C   UNL     1      28.146  31.316  19.926  1.00  0.00     0.282 C 
ATOM     11  O   UNL     1      28.739  32.457  19.344  1.00  0.00    -0.341 OA
ATOM     12  C   UNL     1      28.907  30.747  21.077  1.00  0.00     0.202 C 
ATOM     13  C   UNL     1      30.314  30.367  20.671  1.00  0.00     0.179 C 
ATOM     14  C   UNL     1      30.801  31.369  19.665  1.00  0.00     0.177 C 
BRANCH  10  15
ATOM     15  O   UNL     1      28.031  30.379  18.965  1.00  0.00    -0.341 OA
BRANCH  15  16
ATOM     16  C   UNL     1      26.839  30.007  18.462  1.00  0.00     0.184 C 
ATOM     17  C   UNL     1      26.891  28.922  17.412  1.00  0.00     0.178 C 
ATOM     18  O   UNL     1      25.717  29.078  16.649  1.00  0.00    -0.341 OA
ATOM     19  C   UNL     1      26.020  30.090  15.714  1.00  0.00     0.281 C 
ATOM     20  C   UNL     1      26.037  31.179  17.896  1.00  0.00     0.180 C 
ATOM     21  C   UNL     1      26.371  31.377  16.432  1.00  0.00     0.202 C 
BRANCH  17  22
ATOM     22  C   UNL     1      26.840  27.534  18.012  1.00  0.00     0.191 C 
BRANCH  22  23
ATOM     23  O   UNL     1      27.995  27.342  18.776  1.00  0.00    -0.394 OA
ATOM     24  H   UNL     1      28.511  28.202  18.881  1.00  0.00     0.210 HD
ENDBRANCH  22  23
ENDBRANCH  17  22
BRANCH  19  25
ATOM     25  O   UNL     1      24.989  30.331  14.859  1.00  0.00    -0.350 OA
BRANCH  25  26
ATOM     26  C   UNL     1      24.758  31.626  14.485  1.00  0.00     0.169 C 
BRANCH  26  27
ATOM     27  C   UNL     1      24.189  31.803  13.113  1.00  0.00     0.119 C 
BRANCH  27  28
ATOM     28  N   UNL     1      22.856  32.282  13.145  1.00  0.00    -0.092 NA
ATOM     29  N   UNL     1      21.972  31.730  13.826  1.00  0.00     0.001 N 
ATOM     30  N   UNL     1      21.179  30.886  14.271  1.00  0.00    -0.003 NA
ENDBRANCH  27  28
ENDBRANCH  26  27
ENDBRANCH  25  26
ENDBRANCH  19  25
BRANCH  20  31
ATOM     31  O   UNL     1      24.665  30.989  17.980  1.00  0.00    -0.387 OA
ATOM     32  H   UNL     1      24.433  30.300  18.649  1.00  0.00     0.211 HD
ENDBRANCH  20  31
BRANCH  21  33
ATOM     33  O   UNL     1      27.694  31.711  16.230  1.00  0.00    -0.385 OA
ATOM     34  H   UNL     1      28.182  31.068  15.667  1.00  0.00     0.211 HD
ENDBRANCH  21  33
ENDBRANCH  15  16
ENDBRANCH  10  15
BRANCH  12  35
ATOM     35  O   UNL     1      28.846  31.498  22.244  1.00  0.00    -0.385 OA
ATOM     36  H   UNL     1      28.106  31.131  22.793  1.00  0.00     0.211 HD
ENDBRANCH  12  35
BRANCH  13  37
ATOM     37  O   UNL     1      30.282  29.120  20.075  1.00  0.00    -0.387 OA
ATOM     38  H   UNL     1      29.514  28.979  19.467  1.00  0.00     0.211 HD
ENDBRANCH  13  37
BRANCH  14  39
ATOM     39  O   UNL     1      30.467  30.970  18.351  1.00  0.00    -0.387 OA
ATOM     40  H   UNL     1      30.661  30.021  18.206  1.00  0.00     0.211 HD
ENDBRANCH  14  39
ENDBRANCH   8   9
ENDBRANCH   7   8
ENDBRANCH   1   7
BRANCH   1  41
ATOM     41  C   UNL     1      31.543  33.014  15.783  1.00  0.00     0.364 C 
ATOM     42  O   UNL     1      30.777  32.051  15.747  1.00  0.00    -0.246 OA
BRANCH  41  43
ATOM     43  O   UNL     1      32.513  33.125  14.765  1.00  0.00    -0.477 OA
ATOM     44  H   UNL     1      32.719  32.299  14.206  1.00  0.00     0.296 HD
ENDBRANCH  41  43
ENDBRANCH   1  41
BRANCH   3  45
ATOM     45  O   UNL     1      32.820  37.245  15.645  1.00  0.00    -0.391 OA
ATOM     46  H   UNL     1      32.235  38.007  15.802  1.00  0.00     0.211 HD
ENDBRANCH   3  45
BRANCH   5  47
ATOM     47  C   UNL     1      28.279  35.399  15.694  1.00  0.00     0.176 C 
BRANCH  47  48
ATOM     48  O   UNL     1      27.667  34.336  15.087  1.00  0.00    -0.388 OA
ATOM     49  H   UNL     1      27.707  34.345  14.106  1.00  0.00     0.211 HD
ENDBRANCH  47  48
BRANCH  47  50
ATOM     50  C   UNL     1      27.722  35.698  17.022  1.00  0.00     0.165 C 
BRANCH  50  51
ATOM     51  O   UNL     1      27.248  34.453  17.544  1.00  0.00    -0.388 OA
ATOM     52  H   UNL     1      26.551  34.153  16.932  1.00  0.00     0.211 HD
ENDBRANCH  50  51
BRANCH  50  53
ATOM     53  C   UNL     1      26.444  36.548  16.933  1.00  0.00     0.154 C 
BRANCH  53  54
ATOM     54  N   UNL     1      25.777  36.388  15.665  1.00  0.00    -0.319 N 
ATOM     55  C   UNL     1      24.696  35.457  15.494  1.00  0.00     0.407 C 
ATOM     56  H   UNL     1      26.034  36.929  14.813  1.00  0.00     0.167 HD
ATOM     57  O   UNL     1      24.290  34.762  16.454  1.00  0.00    -0.225 OA
BRANCH  55  58
ATOM     58  O   UNL     1      24.073  35.307  14.269  1.00  0.00    -0.443 OA
BRANCH  58  59
ATOM     59  C   UNL     1      23.709  36.435  13.481  1.00  0.00     0.294 C 
BRANCH  59  60
ATOM     60  C   UNL     1      23.914  36.015  12.063  1.00  0.00     0.121 A 
ATOM     61  C   UNL     1      25.056  36.320  11.334  1.00  0.00     0.144 A 
ATOM     62  N   UNL     1      23.134  35.318  11.233  1.00  0.00    -0.131 NA
ATOM     63  N   UNL     1      24.935  35.799  10.085  1.00  0.00    -0.220 N 
ATOM     64  N   UNL     1      23.765  35.203  10.060  1.00  0.00    -0.062 NA
BRANCH  63  65
ATOM     65  C   UNL     1      25.880  35.891   9.031  1.00  0.00     0.066 A 
ATOM     66  C   UNL     1      26.500  34.777   8.514  1.00  0.00     0.028 A 
ATOM     67  C   UNL     1      26.193  37.119   8.492  1.00  0.00     0.028 A 
ATOM     68  C   UNL     1      27.414  34.857   7.485  1.00  0.00     0.002 A 
ATOM     69  C   UNL     1      27.113  37.195   7.457  1.00  0.00     0.002 A 
ATOM     70  C   UNL     1      27.742  36.095   6.929  1.00  0.00     0.000 A 
ENDBRANCH  63  65
ENDBRANCH  59  60
ENDBRANCH  58  59
ENDBRANCH  55  58
ENDBRANCH  53  54
ENDBRANCH  50  53
ENDBRANCH  47  50
ENDBRANCH   5  47
BRANCH   4  71
ATOM     71  N   UNL     1      30.133  37.515  14.892  1.00  0.00    -0.348 N 
ATOM     72  C   UNL     1      29.616  38.711  15.456  1.00  0.00     0.217 C 
ATOM     73  H   UNL     1      30.206  37.450  13.860  1.00  0.00     0.163 HD
ATOM     74  C   UNL     1      29.175  39.832  14.571  1.00  0.00     0.114 C 
ATOM     75  O   UNL     1      29.508  38.881  16.708  1.00  0.00    -0.275 OA
ENDBRANCH   4  71
TORSDOF 30
BEGIN_RES LYS A 131
REMARK  4 active torsions:
REMARK  status: ('A' for Active; 'I' for Inactive)
REMARK    1  A    between atoms: CA   and  CB  
REMARK    2  A    between atoms: CB   and  CG  
REMARK    3  A    between atoms: CG   and  CD  
REMARK    4  A    between atoms: CD   and  CE  
ROOT
ATOM      1  CA  LYS A 131      29.867  25.555  16.977  1.00 20.52     0.186 C 
ENDROOT
BRANCH   1   2
ATOM      2  CB  LYS A 131      28.345  25.722  17.026  1.00 20.94     0.034 C 
BRANCH   2   3
ATOM      3  CG  LYS A 131      27.599  24.444  16.676  1.00 22.96     0.005 C 
BRANCH   3   4
ATOM      4  CD  LYS A 131      27.029  23.769  17.893  1.00 24.33     0.041 C 
BRANCH   4   5
ATOM      5  CE  LYS A 131      25.588  23.352  17.617  1.00 26.91     0.338 C 
ATOM      6  NZ  LYS A 131      24.859  24.438  16.919  1.00 27.40     0.618 N 
ENDBRANCH   4   5
ENDBRANCH   3   4
ENDBRANCH   2   3
ENDBRANCH   1   2
END_RES LYS A 131
BEGIN_RES LYS A 135
REMARK  4 active torsions:
REMARK  status: ('A' for Active; 'I' for Inactive)
REMARK    5  A    between atoms: CA   and  CB  
REMARK    6  A    between atoms: CB   and  CG  
REMARK    7  A    between atoms: CG   and  CD  
REMARK    8  A    between atoms: CD   and  CE  
ROOT
ATOM      7  CA  LYS A 135      33.193  34.663   9.290  1.00 25.02     0.186 C 
ENDROOT
BRANCH   7   8
ATOM      8  CB  LYS A 135      32.060  35.360  10.034  1.00 26.63     0.034 C 
BRANCH   8   9
ATOM      9  CG  LYS A 135      30.707  35.148   9.406  1.00 29.45     0.005 C 
BRANCH   9  10
ATOM     10  CD  LYS A 135      29.625  35.849  10.213  1.00 32.00     0.041 C 
BRANCH  10  11
ATOM     11  CE  LYS A 135      28.917  34.865  11.125  1.00 34.25     0.338 C 
ATOM     12  NZ  LYS A 135      29.699  34.631  12.370  1.00 35.99     0.618 N 
ENDBRANCH  10  11
ENDBRANCH   9  10
ENDBRANCH   8   9
ENDBRANCH   7   8
END_RES LYS A 135
