REMARK VINA RESULT:    -4.596      3.765      8.313
REMARK INTER + INTRA:         -22.785
REMARK INTER:                 -13.111
REMARK INTRA:                  -9.674
REMARK UNBOUND:               -11.068
REMARK SMILES CC(=O)N[C@@H]1[C@@H](O)C[C@](OC[C@H]2O[C@@H](O[C@H]3[C@H](O)[C@@H](O)[C@H](OCCN=[N+]=[N-])O[C@@H]3CO)[C@H](O)[C@@H](O)[C@H]2O)(C(=O)O)O[C@H]1C(O)[C@H](O)CNC(=O)OCc1cn(Cc2cc(Br)cc(Br)c2O)nn1
REMARK SMILES IDX 9 1 8 2 6 3 5 4 42 5 41 6 10 7 11 8 12 9 14 10 13 11 32 12
REMARK SMILES IDX 34 13 36 14 15 15 16 16 29 17 28 18 21 19 17 20 19 21 30 22
REMARK SMILES IDX 31 23 22 25 23 26 24 27 25 28 26 29 27 30 18 31 20 33 33 35
REMARK SMILES IDX 35 37 37 39 38 41 39 42 40 43 7 45 43 47 44 48 45 50 46 51
REMARK SMILES IDX 47 53 48 54 49 55 50 57 51 58 52 59 53 60 54 61 67 62 55 63
REMARK SMILES IDX 66 64 56 65 57 66 58 67 64 68 59 69 62 70 60 71 61 72 63 73
REMARK SMILES IDX 65 74 4 76 2 77 1 79 3 80
REMARK H PARENT 31 24 18 32 20 34 33 36 35 38 37 40 40 44 7 46 44 49 46 52
REMARK H PARENT 48 56 65 75 4 78
REMARK Flexibility Score: inf
ROOT
ATOM      1  C   UNL     1      22.791  36.378   9.147  1.00  0.00     0.272 C 
ATOM      2  C   UNL     1      22.992  37.775   9.907  1.00  0.00     0.113 C 
ATOM      3  C   UNL     1      21.695  38.459  10.058  1.00  0.00     0.145 C 
ATOM      4  C   UNL     1      20.710  37.562  10.761  1.00  0.00     0.142 C 
ATOM      5  C   UNL     1      21.033  36.099  10.725  1.00  0.00     0.178 C 
ATOM      6  O   UNL     1      21.968  35.628   9.908  1.00  0.00    -0.332 OA
ENDROOT
BRANCH   1   7
ATOM      7  O   UNL     1      24.061  35.913   9.197  1.00  0.00    -0.338 OA
BRANCH   7   8
ATOM      8  C   UNL     1      24.778  35.701  10.283  1.00  0.00     0.199 C 
BRANCH   8   9
ATOM      9  C   UNL     1      26.012  34.869  10.261  1.00  0.00     0.179 C 
ATOM     10  C   UNL     1      27.572  36.599  10.220  1.00  0.00     0.282 C 
ATOM     11  O   UNL     1      27.064  35.471   9.661  1.00  0.00    -0.341 OA
ATOM     12  C   UNL     1      27.688  36.506  11.707  1.00  0.00     0.202 C 
ATOM     13  C   UNL     1      27.606  35.073  12.159  1.00  0.00     0.179 C 
ATOM     14  C   UNL     1      26.383  34.365  11.658  1.00  0.00     0.177 C 
BRANCH  10  15
ATOM     15  O   UNL     1      26.877  37.738   9.783  1.00  0.00    -0.341 OA
BRANCH  15  16
ATOM     16  C   UNL     1      27.435  38.354   8.686  1.00  0.00     0.184 C 
ATOM     17  C   UNL     1      27.740  39.809   8.960  1.00  0.00     0.178 C 
ATOM     18  O   UNL     1      28.056  40.539   7.851  1.00  0.00    -0.341 OA
ATOM     19  C   UNL     1      28.350  39.821   6.706  1.00  0.00     0.281 C 
ATOM     20  C   UNL     1      26.453  38.393   7.510  1.00  0.00     0.180 C 
ATOM     21  C   UNL     1      27.263  38.854   6.322  1.00  0.00     0.202 C 
BRANCH  17  22
ATOM     22  C   UNL     1      28.799  39.991  10.028  1.00  0.00     0.191 C 
BRANCH  22  23
ATOM     23  O   UNL     1      28.258  39.923  11.293  1.00  0.00    -0.394 OA
ATOM     24  H   UNL     1      28.286  38.985  11.593  1.00  0.00     0.210 HD
ENDBRANCH  22  23
ENDBRANCH  17  22
BRANCH  19  25
ATOM     25  O   UNL     1      29.582  39.208   6.867  1.00  0.00    -0.350 OA
BRANCH  25  26
ATOM     26  C   UNL     1      30.423  39.503   5.828  1.00  0.00     0.169 C 
BRANCH  26  27
ATOM     27  C   UNL     1      31.377  40.624   6.057  1.00  0.00     0.119 C 
BRANCH  27  28
ATOM     28  N   UNL     1      31.719  40.800   7.454  1.00  0.00    -0.092 NA
ATOM     29  N   UNL     1      31.447  41.806   8.077  1.00  0.00     0.001 N 
ATOM     30  N   UNL     1      31.022  42.625   8.889  1.00  0.00    -0.003 NA
ENDBRANCH  27  28
ENDBRANCH  26  27
ENDBRANCH  25  26
ENDBRANCH  19  25
BRANCH  20  31
ATOM     31  O   UNL     1      25.803  37.209   7.298  1.00  0.00    -0.387 OA
ATOM     32  H   UNL     1      26.033  36.618   8.084  1.00  0.00     0.211 HD
ENDBRANCH  20  31
BRANCH  21  33
ATOM     33  O   UNL     1      26.459  39.429   5.345  1.00  0.00    -0.385 OA
ATOM     34  H   UNL     1      25.808  38.787   5.013  1.00  0.00     0.211 HD
ENDBRANCH  21  33
ENDBRANCH  15  16
ENDBRANCH  10  15
BRANCH  12  35
ATOM     35  O   UNL     1      28.941  37.056  12.070  1.00  0.00    -0.385 OA
ATOM     36  H   UNL     1      28.825  37.352  13.004  1.00  0.00     0.211 HD
ENDBRANCH  12  35
BRANCH  13  37
ATOM     37  O   UNL     1      27.722  34.956  13.544  1.00  0.00    -0.387 OA
ATOM     38  H   UNL     1      27.359  34.062  13.771  1.00  0.00     0.211 HD
ENDBRANCH  13  37
BRANCH  14  39
ATOM     39  O   UNL     1      25.326  34.592  12.521  1.00  0.00    -0.387 OA
ATOM     40  H   UNL     1      24.997  35.527  12.438  1.00  0.00     0.211 HD
ENDBRANCH  14  39
ENDBRANCH   8   9
ENDBRANCH   7   8
ENDBRANCH   1   7
BRANCH   1  41
ATOM     41  C   UNL     1      22.244  36.734   7.842  1.00  0.00     0.364 C 
ATOM     42  O   UNL     1      21.092  36.300   7.464  1.00  0.00    -0.246 OA
BRANCH  41  43
ATOM     43  O   UNL     1      22.870  37.537   6.924  1.00  0.00    -0.477 OA
ATOM     44  H   UNL     1      22.451  38.403   6.619  1.00  0.00     0.296 HD
ENDBRANCH  41  43
ENDBRANCH   1  41
BRANCH   3  45
ATOM     45  O   UNL     1      21.896  39.657  10.768  1.00  0.00    -0.391 OA
ATOM     46  H   UNL     1      22.036  40.399  10.136  1.00  0.00     0.211 HD
ENDBRANCH   3  45
BRANCH   5  47
ATOM     47  C   UNL     1      21.155  35.623  12.160  1.00  0.00     0.176 C 
BRANCH  47  48
ATOM     48  O   UNL     1      19.900  35.761  12.805  1.00  0.00    -0.388 OA
ATOM     49  H   UNL     1      19.270  35.084  12.488  1.00  0.00     0.211 HD
ENDBRANCH  47  48
BRANCH  47  50
ATOM     50  C   UNL     1      21.724  34.277  12.348  1.00  0.00     0.165 C 
BRANCH  50  51
ATOM     51  O   UNL     1      21.063  33.314  11.618  1.00  0.00    -0.388 OA
ATOM     52  H   UNL     1      20.352  33.678  11.034  1.00  0.00     0.211 HD
ENDBRANCH  50  51
BRANCH  50  53
ATOM     53  C   UNL     1      21.968  33.806  13.740  1.00  0.00     0.154 C 
BRANCH  53  54
ATOM     54  N   UNL     1      23.271  33.316  14.032  1.00  0.00    -0.319 N 
ATOM     55  C   UNL     1      23.531  31.928  13.769  1.00  0.00     0.407 C 
ATOM     56  H   UNL     1      24.033  33.880  14.439  1.00  0.00     0.167 HD
ATOM     57  O   UNL     1      22.592  31.204  13.289  1.00  0.00    -0.225 OA
BRANCH  55  58
ATOM     58  O   UNL     1      24.765  31.402  14.029  1.00  0.00    -0.443 OA
BRANCH  58  59
ATOM     59  C   UNL     1      25.161  30.985  15.310  1.00  0.00     0.294 C 
BRANCH  59  60
ATOM     60  C   UNL     1      26.552  31.409  15.589  1.00  0.00     0.120 A 
ATOM     61  C   UNL     1      27.595  30.695  16.166  1.00  0.00     0.138 A 
ATOM     62  N   UNL     1      27.087  32.609  15.316  1.00  0.00    -0.132 NA
ATOM     63  N   UNL     1      28.697  31.455  16.229  1.00  0.00    -0.248 N 
ATOM     64  N   UNL     1      28.349  32.630  15.696  1.00  0.00    -0.067 NA
BRANCH  63  65
ATOM     65  C   UNL     1      30.030  31.139  16.754  1.00  0.00     0.185 C 
BRANCH  65  66
ATOM     66  C   UNL     1      30.765  32.416  16.900  1.00  0.00     0.018 A 
ATOM     67  C   UNL     1      30.745  33.060  18.122  1.00  0.00     0.025 A 
ATOM     68  C   UNL     1      31.474  32.991  15.852  1.00  0.00     0.134 A 
ATOM     69  C   UNL     1      31.412  34.258  18.330  1.00  0.00     0.019 A 
ATOM     70  C   UNL     1      32.151  34.187  16.028  1.00  0.00     0.061 A 
ATOM     71  Br  UNL     1      31.356  35.110  20.032  1.00  0.00    -0.051 Br
ATOM     72  C   UNL     1      32.106  34.805  17.278  1.00  0.00     0.035 A 
ATOM     73  Br  UNL     1      33.109  34.946  14.589  1.00  0.00    -0.047 Br
BRANCH  68  74
ATOM     74  O   UNL     1      31.454  32.298  14.657  1.00  0.00    -0.506 OA
ATOM     75  H   UNL     1      31.645  31.310  14.655  1.00  0.00     0.293 HD
ENDBRANCH  68  74
ENDBRANCH  65  66
ENDBRANCH  63  65
ENDBRANCH  59  60
ENDBRANCH  58  59
ENDBRANCH  55  58
ENDBRANCH  53  54
ENDBRANCH  50  53
ENDBRANCH  47  50
ENDBRANCH   5  47
BRANCH   4  76
ATOM     76  N   UNL     1      19.365  37.885  10.334  1.00  0.00    -0.348 N 
ATOM     77  C   UNL     1      18.584  38.765  11.126  1.00  0.00     0.217 C 
ATOM     78  H   UNL     1      18.933  37.496   9.464  1.00  0.00     0.163 HD
ATOM     79  C   UNL     1      17.194  39.099  10.684  1.00  0.00     0.114 C 
ATOM     80  O   UNL     1      19.071  39.261  12.197  1.00  0.00    -0.275 OA
ENDBRANCH   4  76
TORSDOF 32
BEGIN_RES LYS A 131
REMARK  4 active torsions:
REMARK  status: ('A' for Active; 'I' for Inactive)
REMARK    1  A    between atoms: CA   and  CB  
REMARK    2  A    between atoms: CB   and  CG  
REMARK    3  A    between atoms: CG   and  CD  
REMARK    4  A    between atoms: CD   and  CE  
ROOT
ATOM      1  CA  LYS A 131      29.867  25.555  16.977  1.00 20.52     0.186 C 
ENDROOT
BRANCH   1   2
ATOM      2  CB  LYS A 131      28.345  25.722  17.026  1.00 20.94     0.034 C 
BRANCH   2   3
ATOM      3  CG  LYS A 131      27.602  24.400  16.916  1.00 22.96     0.005 C 
BRANCH   3   4
ATOM      4  CD  LYS A 131      26.647  24.190  18.059  1.00 24.33     0.041 C 
BRANCH   4   5
ATOM      5  CE  LYS A 131      25.901  25.489  18.344  1.00 26.91     0.338 C 
ATOM      6  NZ  LYS A 131      25.653  25.637  19.798  1.00 27.40     0.618 N 
ENDBRANCH   4   5
ENDBRANCH   3   4
ENDBRANCH   2   3
ENDBRANCH   1   2
END_RES LYS A 131
BEGIN_RES LYS A 135
REMARK  4 active torsions:
REMARK  status: ('A' for Active; 'I' for Inactive)
REMARK    5  A    between atoms: CA   and  CB  
REMARK    6  A    between atoms: CB   and  CG  
REMARK    7  A    between atoms: CG   and  CD  
REMARK    8  A    between atoms: CD   and  CE  
ROOT
ATOM      7  CA  LYS A 135      33.193  34.663   9.290  1.00 25.02     0.186 C 
ENDROOT
BRANCH   7   8
ATOM      8  CB  LYS A 135      32.060  35.360  10.034  1.00 26.63     0.034 C 
BRANCH   8   9
ATOM      9  CG  LYS A 135      30.723  34.685   9.866  1.00 29.45     0.005 C 
BRANCH   9  10
ATOM     10  CD  LYS A 135      30.409  34.476   8.392  1.00 32.00     0.041 C 
BRANCH  10  11
ATOM     11  CE  LYS A 135      29.949  35.774   7.757  1.00 34.25     0.338 C 
ATOM     12  NZ  LYS A 135      28.892  35.528   6.738  1.00 35.99     0.618 N 
ENDBRANCH  10  11
ENDBRANCH   9  10
ENDBRANCH   8   9
ENDBRANCH   7   8
END_RES LYS A 135
