REMARK VINA RESULT:    -4.803      3.632      6.937
REMARK INTER + INTRA:         -21.535
REMARK INTER:                 -11.161
REMARK INTRA:                 -10.374
REMARK UNBOUND:                -9.712
REMARK SMILES CC(=O)N[C@@H]1[C@@H](O)C[C@](OC[C@H]2O[C@@H](O[C@H]3[C@H](O)[C@@H](O)[C@H](OCCN=[N+]=[N-])O[C@@H]3CO)[C@H](O)[C@@H](O)[C@H]2O)(C(=O)O)O[C@H]1C(O)[C@H](O)CNC(=O)OCc1cn(C2CCCCC2)nn1
REMARK SMILES IDX 9 1 8 2 6 3 5 4 42 5 41 6 10 7 11 8 12 9 14 10 13 11 32 12
REMARK SMILES IDX 34 13 36 14 15 15 16 16 29 17 28 18 21 19 17 20 19 21 30 22
REMARK SMILES IDX 31 23 22 25 23 26 24 27 25 28 26 29 27 30 18 31 20 33 33 35
REMARK SMILES IDX 35 37 37 39 38 41 39 42 40 43 7 45 43 47 44 48 45 50 46 51
REMARK SMILES IDX 47 53 48 54 49 55 50 57 51 58 52 59 53 60 54 61 63 62 55 63
REMARK SMILES IDX 62 64 56 65 57 66 61 67 58 68 60 69 59 70 4 71 2 72 1 74
REMARK SMILES IDX 3 75
REMARK H PARENT 31 24 18 32 20 34 33 36 35 38 37 40 40 44 7 46 44 49 46 52
REMARK H PARENT 48 56 4 73
REMARK Flexibility Score: inf
ROOT
ATOM      1  C   UNL     1      31.379  29.701  21.730  1.00  0.00     0.272 C 
ATOM      2  C   UNL     1      32.453  28.554  21.827  1.00  0.00     0.113 C 
ATOM      3  C   UNL     1      31.774  27.227  21.680  1.00  0.00     0.145 C 
ATOM      4  C   UNL     1      30.676  27.065  22.698  1.00  0.00     0.142 C 
ATOM      5  C   UNL     1      29.914  28.317  22.957  1.00  0.00     0.178 C 
ATOM      6  O   UNL     1      30.381  29.498  22.605  1.00  0.00    -0.332 OA
ENDROOT
BRANCH   1   7
ATOM      7  O   UNL     1      31.000  29.648  20.461  1.00  0.00    -0.338 OA
BRANCH   7   8
ATOM      8  C   UNL     1      30.299  30.401  19.682  1.00  0.00     0.199 C 
BRANCH   8   9
ATOM      9  C   UNL     1      29.149  31.258  20.185  1.00  0.00     0.179 C 
ATOM     10  C   UNL     1      28.216  33.007  18.933  1.00  0.00     0.282 C 
ATOM     11  O   UNL     1      29.230  32.547  19.766  1.00  0.00    -0.341 OA
ATOM     12  C   UNL     1      26.900  32.761  19.567  1.00  0.00     0.202 C 
ATOM     13  C   UNL     1      26.711  31.344  20.053  1.00  0.00     0.179 C 
ATOM     14  C   UNL     1      27.898  30.531  19.705  1.00  0.00     0.177 C 
BRANCH  10  15
ATOM     15  O   UNL     1      28.458  32.534  17.695  1.00  0.00    -0.341 OA
BRANCH  15  16
ATOM     16  C   UNL     1      29.196  33.256  16.816  1.00  0.00     0.184 C 
ATOM     17  C   UNL     1      28.761  32.871  15.417  1.00  0.00     0.178 C 
ATOM     18  O   UNL     1      29.239  33.742  14.457  1.00  0.00    -0.341 OA
ATOM     19  C   UNL     1      30.396  34.389  14.800  1.00  0.00     0.281 C 
ATOM     20  C   UNL     1      30.678  32.952  16.860  1.00  0.00     0.180 C 
ATOM     21  C   UNL     1      31.300  33.539  15.615  1.00  0.00     0.202 C 
BRANCH  17  22
ATOM     22  C   UNL     1      27.286  32.613  15.294  1.00  0.00     0.191 C 
BRANCH  22  23
ATOM     23  O   UNL     1      26.687  33.796  14.860  1.00  0.00    -0.394 OA
ATOM     24  H   UNL     1      27.224  34.591  15.086  1.00  0.00     0.210 HD
ENDBRANCH  22  23
ENDBRANCH  17  22
BRANCH  19  25
ATOM     25  O   UNL     1      30.098  35.626  15.306  1.00  0.00    -0.350 OA
BRANCH  25  26
ATOM     26  C   UNL     1      31.197  36.349  15.743  1.00  0.00     0.169 C 
BRANCH  26  27
ATOM     27  C   UNL     1      30.961  37.102  17.024  1.00  0.00     0.119 C 
BRANCH  27  28
ATOM     28  N   UNL     1      32.248  37.394  17.621  1.00  0.00    -0.092 NA
ATOM     29  N   UNL     1      32.993  36.424  17.815  1.00  0.00     0.001 N 
ATOM     30  N   UNL     1      33.566  35.574  18.519  1.00  0.00    -0.003 NA
ENDBRANCH  27  28
ENDBRANCH  26  27
ENDBRANCH  25  26
ENDBRANCH  19  25
BRANCH  20  31
ATOM     31  O   UNL     1      31.319  33.479  17.955  1.00  0.00    -0.387 OA
ATOM     32  H   UNL     1      31.027  34.399  18.174  1.00  0.00     0.211 HD
ENDBRANCH  20  31
BRANCH  21  33
ATOM     33  O   UNL     1      31.662  32.434  14.805  1.00  0.00    -0.385 OA
ATOM     34  H   UNL     1      32.234  31.807  15.311  1.00  0.00     0.211 HD
ENDBRANCH  21  33
ENDBRANCH  15  16
ENDBRANCH  10  15
BRANCH  12  35
ATOM     35  O   UNL     1      26.868  33.575  20.730  1.00  0.00    -0.385 OA
ATOM     36  H   UNL     1      26.010  34.044  20.818  1.00  0.00     0.211 HD
ENDBRANCH  12  35
BRANCH  13  37
ATOM     37  O   UNL     1      25.553  30.769  19.493  1.00  0.00    -0.387 OA
ATOM     38  H   UNL     1      25.148  31.413  18.890  1.00  0.00     0.211 HD
ENDBRANCH  13  37
BRANCH  14  39
ATOM     39  O   UNL     1      27.985  30.075  18.418  1.00  0.00    -0.387 OA
ATOM     40  H   UNL     1      27.104  30.193  17.989  1.00  0.00     0.211 HD
ENDBRANCH  14  39
ENDBRANCH   8   9
ENDBRANCH   7   8
ENDBRANCH   1   7
BRANCH   1  41
ATOM     41  C   UNL     1      32.149  30.905  22.199  1.00  0.00     0.364 C 
ATOM     42  O   UNL     1      31.653  31.875  22.760  1.00  0.00    -0.246 OA
BRANCH  41  43
ATOM     43  O   UNL     1      33.542  30.959  21.996  1.00  0.00    -0.477 OA
ATOM     44  H   UNL     1      34.174  30.720  22.743  1.00  0.00     0.296 HD
ENDBRANCH  41  43
ENDBRANCH   1  41
BRANCH   3  45
ATOM     45  O   UNL     1      31.322  27.023  20.382  1.00  0.00    -0.391 OA
ATOM     46  H   UNL     1      31.487  26.063  20.154  1.00  0.00     0.211 HD
ENDBRANCH   3  45
BRANCH   5  47
ATOM     47  C   UNL     1      28.482  28.198  22.350  1.00  0.00     0.176 C 
BRANCH  47  48
ATOM     48  O   UNL     1      28.328  26.901  21.823  1.00  0.00    -0.388 OA
ATOM     49  H   UNL     1      29.120  26.350  21.982  1.00  0.00     0.211 HD
ENDBRANCH  47  48
BRANCH  47  50
ATOM     50  C   UNL     1      27.428  28.526  23.352  1.00  0.00     0.165 C 
BRANCH  50  51
ATOM     51  O   UNL     1      27.785  27.850  24.543  1.00  0.00    -0.388 OA
ATOM     52  H   UNL     1      28.297  27.039  24.358  1.00  0.00     0.211 HD
ENDBRANCH  50  51
BRANCH  50  53
ATOM     53  C   UNL     1      26.041  28.113  23.030  1.00  0.00     0.154 C 
BRANCH  53  54
ATOM     54  N   UNL     1      25.571  28.462  21.716  1.00  0.00    -0.319 N 
ATOM     55  C   UNL     1      25.345  27.506  20.689  1.00  0.00     0.407 C 
ATOM     56  H   UNL     1      25.380  29.456  21.499  1.00  0.00     0.167 HD
ATOM     57  O   UNL     1      25.557  26.288  20.908  1.00  0.00    -0.225 OA
BRANCH  55  58
ATOM     58  O   UNL     1      24.899  27.867  19.448  1.00  0.00    -0.443 OA
BRANCH  58  59
ATOM     59  C   UNL     1      25.397  27.420  18.210  1.00  0.00     0.294 C 
BRANCH  59  60
ATOM     60  C   UNL     1      24.976  28.367  17.155  1.00  0.00     0.120 A 
ATOM     61  C   UNL     1      23.782  28.265  16.500  1.00  0.00     0.138 A 
ATOM     62  N   UNL     1      25.614  29.429  16.652  1.00  0.00    -0.132 NA
ATOM     63  N   UNL     1      23.705  29.272  15.600  1.00  0.00    -0.249 N 
ATOM     64  N   UNL     1      24.835  29.965  15.716  1.00  0.00    -0.067 NA
BRANCH  63  65
ATOM     65  C   UNL     1      22.601  29.526  14.695  1.00  0.00     0.109 C 
ATOM     66  C   UNL     1      23.068  29.036  13.327  1.00  0.00     0.027 C 
ATOM     67  C   UNL     1      22.327  31.011  14.601  1.00  0.00     0.027 C 
ATOM     68  C   UNL     1      21.919  29.186  12.329  1.00  0.00     0.002 C 
ATOM     69  C   UNL     1      22.301  31.507  13.169  1.00  0.00     0.002 C 
ATOM     70  C   UNL     1      21.458  30.608  12.317  1.00  0.00     0.000 C 
ENDBRANCH  63  65
ENDBRANCH  59  60
ENDBRANCH  58  59
ENDBRANCH  55  58
ENDBRANCH  53  54
ENDBRANCH  50  53
ENDBRANCH  47  50
ENDBRANCH   5  47
BRANCH   4  71
ATOM     71  N   UNL     1      31.141  26.403  23.888  1.00  0.00    -0.348 N 
ATOM     72  C   UNL     1      30.383  25.493  24.643  1.00  0.00     0.217 C 
ATOM     73  H   UNL     1      32.125  26.580  24.270  1.00  0.00     0.163 HD
ATOM     74  C   UNL     1      30.937  24.826  25.871  1.00  0.00     0.114 C 
ATOM     75  O   UNL     1      29.229  25.200  24.333  1.00  0.00    -0.275 OA
ENDBRANCH   4  71
TORSDOF 30
BEGIN_RES LYS A 131
REMARK  4 active torsions:
REMARK  status: ('A' for Active; 'I' for Inactive)
REMARK    1  A    between atoms: CA   and  CB  
REMARK    2  A    between atoms: CB   and  CG  
REMARK    3  A    between atoms: CG   and  CD  
REMARK    4  A    between atoms: CD   and  CE  
ROOT
ATOM      1  CA  LYS A 131      29.867  25.555  16.977  1.00 20.52     0.186 C 
ENDROOT
BRANCH   1   2
ATOM      2  CB  LYS A 131      28.345  25.722  17.026  1.00 20.94     0.034 C 
BRANCH   2   3
ATOM      3  CG  LYS A 131      27.599  24.430  16.729  1.00 22.96     0.005 C 
BRANCH   3   4
ATOM      4  CD  LYS A 131      26.968  23.844  17.961  1.00 24.33     0.041 C 
BRANCH   4   5
ATOM      5  CE  LYS A 131      25.507  23.514  17.677  1.00 26.91     0.338 C 
ATOM      6  NZ  LYS A 131      24.790  23.203  18.937  1.00 27.40     0.618 N 
ENDBRANCH   4   5
ENDBRANCH   3   4
ENDBRANCH   2   3
ENDBRANCH   1   2
END_RES LYS A 131
BEGIN_RES LYS A 135
REMARK  4 active torsions:
REMARK  status: ('A' for Active; 'I' for Inactive)
REMARK    5  A    between atoms: CA   and  CB  
REMARK    6  A    between atoms: CB   and  CG  
REMARK    7  A    between atoms: CG   and  CD  
REMARK    8  A    between atoms: CD   and  CE  
ROOT
ATOM      7  CA  LYS A 135      33.193  34.663   9.290  1.00 25.02     0.186 C 
ENDROOT
BRANCH   7   8
ATOM      8  CB  LYS A 135      32.060  35.360  10.034  1.00 26.63     0.034 C 
BRANCH   8   9
ATOM      9  CG  LYS A 135      30.735  34.653   9.912  1.00 29.45     0.005 C 
BRANCH   9  10
ATOM     10  CD  LYS A 135      30.337  34.506   8.451  1.00 32.00     0.041 C 
BRANCH  10  11
ATOM     11  CE  LYS A 135      28.829  34.544   8.303  1.00 34.25     0.338 C 
ATOM     12  NZ  LYS A 135      28.161  33.842   9.434  1.00 35.99     0.618 N 
ENDBRANCH  10  11
ENDBRANCH   9  10
ENDBRANCH   8   9
ENDBRANCH   7   8
END_RES LYS A 135
