REMARK VINA RESULT:    -5.388      0.000      0.000
REMARK INTER + INTRA:         -23.805
REMARK INTER:                 -10.295
REMARK INTRA:                 -13.510
REMARK UNBOUND:                -9.598
REMARK SMILES CC(=O)N[C@@H]1[C@@H](O)C[C@](OC[C@H]2O[C@@H](O[C@H]3[C@H](O)[C@@H](O)[C@H](OCCN=[N+]=[N-])O[C@@H]3CO)[C@H](O)[C@@H](O)[C@H]2O)(C(=O)O)O[C@H]1C(O)[C@H](O)CNC(=O)OCc1cn(Cc2ccccc2OC(C)=O)nn1
REMARK SMILES IDX 43 1 42 2 9 3 8 4 41 5 6 6 5 7 10 8 11 9 12 10 14 11 13 12
REMARK SMILES IDX 32 13 34 14 36 15 15 16 16 17 29 18 28 19 21 20 17 21 19 22
REMARK SMILES IDX 30 23 31 24 22 26 23 27 24 28 25 29 26 30 27 31 18 32 20 34
REMARK SMILES IDX 33 36 35 38 37 40 38 42 39 43 40 44 7 46 4 48 2 49 1 51 3 52
REMARK SMILES IDX 44 53 45 55 46 56 47 58 48 59 49 60 50 62 51 63 52 64 53 65
REMARK SMILES IDX 54 66 68 67 55 68 67 69 56 70 57 71 62 72 58 73 61 74 59 75
REMARK SMILES IDX 60 76 63 77 64 78 66 79 65 80
REMARK H PARENT 31 25 18 33 20 35 33 37 35 39 37 41 40 45 7 47 4 50 44 54
REMARK H PARENT 46 57 48 61
REMARK Flexibility Score: inf
ROOT
ATOM      1  C   UNL     1      28.346  42.519  10.963  1.00  0.00     0.176 C 
ENDROOT
BRANCH   1   2
ATOM      2  C   UNL     1      28.287  41.055  11.369  1.00  0.00     0.178 C 
ATOM      3  C   UNL     1      29.391  39.032  11.014  1.00  0.00     0.272 C 
ATOM      4  C   UNL     1      28.071  38.554  11.609  1.00  0.00     0.113 C 
ATOM      5  O   UNL     1      29.242  40.387  10.635  1.00  0.00    -0.332 OA
ATOM      6  C   UNL     1      26.976  39.123  10.722  1.00  0.00     0.145 C 
ATOM      7  C   UNL     1      26.884  40.575  10.995  1.00  0.00     0.142 C 
BRANCH   3   8
ATOM      8  O   UNL     1      29.743  38.365   9.878  1.00  0.00    -0.338 OA
BRANCH   8   9
ATOM      9  C   UNL     1      30.624  38.947   9.024  1.00  0.00     0.199 C 
BRANCH   9  10
ATOM     10  C   UNL     1      30.215  38.556   7.593  1.00  0.00     0.179 C 
ATOM     11  C   UNL     1      28.914  37.052   6.441  1.00  0.00     0.282 C 
ATOM     12  O   UNL     1      29.253  37.552   7.744  1.00  0.00    -0.341 OA
ATOM     13  C   UNL     1      28.071  38.115   5.829  1.00  0.00     0.202 C 
ATOM     14  C   UNL     1      28.999  39.321   5.604  1.00  0.00     0.179 C 
ATOM     15  C   UNL     1      29.675  39.744   6.864  1.00  0.00     0.177 C 
BRANCH  11  16
ATOM     16  O   UNL     1      28.328  35.836   6.696  1.00  0.00    -0.341 OA
BRANCH  16  17
ATOM     17  C   UNL     1      28.215  35.603   8.079  1.00  0.00     0.184 C 
ATOM     18  C   UNL     1      28.870  34.353   8.537  1.00  0.00     0.178 C 
ATOM     19  O   UNL     1      28.073  33.605   9.409  1.00  0.00    -0.341 OA
ATOM     20  C   UNL     1      27.478  34.350  10.418  1.00  0.00     0.281 C 
ATOM     21  C   UNL     1      26.684  35.350   8.344  1.00  0.00     0.180 C 
ATOM     22  C   UNL     1      26.540  35.409   9.840  1.00  0.00     0.202 C 
BRANCH  18  23
ATOM     23  C   UNL     1      30.273  34.489   9.042  1.00  0.00     0.191 C 
BRANCH  23  24
ATOM     24  O   UNL     1      31.067  35.033   8.043  1.00  0.00    -0.394 OA
ATOM     25  H   UNL     1      31.782  35.578   8.432  1.00  0.00     0.210 HD
ENDBRANCH  23  24
ENDBRANCH  18  23
BRANCH  20  26
ATOM     26  O   UNL     1      28.398  34.985  11.174  1.00  0.00    -0.350 OA
BRANCH  26  27
ATOM     27  C   UNL     1      28.448  34.816  12.509  1.00  0.00     0.169 C 
BRANCH  27  28
ATOM     28  C   UNL     1      27.376  35.411  13.349  1.00  0.00     0.119 C 
BRANCH  28  29
ATOM     29  N   UNL     1      26.530  34.404  13.895  1.00  0.00    -0.092 NA
ATOM     30  N   UNL     1      25.430  34.155  13.455  1.00  0.00     0.001 N 
ATOM     31  N   UNL     1      24.461  33.818  12.768  1.00  0.00    -0.003 NA
ENDBRANCH  28  29
ENDBRANCH  27  28
ENDBRANCH  26  27
ENDBRANCH  20  26
BRANCH  21  32
ATOM     32  O   UNL     1      25.943  36.288   7.669  1.00  0.00    -0.387 OA
ATOM     33  H   UNL     1      26.304  37.212   7.859  1.00  0.00     0.211 HD
ENDBRANCH  21  32
BRANCH  22  34
ATOM     34  O   UNL     1      25.235  35.260  10.254  1.00  0.00    -0.385 OA
ATOM     35  H   UNL     1      25.031  36.025  10.864  1.00  0.00     0.211 HD
ENDBRANCH  22  34
ENDBRANCH  16  17
ENDBRANCH  11  16
BRANCH  13  36
ATOM     36  O   UNL     1      27.594  37.793   4.569  1.00  0.00    -0.385 OA
ATOM     37  H   UNL     1      26.982  38.454   4.184  1.00  0.00     0.211 HD
ENDBRANCH  13  36
BRANCH  14  38
ATOM     38  O   UNL     1      28.287  40.364   5.008  1.00  0.00    -0.387 OA
ATOM     39  H   UNL     1      27.483  39.946   4.586  1.00  0.00     0.211 HD
ENDBRANCH  14  38
BRANCH  15  40
ATOM     40  O   UNL     1      28.765  40.476   7.623  1.00  0.00    -0.387 OA
ATOM     41  H   UNL     1      28.165  39.921   8.156  1.00  0.00     0.211 HD
ENDBRANCH  15  40
ENDBRANCH   9  10
ENDBRANCH   8   9
ENDBRANCH   3   8
BRANCH   3  42
ATOM     42  C   UNL     1      30.382  38.950  12.109  1.00  0.00     0.364 C 
ATOM     43  O   UNL     1      30.275  38.157  13.040  1.00  0.00    -0.246 OA
BRANCH  42  44
ATOM     44  O   UNL     1      31.483  39.811  12.076  1.00  0.00    -0.477 OA
ATOM     45  H   UNL     1      31.763  40.293  11.210  1.00  0.00     0.296 HD
ENDBRANCH  42  44
ENDBRANCH   3  42
BRANCH   6  46
ATOM     46  O   UNL     1      27.425  38.953   9.409  1.00  0.00    -0.391 OA
ATOM     47  H   UNL     1      27.031  39.592   8.770  1.00  0.00     0.211 HD
ENDBRANCH   6  46
BRANCH   7  48
ATOM     48  N   UNL     1      25.943  41.009  11.942  1.00  0.00    -0.348 N 
ATOM     49  C   UNL     1      24.895  41.931  11.664  1.00  0.00     0.217 C 
ATOM     50  H   UNL     1      26.022  40.624  12.926  1.00  0.00     0.163 HD
ATOM     51  C   UNL     1      23.926  42.363  12.685  1.00  0.00     0.114 C 
ATOM     52  O   UNL     1      24.828  42.362  10.506  1.00  0.00    -0.275 OA
ENDBRANCH   7  48
ENDBRANCH   1   2
BRANCH   1  53
ATOM     53  O   UNL     1      29.323  43.107  11.745  1.00  0.00    -0.388 OA
ATOM     54  H   UNL     1      29.616  42.568  12.510  1.00  0.00     0.211 HD
ENDBRANCH   1  53
BRANCH   1  55
ATOM     55  C   UNL     1      28.498  42.731   9.494  1.00  0.00     0.165 C 
BRANCH  55  56
ATOM     56  O   UNL     1      29.865  42.759   9.207  1.00  0.00    -0.388 OA
ATOM     57  H   UNL     1      30.195  43.662   9.074  1.00  0.00     0.211 HD
ENDBRANCH  55  56
BRANCH  55  58
ATOM     58  C   UNL     1      27.815  43.985   9.003  1.00  0.00     0.154 C 
BRANCH  58  59
ATOM     59  N   UNL     1      26.584  43.763   8.320  1.00  0.00    -0.319 N 
ATOM     60  C   UNL     1      26.482  43.267   6.994  1.00  0.00     0.407 C 
ATOM     61  H   UNL     1      25.675  43.973   8.815  1.00  0.00     0.167 HD
ATOM     62  O   UNL     1      27.548  43.012   6.381  1.00  0.00    -0.225 OA
BRANCH  60  63
ATOM     63  O   UNL     1      25.288  43.056   6.348  1.00  0.00    -0.443 OA
BRANCH  63  64
ATOM     64  C   UNL     1      25.022  41.877   5.589  1.00  0.00     0.294 C 
BRANCH  64  65
ATOM     65  C   UNL     1      24.832  40.708   6.459  1.00  0.00     0.120 A 
ATOM     66  C   UNL     1      23.601  40.203   6.809  1.00  0.00     0.138 A 
ATOM     67  N   UNL     1      25.734  39.924   7.062  1.00  0.00    -0.132 NA
ATOM     68  N   UNL     1      23.779  39.144   7.601  1.00  0.00    -0.248 N 
ATOM     69  N   UNL     1      25.110  39.000   7.737  1.00  0.00    -0.067 NA
BRANCH  68  70
ATOM     70  C   UNL     1      22.806  38.278   8.239  1.00  0.00     0.185 C 
BRANCH  70  71
ATOM     71  C   UNL     1      21.982  39.005   9.210  1.00  0.00     0.016 A 
ATOM     72  C   UNL     1      22.407  39.261  10.467  1.00  0.00     0.135 A 
ATOM     73  C   UNL     1      20.728  39.441   8.773  1.00  0.00     0.009 A 
ATOM     74  C   UNL     1      21.572  39.972  11.331  1.00  0.00     0.047 A 
ATOM     75  C   UNL     1      19.915  40.138   9.629  1.00  0.00     0.001 A 
ATOM     76  C   UNL     1      20.330  40.410  10.913  1.00  0.00     0.004 A 
BRANCH  72  77
ATOM     77  O   UNL     1      23.635  38.849  10.945  1.00  0.00    -0.426 OA
BRANCH  77  78
ATOM     78  C   UNL     1      23.656  37.819  11.891  1.00  0.00     0.308 C 
ATOM     79  O   UNL     1      23.077  36.744  11.622  1.00  0.00    -0.252 OA
ATOM     80  C   UNL     1      24.349  38.013  13.168  1.00  0.00     0.139 C 
ENDBRANCH  77  78
ENDBRANCH  72  77
ENDBRANCH  70  71
ENDBRANCH  68  70
ENDBRANCH  64  65
ENDBRANCH  63  64
ENDBRANCH  60  63
ENDBRANCH  58  59
ENDBRANCH  55  58
ENDBRANCH   1  55
TORSDOF 33
BEGIN_RES LYS A 131
REMARK  4 active torsions:
REMARK  status: ('A' for Active; 'I' for Inactive)
REMARK    1  A    between atoms: CA   and  CB  
REMARK    2  A    between atoms: CB   and  CG  
REMARK    3  A    between atoms: CG   and  CD  
REMARK    4  A    between atoms: CD   and  CE  
ROOT
ATOM      1  CA  LYS A 131      29.867  25.555  16.977  1.00 20.52     0.186 C 
ENDROOT
BRANCH   1   2
ATOM      2  CB  LYS A 131      28.345  25.722  17.026  1.00 20.94     0.034 C 
BRANCH   2   3
ATOM      3  CG  LYS A 131      27.601  24.401  16.902  1.00 22.96     0.005 C 
BRANCH   3   4
ATOM      4  CD  LYS A 131      26.242  24.454  17.543  1.00 24.33     0.041 C 
BRANCH   4   5
ATOM      5  CE  LYS A 131      26.236  25.519  18.635  1.00 26.91     0.338 C 
ATOM      6  NZ  LYS A 131      24.980  26.305  18.586  1.00 27.40     0.618 N 
ENDBRANCH   4   5
ENDBRANCH   3   4
ENDBRANCH   2   3
ENDBRANCH   1   2
END_RES LYS A 131
BEGIN_RES LYS A 135
REMARK  4 active torsions:
REMARK  status: ('A' for Active; 'I' for Inactive)
REMARK    5  A    between atoms: CA   and  CB  
REMARK    6  A    between atoms: CB   and  CG  
REMARK    7  A    between atoms: CG   and  CD  
REMARK    8  A    between atoms: CD   and  CE  
ROOT
ATOM      7  CA  LYS A 135      33.193  34.663   9.290  1.00 25.02     0.186 C 
ENDROOT
BRANCH   7   8
ATOM      8  CB  LYS A 135      32.060  35.360  10.034  1.00 26.63     0.034 C 
BRANCH   8   9
ATOM      9  CG  LYS A 135      32.516  36.112  11.258  1.00 29.45     0.005 C 
BRANCH   9  10
ATOM     10  CD  LYS A 135      32.093  35.384  12.524  1.00 32.00     0.041 C 
BRANCH  10  11
ATOM     11  CE  LYS A 135      33.295  35.110  13.407  1.00 34.25     0.338 C 
ATOM     12  NZ  LYS A 135      32.873  34.715  14.780  1.00 35.99     0.618 N 
ENDBRANCH  10  11
ENDBRANCH   9  10
ENDBRANCH   8   9
ENDBRANCH   7   8
END_RES LYS A 135
