REMARK VINA RESULT:    -6.810      2.443      5.842
REMARK INTER + INTRA:         -20.174
REMARK INTER:                 -10.935
REMARK INTRA:                  -9.239
REMARK UNBOUND:                -1.022
REMARK SMILES CC(=O)N[C@@H]1[C@@H](O)C[C@](OC[C@H]2O[C@@H](O[C@H]3[C@H](O)[C@@H](O)[C@H](OCCN=[N+]=[N-])O[C@@H]3CO)[C@H](O)[C@@H](O)[C@H]2O)(C(=O)O)O[C@H]1C(O)[C@H](O)CNC(=O)OCc1cn(C2CC(O)C=C[C@@H](O)C2)nn1
REMARK SMILES IDX 43 1 42 2 9 3 8 4 41 5 6 6 5 7 10 8 11 9 12 10 14 11 13 12
REMARK SMILES IDX 32 13 34 14 36 15 15 16 16 17 29 18 28 19 21 20 17 21 19 22
REMARK SMILES IDX 30 23 31 24 22 26 23 27 24 28 25 29 26 30 27 31 18 32 20 34
REMARK SMILES IDX 33 36 35 38 37 40 38 42 39 43 40 44 7 46 4 48 2 49 1 51 3 52
REMARK SMILES IDX 44 53 45 55 46 56 47 58 48 59 49 60 50 62 51 63 52 64 53 65
REMARK SMILES IDX 54 66 66 67 55 68 65 69 56 70 57 71 58 72 59 74 64 76 62 77
REMARK SMILES IDX 61 78 60 79 63 81
REMARK H PARENT 31 25 18 33 20 35 33 37 35 39 37 41 40 45 7 47 4 50 44 54
REMARK H PARENT 46 57 48 61 59 75 63 82
REMARK Flexibility Score: 90.00
ROOT
ATOM      1  C   UNL     1      20.894  35.739  11.823  1.00  0.00     0.176 C 
ENDROOT
BRANCH   1   2
ATOM      2  C   UNL     1      20.464  36.780  10.804  1.00  0.00     0.178 C 
ATOM      3  C   UNL     1      20.876  37.206   8.527  1.00  0.00     0.272 C 
ATOM      4  C   UNL     1      20.409  38.609   8.662  1.00  0.00     0.113 C 
ATOM      5  O   UNL     1      21.220  36.515   9.627  1.00  0.00    -0.332 OA
ATOM      6  C   UNL     1      19.921  38.979  10.015  1.00  0.00     0.145 C 
ATOM      7  C   UNL     1      20.711  38.194  11.108  1.00  0.00     0.142 C 
BRANCH   3   8
ATOM      8  O   UNL     1      21.898  37.180   7.556  1.00  0.00    -0.338 OA
BRANCH   8   9
ATOM      9  C   UNL     1      23.070  36.618   7.971  1.00  0.00     0.199 C 
BRANCH   9  10
ATOM     10  C   UNL     1      23.866  37.593   8.839  1.00  0.00     0.179 C 
ATOM     11  C   UNL     1      25.865  37.381   9.976  1.00  0.00     0.282 C 
ATOM     12  O   UNL     1      24.593  36.865   9.727  1.00  0.00    -0.341 OA
ATOM     13  C   UNL     1      26.597  37.238   8.654  1.00  0.00     0.202 C 
ATOM     14  C   UNL     1      26.026  38.303   7.745  1.00  0.00     0.179 C 
ATOM     15  C   UNL     1      24.590  38.610   8.025  1.00  0.00     0.177 C 
BRANCH  11  16
ATOM     16  O   UNL     1      26.439  36.680  11.009  1.00  0.00    -0.341 OA
BRANCH  16  17
ATOM     17  C   UNL     1      26.026  37.220  12.230  1.00  0.00     0.184 C 
ATOM     18  C   UNL     1      27.145  38.015  12.853  1.00  0.00     0.178 C 
ATOM     19  O   UNL     1      28.139  37.260  13.421  1.00  0.00    -0.341 OA
ATOM     20  C   UNL     1      27.869  35.893  13.453  1.00  0.00     0.281 C 
ATOM     21  C   UNL     1      25.464  36.183  13.165  1.00  0.00     0.180 C 
ATOM     22  C   UNL     1      26.512  35.652  14.105  1.00  0.00     0.202 C 
BRANCH  18  23
ATOM     23  C   UNL     1      26.599  39.006  13.873  1.00  0.00     0.191 C 
BRANCH  23  24
ATOM     24  O   UNL     1      25.413  39.582  13.458  1.00  0.00    -0.394 OA
ATOM     25  H   UNL     1      24.993  39.107  12.723  1.00  0.00     0.210 HD
ENDBRANCH  23  24
ENDBRANCH  18  23
BRANCH  20  26
ATOM     26  O   UNL     1      28.879  35.319  14.218  1.00  0.00    -0.350 OA
BRANCH  26  27
ATOM     27  C   UNL     1      29.714  34.594  13.376  1.00  0.00     0.169 C 
BRANCH  27  28
ATOM     28  C   UNL     1      31.128  34.523  13.928  1.00  0.00     0.119 C 
BRANCH  28  29
ATOM     29  N   UNL     1      32.049  35.250  13.079  1.00  0.00    -0.092 NA
ATOM     30  N   UNL     1      31.846  36.456  12.866  1.00  0.00     0.001 N 
ATOM     31  N   UNL     1      31.476  37.619  12.652  1.00  0.00    -0.003 NA
ENDBRANCH  28  29
ENDBRANCH  27  28
ENDBRANCH  26  27
ENDBRANCH  20  26
BRANCH  21  32
ATOM     32  O   UNL     1      24.401  36.715  13.894  1.00  0.00    -0.387 OA
ATOM     33  H   UNL     1      23.527  36.442  13.524  1.00  0.00     0.211 HD
ENDBRANCH  21  32
BRANCH  22  34
ATOM     34  O   UNL     1      26.341  34.291  14.329  1.00  0.00    -0.385 OA
ATOM     35  H   UNL     1      26.664  33.763  13.553  1.00  0.00     0.211 HD
ENDBRANCH  22  34
ENDBRANCH  16  17
ENDBRANCH  11  16
BRANCH  13  36
ATOM     36  O   UNL     1      27.957  37.366   8.744  1.00  0.00    -0.385 OA
ATOM     37  H   UNL     1      28.388  37.779   7.979  1.00  0.00     0.211 HD
ENDBRANCH  13  36
BRANCH  14  38
ATOM     38  O   UNL     1      26.243  37.870   6.437  1.00  0.00    -0.387 OA
ATOM     39  H   UNL     1      25.393  37.557   6.020  1.00  0.00     0.211 HD
ENDBRANCH  14  38
BRANCH  15  40
ATOM     40  O   UNL     1      23.882  38.747   6.814  1.00  0.00    -0.387 OA
ATOM     41  H   UNL     1      22.921  38.738   6.924  1.00  0.00     0.211 HD
ENDBRANCH  15  40
ENDBRANCH   9  10
ENDBRANCH   8   9
ENDBRANCH   3   8
BRANCH   3  42
ATOM     42  C   UNL     1      19.726  36.451   7.896  1.00  0.00     0.364 C 
ATOM     43  O   UNL     1      19.603  35.201   7.996  1.00  0.00    -0.246 OA
BRANCH  42  44
ATOM     44  O   UNL     1      18.789  37.185   7.189  1.00  0.00    -0.477 OA
ATOM     45  H   UNL     1      18.542  36.941   6.230  1.00  0.00     0.296 HD
ENDBRANCH  42  44
ENDBRANCH   3  42
BRANCH   6  46
ATOM     46  O   UNL     1      20.019  40.329  10.243  1.00  0.00    -0.391 OA
ATOM     47  H   UNL     1      19.565  40.827   9.529  1.00  0.00     0.211 HD
ENDBRANCH   6  46
BRANCH   7  48
ATOM     48  N   UNL     1      20.403  38.745  12.370  1.00  0.00    -0.348 N 
ATOM     49  C   UNL     1      21.439  39.042  13.291  1.00  0.00     0.217 C 
ATOM     50  H   UNL     1      19.427  38.970  12.635  1.00  0.00     0.163 HD
ATOM     51  C   UNL     1      21.139  39.624  14.626  1.00  0.00     0.114 C 
ATOM     52  O   UNL     1      22.632  38.813  12.978  1.00  0.00    -0.275 OA
ENDBRANCH   7  48
ENDBRANCH   1   2
BRANCH   1  53
ATOM     53  O   UNL     1      22.337  35.990  11.859  1.00  0.00    -0.388 OA
ATOM     54  H   UNL     1      22.482  36.924  11.511  1.00  0.00     0.211 HD
ENDBRANCH   1  53
BRANCH   1  55
ATOM     55  C   UNL     1      20.856  34.326  11.314  1.00  0.00     0.165 C 
BRANCH  55  56
ATOM     56  O   UNL     1      19.708  34.056  10.610  1.00  0.00    -0.388 OA
ATOM     57  H   UNL     1      19.526  33.098  10.491  1.00  0.00     0.211 HD
ENDBRANCH  55  56
BRANCH  55  58
ATOM     58  C   UNL     1      20.898  33.334  12.471  1.00  0.00     0.154 C 
BRANCH  58  59
ATOM     59  N   UNL     1      21.984  32.409  12.408  1.00  0.00    -0.319 N 
ATOM     60  C   UNL     1      23.244  32.651  13.020  1.00  0.00     0.407 C 
ATOM     61  H   UNL     1      21.863  31.492  11.883  1.00  0.00     0.167 HD
ATOM     62  O   UNL     1      23.377  33.746  13.638  1.00  0.00    -0.225 OA
BRANCH  60  63
ATOM     63  O   UNL     1      24.254  31.720  12.929  1.00  0.00    -0.443 OA
BRANCH  63  64
ATOM     64  C   UNL     1      24.083  30.409  13.460  1.00  0.00     0.294 C 
BRANCH  64  65
ATOM     65  C   UNL     1      24.793  30.350  14.757  1.00  0.00     0.120 A 
ATOM     66  C   UNL     1      25.890  31.066  15.161  1.00  0.00     0.138 A 
ATOM     67  N   UNL     1      24.467  29.549  15.786  1.00  0.00    -0.132 NA
ATOM     68  N   UNL     1      26.194  30.672  16.423  1.00  0.00    -0.249 N 
ATOM     69  N   UNL     1      25.315  29.755  16.771  1.00  0.00    -0.067 NA
BRANCH  68  70
ATOM     70  C   UNL     1      27.301  31.169  17.252  1.00  0.00     0.115 C 
BRANCH  70  71
ATOM     71  C   UNL     1      28.141  30.009  17.668  1.00  0.00     0.063 C 
BRANCH  71  72
ATOM     72  C   UNL     1      28.863  30.361  18.972  1.00  0.00     0.139 CG0
ATOM     73  G   UNL     1      29.938  31.323  18.681  1.00  0.00     0.000 G0
BRANCH  72  74
ATOM     74  O   UNL     1      29.363  29.204  19.565  1.00  0.00    -0.389 OA
ATOM     75  H   UNL     1      29.327  28.473  18.885  1.00  0.00     0.211 HD
ENDBRANCH  72  74
ENDBRANCH  71  72
ENDBRANCH  70  71
BRANCH  70  76
ATOM     76  C   UNL     1      28.089  32.155  16.447  1.00  0.00     0.063 C 
BRANCH  76  77
ATOM     77  C   UNL     1      28.719  33.131  17.448  1.00  0.00     0.139 C 
BRANCH  77  78
ATOM     78  C   UNL     1      29.924  32.509  18.059  1.00  0.00     0.002 C 
ATOM     79  C   UNL     1      29.966  31.348  18.697  1.00  0.00     0.002 CG0
ATOM     80  G   UNL     1      28.886  30.385  18.970  1.00  0.00     0.000 G0
ENDBRANCH  77  78
BRANCH  77  81
ATOM     81  O   UNL     1      29.020  34.347  16.855  1.00  0.00    -0.389 OA
ATOM     82  H   UNL     1      28.371  35.019  17.206  1.00  0.00     0.211 HD
ENDBRANCH  77  81
ENDBRANCH  76  77
ENDBRANCH  70  76
ENDBRANCH  68  70
ENDBRANCH  64  65
ENDBRANCH  63  64
ENDBRANCH  60  63
ENDBRANCH  58  59
ENDBRANCH  55  58
ENDBRANCH   1  55
TORSDOF 32
BEGIN_RES LYS A 131
REMARK  4 active torsions:
REMARK  status: ('A' for Active; 'I' for Inactive)
REMARK    1  A    between atoms: CA   and  CB  
REMARK    2  A    between atoms: CB   and  CG  
REMARK    3  A    between atoms: CG   and  CD  
REMARK    4  A    between atoms: CD   and  CE  
ROOT
ATOM      1  CA  LYS A 131      29.867  25.555  16.977  1.00 20.52     0.186 C 
ENDROOT
BRANCH   1   2
ATOM      2  CB  LYS A 131      28.345  25.722  17.026  1.00 20.94     0.034 C 
BRANCH   2   3
ATOM      3  CG  LYS A 131      27.814  25.883  18.442  1.00 22.96     0.005 C 
BRANCH   3   4
ATOM      4  CD  LYS A 131      26.331  25.643  18.521  1.00 24.33     0.041 C 
BRANCH   4   5
ATOM      5  CE  LYS A 131      26.058  24.143  18.532  1.00 26.91     0.338 C 
ATOM      6  NZ  LYS A 131      25.322  23.741  17.310  1.00 27.40     0.618 N 
ENDBRANCH   4   5
ENDBRANCH   3   4
ENDBRANCH   2   3
ENDBRANCH   1   2
END_RES LYS A 131
BEGIN_RES LYS A 135
REMARK  4 active torsions:
REMARK  status: ('A' for Active; 'I' for Inactive)
REMARK    5  A    between atoms: CA   and  CB  
REMARK    6  A    between atoms: CB   and  CG  
REMARK    7  A    between atoms: CG   and  CD  
REMARK    8  A    between atoms: CD   and  CE  
ROOT
ATOM      7  CA  LYS A 135      33.193  34.663   9.290  1.00 25.02     0.186 C 
ENDROOT
BRANCH   7   8
ATOM      8  CB  LYS A 135      32.060  35.360  10.034  1.00 26.63     0.034 C 
BRANCH   8   9
ATOM      9  CG  LYS A 135      30.773  35.419   9.253  1.00 29.45     0.005 C 
BRANCH   9  10
ATOM     10  CD  LYS A 135      30.169  34.030   9.108  1.00 32.00     0.041 C 
BRANCH  10  11
ATOM     11  CE  LYS A 135      28.713  34.123   8.694  1.00 34.25     0.338 C 
ATOM     12  NZ  LYS A 135      27.811  33.756   9.820  1.00 35.99     0.618 N 
ENDBRANCH  10  11
ENDBRANCH   9  10
ENDBRANCH   8   9
ENDBRANCH   7   8
END_RES LYS A 135
