REMARK VINA RESULT:    -5.286      3.317      7.351
REMARK INTER + INTRA:         -23.536
REMARK INTER:                 -12.814
REMARK INTRA:                 -10.722
REMARK UNBOUND:                -9.598
REMARK SMILES CC(=O)N[C@@H]1[C@@H](O)C[C@](OC[C@H]2O[C@@H](O[C@H]3[C@H](O)[C@@H](O)[C@H](OCCN=[N+]=[N-])O[C@@H]3CO)[C@H](O)[C@@H](O)[C@H]2O)(C(=O)O)O[C@H]1C(O)[C@H](O)CNC(=O)OCc1cn(Cc2ccccc2OC(C)=O)nn1
REMARK SMILES IDX 43 1 42 2 9 3 8 4 41 5 6 6 5 7 10 8 11 9 12 10 14 11 13 12
REMARK SMILES IDX 32 13 34 14 36 15 15 16 16 17 29 18 28 19 21 20 17 21 19 22
REMARK SMILES IDX 30 23 31 24 22 26 23 27 24 28 25 29 26 30 27 31 18 32 20 34
REMARK SMILES IDX 33 36 35 38 37 40 38 42 39 43 40 44 7 46 4 48 2 49 1 51 3 52
REMARK SMILES IDX 44 53 45 55 46 56 47 58 48 59 49 60 50 62 51 63 52 64 53 65
REMARK SMILES IDX 54 66 68 67 55 68 67 69 56 70 57 71 62 72 58 73 61 74 59 75
REMARK SMILES IDX 60 76 63 77 64 78 66 79 65 80
REMARK H PARENT 31 25 18 33 20 35 33 37 35 39 37 41 40 45 7 47 4 50 44 54
REMARK H PARENT 46 57 48 61
REMARK Flexibility Score: inf
ROOT
ATOM      1  C   UNL     1      25.892  36.974   8.534  1.00  0.00     0.176 C 
ENDROOT
BRANCH   1   2
ATOM      2  C   UNL     1      25.837  37.474   9.969  1.00  0.00     0.178 C 
ATOM      3  C   UNL     1      27.216  37.838  11.814  1.00  0.00     0.272 C 
ATOM      4  C   UNL     1      25.835  37.872  12.459  1.00  0.00     0.113 C 
ATOM      5  O   UNL     1      27.086  37.287  10.517  1.00  0.00    -0.332 OA
ATOM      6  C   UNL     1      25.170  36.551  12.108  1.00  0.00     0.145 C 
ATOM      7  C   UNL     1      24.799  36.601  10.675  1.00  0.00     0.142 C 
BRANCH   3   8
ATOM      8  O   UNL     1      28.099  37.035  12.472  1.00  0.00    -0.338 OA
BRANCH   8   9
ATOM      9  C   UNL     1      28.690  37.500  13.603  1.00  0.00     0.199 C 
BRANCH   9  10
ATOM     10  C   UNL     1      29.318  36.298  14.330  1.00  0.00     0.179 C 
ATOM     11  C   UNL     1      28.989  34.056  14.716  1.00  0.00     0.282 C 
ATOM     12  O   UNL     1      28.532  35.198  13.973  1.00  0.00    -0.341 OA
ATOM     13  C   UNL     1      30.271  33.666  14.070  1.00  0.00     0.202 C 
ATOM     14  C   UNL     1      31.264  34.804  14.366  1.00  0.00     0.179 C 
ATOM     15  C   UNL     1      30.743  36.127  13.915  1.00  0.00     0.177 C 
BRANCH  11  16
ATOM     16  O   UNL     1      27.939  33.173  14.644  1.00  0.00    -0.341 OA
BRANCH  16  17
ATOM     17  C   UNL     1      27.718  32.539  15.880  1.00  0.00     0.184 C 
ATOM     18  C   UNL     1      27.458  31.083  15.776  1.00  0.00     0.178 C 
ATOM     19  O   UNL     1      26.375  30.663  16.555  1.00  0.00    -0.341 OA
ATOM     20  C   UNL     1      26.382  31.158  17.852  1.00  0.00     0.281 C 
ATOM     21  C   UNL     1      26.364  33.131  16.424  1.00  0.00     0.180 C 
ATOM     22  C   UNL     1      26.301  32.684  17.859  1.00  0.00     0.202 C 
BRANCH  18  23
ATOM     23  C   UNL     1      28.645  30.186  15.940  1.00  0.00     0.191 C 
BRANCH  23  24
ATOM     24  O   UNL     1      28.212  28.877  16.085  1.00  0.00    -0.394 OA
ATOM     25  H   UNL     1      28.044  28.674  17.030  1.00  0.00     0.210 HD
ENDBRANCH  23  24
ENDBRANCH  18  23
BRANCH  20  26
ATOM     26  O   UNL     1      27.503  30.804  18.514  1.00  0.00    -0.350 OA
BRANCH  26  27
ATOM     27  C   UNL     1      27.449  30.111  19.667  1.00  0.00     0.169 C 
BRANCH  27  28
ATOM     28  C   UNL     1      28.053  28.754  19.719  1.00  0.00     0.119 C 
BRANCH  28  29
ATOM     29  N   UNL     1      27.497  27.903  18.723  1.00  0.00    -0.092 NA
ATOM     30  N   UNL     1      26.317  27.637  18.665  1.00  0.00     0.001 N 
ATOM     31  N   UNL     1      25.088  27.653  18.551  1.00  0.00    -0.003 NA
ENDBRANCH  28  29
ENDBRANCH  27  28
ENDBRANCH  26  27
ENDBRANCH  20  26
BRANCH  21  32
ATOM     32  O   UNL     1      26.362  34.493  16.257  1.00  0.00    -0.387 OA
ATOM     33  H   UNL     1      25.525  34.888  16.663  1.00  0.00     0.211 HD
ENDBRANCH  21  32
BRANCH  22  34
ATOM     34  O   UNL     1      25.190  33.165  18.516  1.00  0.00    -0.385 OA
ATOM     35  H   UNL     1      25.127  32.675  19.386  1.00  0.00     0.211 HD
ENDBRANCH  22  34
ENDBRANCH  16  17
ENDBRANCH  11  16
BRANCH  13  36
ATOM     36  O   UNL     1      30.852  32.535  14.621  1.00  0.00    -0.385 OA
ATOM     37  H   UNL     1      30.830  32.501  15.600  1.00  0.00     0.211 HD
ENDBRANCH  13  36
BRANCH  14  38
ATOM     38  O   UNL     1      32.510  34.506  13.810  1.00  0.00    -0.387 OA
ATOM     39  H   UNL     1      32.592  35.076  12.993  1.00  0.00     0.211 HD
ENDBRANCH  14  38
BRANCH  15  40
ATOM     40  O   UNL     1      30.919  36.216  12.535  1.00  0.00    -0.387 OA
ATOM     41  H   UNL     1      31.481  35.508  12.167  1.00  0.00     0.211 HD
ENDBRANCH  15  40
ENDBRANCH   9  10
ENDBRANCH   8   9
ENDBRANCH   3   8
BRANCH   3  42
ATOM     42  C   UNL     1      27.640  39.250  11.690  1.00  0.00     0.364 C 
ATOM     43  O   UNL     1      27.397  40.091  12.552  1.00  0.00    -0.246 OA
BRANCH  42  44
ATOM     44  O   UNL     1      28.346  39.636  10.547  1.00  0.00    -0.477 OA
ATOM     45  H   UNL     1      29.059  39.024  10.124  1.00  0.00     0.296 HD
ENDBRANCH  42  44
ENDBRANCH   3  42
BRANCH   6  46
ATOM     46  O   UNL     1      26.159  35.575  12.269  1.00  0.00    -0.391 OA
ATOM     47  H   UNL     1      26.198  35.200  13.180  1.00  0.00     0.211 HD
ENDBRANCH   6  46
BRANCH   7  48
ATOM     48  N   UNL     1      23.499  37.011  10.346  1.00  0.00    -0.348 N 
ATOM     49  C   UNL     1      22.600  36.255   9.541  1.00  0.00     0.217 C 
ATOM     50  H   UNL     1      23.167  37.945  10.722  1.00  0.00     0.163 HD
ATOM     51  C   UNL     1      21.242  36.720   9.216  1.00  0.00     0.114 C 
ATOM     52  O   UNL     1      23.015  35.168   9.117  1.00  0.00    -0.275 OA
ENDBRANCH   7  48
ENDBRANCH   1   2
BRANCH   1  53
ATOM     53  O   UNL     1      25.200  37.895   7.768  1.00  0.00    -0.388 OA
ATOM     54  H   UNL     1      25.240  37.737   6.801  1.00  0.00     0.211 HD
ENDBRANCH   1  53
BRANCH   1  55
ATOM     55  C   UNL     1      27.271  36.662   8.057  1.00  0.00     0.165 C 
BRANCH  55  56
ATOM     56  O   UNL     1      28.047  37.814   8.213  1.00  0.00    -0.388 OA
ATOM     57  H   UNL     1      28.321  38.191   7.363  1.00  0.00     0.211 HD
ENDBRANCH  55  56
BRANCH  55  58
ATOM     58  C   UNL     1      27.308  36.174   6.629  1.00  0.00     0.154 C 
BRANCH  58  59
ATOM     59  N   UNL     1      27.002  37.167   5.654  1.00  0.00    -0.319 N 
ATOM     60  C   UNL     1      27.973  37.945   4.971  1.00  0.00     0.407 C 
ATOM     61  H   UNL     1      25.992  37.352   5.407  1.00  0.00     0.167 HD
ATOM     62  O   UNL     1      29.182  37.747   5.249  1.00  0.00    -0.225 OA
BRANCH  60  63
ATOM     63  O   UNL     1      27.664  38.899   4.032  1.00  0.00    -0.443 OA
BRANCH  63  64
ATOM     64  C   UNL     1      27.252  40.220   4.383  1.00  0.00     0.294 C 
BRANCH  64  65
ATOM     65  C   UNL     1      27.625  40.550   5.766  1.00  0.00     0.120 A 
ATOM     66  C   UNL     1      28.784  41.202   6.114  1.00  0.00     0.138 A 
ATOM     67  N   UNL     1      26.977  40.316   6.914  1.00  0.00    -0.132 NA
ATOM     68  N   UNL     1      28.816  41.348   7.440  1.00  0.00    -0.248 N 
ATOM     69  N   UNL     1      27.682  40.788   7.903  1.00  0.00    -0.067 NA
BRANCH  68  70
ATOM     70  C   UNL     1      29.821  41.956   8.292  1.00  0.00     0.185 C 
BRANCH  70  71
ATOM     71  C   UNL     1      31.168  41.468   7.979  1.00  0.00     0.016 A 
ATOM     72  C   UNL     1      31.671  40.340   8.529  1.00  0.00     0.135 A 
ATOM     73  C   UNL     1      31.915  42.219   7.067  1.00  0.00     0.009 A 
ATOM     74  C   UNL     1      32.957  39.930   8.170  1.00  0.00     0.047 A 
ATOM     75  C   UNL     1      33.177  41.807   6.723  1.00  0.00     0.001 A 
ATOM     76  C   UNL     1      33.708  40.661   7.270  1.00  0.00     0.004 A 
BRANCH  72  77
ATOM     77  O   UNL     1      30.973  39.567   9.434  1.00  0.00    -0.426 OA
BRANCH  77  78
ATOM     78  C   UNL     1      31.492  39.447  10.728  1.00  0.00     0.308 C 
ATOM     79  O   UNL     1      31.901  38.329  11.110  1.00  0.00    -0.252 OA
ATOM     80  C   UNL     1      31.548  40.620  11.605  1.00  0.00     0.139 C 
ENDBRANCH  77  78
ENDBRANCH  72  77
ENDBRANCH  70  71
ENDBRANCH  68  70
ENDBRANCH  64  65
ENDBRANCH  63  64
ENDBRANCH  60  63
ENDBRANCH  58  59
ENDBRANCH  55  58
ENDBRANCH   1  55
TORSDOF 33
BEGIN_RES LYS A 131
REMARK  4 active torsions:
REMARK  status: ('A' for Active; 'I' for Inactive)
REMARK    1  A    between atoms: CA   and  CB  
REMARK    2  A    between atoms: CB   and  CG  
REMARK    3  A    between atoms: CG   and  CD  
REMARK    4  A    between atoms: CD   and  CE  
ROOT
ATOM      1  CA  LYS A 131      29.867  25.555  16.977  1.00 20.52     0.186 C 
ENDROOT
BRANCH   1   2
ATOM      2  CB  LYS A 131      28.345  25.722  17.026  1.00 20.94     0.034 C 
BRANCH   2   3
ATOM      3  CG  LYS A 131      27.600  24.407  16.854  1.00 22.96     0.005 C 
BRANCH   3   4
ATOM      4  CD  LYS A 131      26.596  24.177  17.949  1.00 24.33     0.041 C 
BRANCH   4   5
ATOM      5  CE  LYS A 131      25.224  23.916  17.334  1.00 26.91     0.338 C 
ATOM      6  NZ  LYS A 131      24.838  22.496  17.513  1.00 27.40     0.618 N 
ENDBRANCH   4   5
ENDBRANCH   3   4
ENDBRANCH   2   3
ENDBRANCH   1   2
END_RES LYS A 131
BEGIN_RES LYS A 135
REMARK  4 active torsions:
REMARK  status: ('A' for Active; 'I' for Inactive)
REMARK    5  A    between atoms: CA   and  CB  
REMARK    6  A    between atoms: CB   and  CG  
REMARK    7  A    between atoms: CG   and  CD  
REMARK    8  A    between atoms: CD   and  CE  
ROOT
ATOM      7  CA  LYS A 135      33.193  34.663   9.290  1.00 25.02     0.186 C 
ENDROOT
BRANCH   7   8
ATOM      8  CB  LYS A 135      32.060  35.360  10.034  1.00 26.63     0.034 C 
BRANCH   8   9
ATOM      9  CG  LYS A 135      30.810  35.528   9.208  1.00 29.45     0.005 C 
BRANCH   9  10
ATOM     10  CD  LYS A 135      30.006  34.237   9.184  1.00 32.00     0.041 C 
BRANCH  10  11
ATOM     11  CE  LYS A 135      28.929  34.260  10.251  1.00 34.25     0.338 C 
ATOM     12  NZ  LYS A 135      27.650  33.699   9.735  1.00 35.99     0.618 N 
ENDBRANCH  10  11
ENDBRANCH   9  10
ENDBRANCH   8   9
ENDBRANCH   7   8
END_RES LYS A 135
