REMARK VINA RESULT:    -4.119      4.563     10.939
REMARK INTER + INTRA:         -24.174
REMARK INTER:                 -10.881
REMARK INTRA:                 -13.292
REMARK UNBOUND:               -13.073
REMARK SMILES CC(=O)N[C@@H]1[C@@H](O)C[C@](OC[C@H]2O[C@@H](O[C@H]3[C@H](O)[C@@H](O)[C@H](OCCN=[N+]=[N-])O[C@@H]3CO)[C@H](O)[C@@H](O)[C@H]2O)(C(=O)O)O[C@H]1C(O)[C@H](O)CNC(=O)OCc1cn(C[C@@H](C)CN2CCN(c3ccc(Cl)cc3)CC2)nn1
REMARK SMILES IDX 43 1 42 2 9 3 8 4 41 5 6 6 5 7 10 8 11 9 12 10 14 11 13 12
REMARK SMILES IDX 32 13 34 14 36 15 15 16 16 17 29 18 28 19 21 20 17 21 19 22
REMARK SMILES IDX 30 23 31 24 22 26 23 27 24 28 25 29 26 30 27 31 18 32 20 34
REMARK SMILES IDX 33 36 35 38 37 40 38 42 39 43 40 44 7 46 4 48 2 49 1 51 3 52
REMARK SMILES IDX 44 53 45 55 46 56 47 58 48 59 49 60 50 62 51 63 52 64 53 65
REMARK SMILES IDX 54 66 74 67 55 68 73 69 56 70 57 71 58 72 59 73 60 74 61 75
REMARK SMILES IDX 72 76 62 77 71 78 63 79 64 80 65 81 70 82 66 83 69 84 67 85
REMARK SMILES IDX 68 86
REMARK H PARENT 31 25 18 33 20 35 33 37 35 39 37 41 40 45 7 47 4 50 44 54
REMARK H PARENT 46 57 48 61
REMARK Flexibility Score: inf
ROOT
ATOM      1  C   UNL     1      28.619  36.121  17.592  1.00  0.00     0.176 C 
ENDROOT
BRANCH   1   2
ATOM      2  C   UNL     1      29.581  35.012  17.191  1.00  0.00     0.178 C 
ATOM      3  C   UNL     1      29.732  32.714  16.665  1.00  0.00     0.272 C 
ATOM      4  C   UNL     1      31.123  32.843  17.045  1.00  0.00     0.113 C 
ATOM      5  O   UNL     1      28.975  33.800  17.206  1.00  0.00    -0.332 OA
ATOM      6  C   UNL     1      31.331  33.704  18.277  1.00  0.00     0.145 C 
ATOM      7  C   UNL     1      30.889  35.125  17.899  1.00  0.00     0.142 C 
BRANCH   3   8
ATOM      8  O   UNL     1      29.015  31.640  16.983  1.00  0.00    -0.338 OA
BRANCH   8   9
ATOM      9  C   UNL     1      28.340  30.832  16.208  1.00  0.00     0.199 C 
BRANCH   9  10
ATOM     10  C   UNL     1      27.088  30.127  16.642  1.00  0.00     0.179 C 
ATOM     11  C   UNL     1      25.803  30.189  18.590  1.00  0.00     0.282 C 
ATOM     12  O   UNL     1      27.002  29.914  17.988  1.00  0.00    -0.341 OA
ATOM     13  C   UNL     1      25.524  31.677  18.479  1.00  0.00     0.202 C 
ATOM     14  C   UNL     1      25.494  32.042  17.031  1.00  0.00     0.179 C 
ATOM     15  C   UNL     1      25.884  30.926  16.122  1.00  0.00     0.177 C 
BRANCH  11  16
ATOM     16  O   UNL     1      25.980  29.896  19.963  1.00  0.00    -0.341 OA
BRANCH  16  17
ATOM     17  C   UNL     1      27.272  29.493  20.184  1.00  0.00     0.184 C 
ATOM     18  C   UNL     1      27.357  28.227  21.012  1.00  0.00     0.178 C 
ATOM     19  O   UNL     1      27.863  28.395  22.264  1.00  0.00    -0.341 OA
ATOM     20  C   UNL     1      29.106  28.994  22.352  1.00  0.00     0.281 C 
ATOM     21  C   UNL     1      28.115  30.602  20.805  1.00  0.00     0.180 C 
ATOM     22  C   UNL     1      29.413  29.965  21.245  1.00  0.00     0.202 C 
BRANCH  18  23
ATOM     23  C   UNL     1      28.008  27.087  20.244  1.00  0.00     0.191 C 
BRANCH  23  24
ATOM     24  O   UNL     1      28.104  27.351  18.901  1.00  0.00    -0.394 OA
ATOM     25  H   UNL     1      27.415  26.780  18.441  1.00  0.00     0.210 HD
ENDBRANCH  23  24
ENDBRANCH  18  23
BRANCH  20  26
ATOM     26  O   UNL     1      30.136  28.067  22.462  1.00  0.00    -0.350 OA
BRANCH  26  27
ATOM     27  C   UNL     1      30.730  27.983  23.688  1.00  0.00     0.169 C 
BRANCH  27  28
ATOM     28  C   UNL     1      32.077  28.650  23.708  1.00  0.00     0.119 C 
BRANCH  28  29
ATOM     29  N   UNL     1      32.601  28.708  22.353  1.00  0.00    -0.092 NA
ATOM     30  N   UNL     1      33.395  29.615  22.043  1.00  0.00     0.001 N 
ATOM     31  N   UNL     1      34.163  30.552  21.870  1.00  0.00    -0.003 NA
ENDBRANCH  28  29
ENDBRANCH  27  28
ENDBRANCH  26  27
ENDBRANCH  20  26
BRANCH  21  32
ATOM     32  O   UNL     1      28.425  31.575  19.858  1.00  0.00    -0.387 OA
ATOM     33  H   UNL     1      29.069  31.138  19.228  1.00  0.00     0.211 HD
ENDBRANCH  21  32
BRANCH  22  34
ATOM     34  O   UNL     1      30.240  30.983  21.781  1.00  0.00    -0.385 OA
ATOM     35  H   UNL     1      29.805  31.503  22.475  1.00  0.00     0.211 HD
ENDBRANCH  22  34
ENDBRANCH  16  17
ENDBRANCH  11  16
BRANCH  13  36
ATOM     36  O   UNL     1      24.337  31.941  19.141  1.00  0.00    -0.385 OA
ATOM     37  H   UNL     1      24.079  31.098  19.616  1.00  0.00     0.211 HD
ENDBRANCH  13  36
BRANCH  14  38
ATOM     38  O   UNL     1      26.229  33.199  16.742  1.00  0.00    -0.387 OA
ATOM     39  H   UNL     1      26.673  33.129  15.867  1.00  0.00     0.211 HD
ENDBRANCH  14  38
BRANCH  15  40
ATOM     40  O   UNL     1      26.174  31.390  14.862  1.00  0.00    -0.387 OA
ATOM     41  H   UNL     1      26.807  32.144  14.873  1.00  0.00     0.211 HD
ENDBRANCH  15  40
ENDBRANCH   9  10
ENDBRANCH   8   9
ENDBRANCH   3   8
BRANCH   3  42
ATOM     42  C   UNL     1      29.571  32.991  15.183  1.00  0.00     0.364 C 
ATOM     43  O   UNL     1      30.560  32.837  14.385  1.00  0.00    -0.246 OA
BRANCH  42  44
ATOM     44  O   UNL     1      28.405  33.418  14.600  1.00  0.00    -0.477 OA
ATOM     45  H   UNL     1      27.737  32.766  14.207  1.00  0.00     0.296 HD
ENDBRANCH  42  44
ENDBRANCH   3  42
BRANCH   6  46
ATOM     46  O   UNL     1      30.503  33.193  19.277  1.00  0.00    -0.391 OA
ATOM     47  H   UNL     1      29.554  33.206  19.005  1.00  0.00     0.211 HD
ENDBRANCH   6  46
BRANCH   7  48
ATOM     48  N   UNL     1      31.931  35.686  17.063  1.00  0.00    -0.348 N 
ATOM     49  C   UNL     1      32.647  36.832  17.493  1.00  0.00     0.217 C 
ATOM     50  H   UNL     1      32.190  35.276  16.124  1.00  0.00     0.163 HD
ATOM     51  C   UNL     1      33.722  37.385  16.594  1.00  0.00     0.114 C 
ATOM     52  O   UNL     1      32.427  37.414  18.593  1.00  0.00    -0.275 OA
ENDBRANCH   7  48
ENDBRANCH   1   2
BRANCH   1  53
ATOM     53  O   UNL     1      29.388  37.199  18.027  1.00  0.00    -0.388 OA
ATOM     54  H   UNL     1      30.329  36.938  18.158  1.00  0.00     0.211 HD
ENDBRANCH   1  53
BRANCH   1  55
ATOM     55  C   UNL     1      27.769  36.631  16.461  1.00  0.00     0.165 C 
BRANCH  55  56
ATOM     56  O   UNL     1      26.808  35.765  16.011  1.00  0.00    -0.388 OA
ATOM     57  H   UNL     1      26.324  35.324  16.730  1.00  0.00     0.211 HD
ENDBRANCH  55  56
BRANCH  55  58
ATOM     58  C   UNL     1      28.534  37.224  15.328  1.00  0.00     0.154 C 
BRANCH  58  59
ATOM     59  N   UNL     1      27.780  37.000  14.093  1.00  0.00    -0.319 N 
ATOM     60  C   UNL     1      28.344  36.297  13.002  1.00  0.00     0.407 C 
ATOM     61  H   UNL     1      26.810  37.367  14.023  1.00  0.00     0.167 HD
ATOM     62  O   UNL     1      29.519  35.872  13.119  1.00  0.00    -0.225 OA
BRANCH  60  63
ATOM     63  O   UNL     1      27.609  36.090  11.843  1.00  0.00    -0.443 OA
BRANCH  63  64
ATOM     64  C   UNL     1      27.001  34.812  11.658  1.00  0.00     0.294 C 
BRANCH  64  65
ATOM     65  C   UNL     1      25.834  34.610  12.547  1.00  0.00     0.120 A 
ATOM     66  C   UNL     1      24.507  34.792  12.233  1.00  0.00     0.138 A 
ATOM     67  N   UNL     1      25.843  34.211  13.841  1.00  0.00    -0.132 NA
ATOM     68  N   UNL     1      23.796  34.504  13.319  1.00  0.00    -0.252 N 
ATOM     69  N   UNL     1      24.609  34.153  14.290  1.00  0.00    -0.067 NA
BRANCH  68  70
ATOM     70  C   UNL     1      22.337  34.586  13.397  1.00  0.00     0.150 C 
BRANCH  70  71
ATOM     71  C   UNL     1      21.705  34.273  12.038  1.00  0.00     0.022 C 
ATOM     72  C   UNL     1      20.759  33.117  12.280  1.00  0.00     0.011 C 
BRANCH  71  73
ATOM     73  C   UNL     1      20.982  35.486  11.544  1.00  0.00     0.089 C 
BRANCH  73  74
ATOM     74  N   UNL     1      21.550  36.228  10.496  1.00  0.00    -0.299 NA
ATOM     75  C   UNL     1      21.966  35.611   9.309  1.00  0.00     0.106 C 
ATOM     76  C   UNL     1      22.255  37.402  10.896  1.00  0.00     0.106 C 
ATOM     77  C   UNL     1      23.405  35.965   8.935  1.00  0.00     0.132 C 
ATOM     78  C   UNL     1      22.619  38.216   9.667  1.00  0.00     0.132 C 
ATOM     79  N   UNL     1      23.544  37.421   8.903  1.00  0.00    -0.369 N 
BRANCH  79  80
ATOM     80  C   UNL     1      24.568  37.994   8.141  1.00  0.00     0.037 A 
ATOM     81  C   UNL     1      24.473  39.282   7.620  1.00  0.00     0.027 A 
ATOM     82  C   UNL     1      25.754  37.328   7.857  1.00  0.00     0.027 A 
ATOM     83  C   UNL     1      25.467  39.870   6.874  1.00  0.00     0.022 A 
ATOM     84  C   UNL     1      26.755  37.916   7.109  1.00  0.00     0.022 A 
ATOM     85  C   UNL     1      26.628  39.193   6.607  1.00  0.00     0.041 A 
ATOM     86  Cl  UNL     1      27.882  39.934   5.669  1.00  0.00    -0.084 Cl
ENDBRANCH  79  80
ENDBRANCH  73  74
ENDBRANCH  71  73
ENDBRANCH  70  71
ENDBRANCH  68  70
ENDBRANCH  64  65
ENDBRANCH  63  64
ENDBRANCH  60  63
ENDBRANCH  58  59
ENDBRANCH  55  58
ENDBRANCH   1  55
TORSDOF 34
BEGIN_RES LYS A 131
REMARK  4 active torsions:
REMARK  status: ('A' for Active; 'I' for Inactive)
REMARK    1  A    between atoms: CA   and  CB  
REMARK    2  A    between atoms: CB   and  CG  
REMARK    3  A    between atoms: CG   and  CD  
REMARK    4  A    between atoms: CD   and  CE  
ROOT
ATOM      1  CA  LYS A 131      29.867  25.555  16.977  1.00 20.52     0.186 C 
ENDROOT
BRANCH   1   2
ATOM      2  CB  LYS A 131      28.345  25.722  17.026  1.00 20.94     0.034 C 
BRANCH   2   3
ATOM      3  CG  LYS A 131      27.601  24.402  16.889  1.00 22.96     0.005 C 
BRANCH   3   4
ATOM      4  CD  LYS A 131      26.707  24.131  18.066  1.00 24.33     0.041 C 
BRANCH   4   5
ATOM      5  CE  LYS A 131      25.427  24.950  17.933  1.00 26.91     0.338 C 
ATOM      6  NZ  LYS A 131      24.566  24.396  16.862  1.00 27.40     0.618 N 
ENDBRANCH   4   5
ENDBRANCH   3   4
ENDBRANCH   2   3
ENDBRANCH   1   2
END_RES LYS A 131
BEGIN_RES LYS A 135
REMARK  4 active torsions:
REMARK  status: ('A' for Active; 'I' for Inactive)
REMARK    5  A    between atoms: CA   and  CB  
REMARK    6  A    between atoms: CB   and  CG  
REMARK    7  A    between atoms: CG   and  CD  
REMARK    8  A    between atoms: CD   and  CE  
ROOT
ATOM      7  CA  LYS A 135      33.193  34.663   9.290  1.00 25.02     0.186 C 
ENDROOT
BRANCH   7   8
ATOM      8  CB  LYS A 135      32.060  35.360  10.034  1.00 26.63     0.034 C 
BRANCH   8   9
ATOM      9  CG  LYS A 135      30.699  34.786   9.734  1.00 29.45     0.005 C 
BRANCH   9  10
ATOM     10  CD  LYS A 135      30.555  34.495   8.248  1.00 32.00     0.041 C 
BRANCH  10  11
ATOM     11  CE  LYS A 135      29.339  35.204   7.683  1.00 34.25     0.338 C 
ATOM     12  NZ  LYS A 135      28.079  34.605   8.204  1.00 35.99     0.618 N 
ENDBRANCH  10  11
ENDBRANCH   9  10
ENDBRANCH   8   9
ENDBRANCH   7   8
END_RES LYS A 135
