REMARK VINA RESULT:    -3.531      4.524      8.504
REMARK INTER + INTRA:         -22.410
REMARK INTER:                 -11.755
REMARK INTRA:                 -10.655
REMARK UNBOUND:               -13.100
REMARK SMILES CC(=O)N[C@@H]1[C@@H](O)C[C@](OC[C@H]2O[C@@H](O[C@H]3[C@H](O)[C@@H](O)[C@H](OCCN=[N+]=[N-])O[C@@H]3CO)[C@H](O)[C@@H](O)[C@H]2O)(C(=O)O)O[C@H]1C(O)[C@H](O)CNC(=O)OCc1cn(CCNS(C)(=O)=O)nn1
REMARK SMILES IDX 43 1 42 2 9 3 8 4 41 5 6 6 5 7 10 8 11 9 12 10 14 11 13 12
REMARK SMILES IDX 32 13 34 14 36 15 15 16 16 17 29 18 28 19 21 20 17 21 19 22
REMARK SMILES IDX 30 23 31 24 22 26 23 27 24 28 25 29 26 30 27 31 18 32 20 34
REMARK SMILES IDX 33 36 35 38 37 40 38 42 39 43 40 44 7 46 4 48 2 49 1 51 3 52
REMARK SMILES IDX 44 53 45 55 46 56 47 58 48 59 49 60 50 62 51 63 52 64 53 65
REMARK SMILES IDX 54 66 64 67 55 68 63 69 56 70 57 71 58 72 59 74 61 75 62 76
REMARK SMILES IDX 60 77
REMARK H PARENT 31 25 18 33 20 35 33 37 35 39 37 41 40 45 7 47 4 50 44 54
REMARK H PARENT 46 57 48 61 58 73
REMARK Flexibility Score: inf
ROOT
ATOM      1  C   UNL     1      29.556  32.989  15.049  1.00  0.00     0.176 C 
ENDROOT
BRANCH   1   2
ATOM      2  C   UNL     1      29.500  34.500  15.343  1.00  0.00     0.178 C 
ATOM      3  C   UNL     1      27.934  36.228  15.137  1.00  0.00     0.272 C 
ATOM      4  C   UNL     1      28.728  37.007  14.166  1.00  0.00     0.113 C 
ATOM      5  O   UNL     1      28.224  34.870  15.083  1.00  0.00    -0.332 OA
ATOM      6  C   UNL     1      30.019  36.373  13.727  1.00  0.00     0.145 C 
ATOM      7  C   UNL     1      30.504  35.214  14.527  1.00  0.00     0.142 C 
BRANCH   3   8
ATOM      8  O   UNL     1      26.545  36.283  14.980  1.00  0.00    -0.338 OA
BRANCH   8   9
ATOM      9  C   UNL     1      26.165  36.565  13.679  1.00  0.00     0.199 C 
BRANCH   9  10
ATOM     10  C   UNL     1      24.897  35.858  13.345  1.00  0.00     0.179 C 
ATOM     11  C   UNL     1      23.445  35.229  11.668  1.00  0.00     0.282 C 
ATOM     12  O   UNL     1      24.736  35.687  11.981  1.00  0.00    -0.341 OA
ATOM     13  C   UNL     1      23.182  33.884  12.249  1.00  0.00     0.202 C 
ATOM     14  C   UNL     1      23.263  34.022  13.754  1.00  0.00     0.179 C 
ATOM     15  C   UNL     1      24.562  34.643  14.143  1.00  0.00     0.177 C 
BRANCH  11  16
ATOM     16  O   UNL     1      23.344  35.233  10.309  1.00  0.00    -0.341 OA
BRANCH  16  17
ATOM     17  C   UNL     1      22.672  36.268   9.754  1.00  0.00     0.184 C 
ATOM     18  C   UNL     1      22.129  36.166   8.385  1.00  0.00     0.178 C 
ATOM     19  O   UNL     1      22.023  37.453   7.856  1.00  0.00    -0.341 OA
ATOM     20  C   UNL     1      23.233  37.966   7.489  1.00  0.00     0.281 C 
ATOM     21  C   UNL     1      23.490  37.585   9.854  1.00  0.00     0.180 C 
ATOM     22  C   UNL     1      24.259  37.631   8.551  1.00  0.00     0.202 C 
BRANCH  18  23
ATOM     23  C   UNL     1      20.694  35.650   8.415  1.00  0.00     0.191 C 
BRANCH  23  24
ATOM     24  O   UNL     1      20.574  34.533   7.556  1.00  0.00    -0.394 OA
ATOM     25  H   UNL     1      20.336  33.719   8.051  1.00  0.00     0.210 HD
ENDBRANCH  23  24
ENDBRANCH  18  23
BRANCH  20  26
ATOM     26  O   UNL     1      23.163  39.351   7.272  1.00  0.00    -0.350 OA
BRANCH  26  27
ATOM     27  C   UNL     1      24.360  39.935   6.945  1.00  0.00     0.169 C 
BRANCH  27  28
ATOM     28  C   UNL     1      24.365  41.335   7.474  1.00  0.00     0.119 C 
BRANCH  28  29
ATOM     29  N   UNL     1      25.321  41.508   8.560  1.00  0.00    -0.092 NA
ATOM     30  N   UNL     1      24.952  41.056   9.658  1.00  0.00     0.001 N 
ATOM     31  N   UNL     1      24.846  40.778  10.847  1.00  0.00    -0.003 NA
ENDBRANCH  28  29
ENDBRANCH  27  28
ENDBRANCH  26  27
ENDBRANCH  20  26
BRANCH  21  32
ATOM     32  O   UNL     1      22.620  38.679   9.872  1.00  0.00    -0.387 OA
ATOM     33  H   UNL     1      23.069  39.439  10.328  1.00  0.00     0.211 HD
ENDBRANCH  21  32
BRANCH  22  34
ATOM     34  O   UNL     1      24.959  36.479   8.271  1.00  0.00    -0.385 OA
ATOM     35  H   UNL     1      24.551  35.917   7.564  1.00  0.00     0.211 HD
ENDBRANCH  22  34
ENDBRANCH  16  17
ENDBRANCH  11  16
BRANCH  13  36
ATOM     36  O   UNL     1      21.866  33.472  11.991  1.00  0.00    -0.385 OA
ATOM     37  H   UNL     1      21.824  32.527  11.695  1.00  0.00     0.211 HD
ENDBRANCH  13  36
BRANCH  14  38
ATOM     38  O   UNL     1      22.967  32.849  14.404  1.00  0.00    -0.387 OA
ATOM     39  H   UNL     1      22.405  33.001  15.228  1.00  0.00     0.211 HD
ENDBRANCH  14  38
BRANCH  15  40
ATOM     40  O   UNL     1      25.575  33.706  13.965  1.00  0.00    -0.387 OA
ATOM     41  H   UNL     1      25.562  32.986  14.647  1.00  0.00     0.211 HD
ENDBRANCH  15  40
ENDBRANCH   9  10
ENDBRANCH   8   9
ENDBRANCH   3   8
BRANCH   3  42
ATOM     42  C   UNL     1      28.162  36.706  16.521  1.00  0.00     0.364 C 
ATOM     43  O   UNL     1      28.974  37.654  16.782  1.00  0.00    -0.246 OA
BRANCH  42  44
ATOM     44  O   UNL     1      27.534  36.185  17.636  1.00  0.00    -0.477 OA
ATOM     45  H   UNL     1      27.898  35.399  18.167  1.00  0.00     0.296 HD
ENDBRANCH  42  44
ENDBRANCH   3  42
BRANCH   6  46
ATOM     46  O   UNL     1      29.976  36.028  12.384  1.00  0.00    -0.391 OA
ATOM     47  H   UNL     1      29.705  35.109  12.191  1.00  0.00     0.211 HD
ENDBRANCH   6  46
BRANCH   7  48
ATOM     48  N   UNL     1      31.594  35.693  15.394  1.00  0.00    -0.348 N 
ATOM     49  C   UNL     1      32.939  35.320  15.312  1.00  0.00     0.217 C 
ATOM     50  H   UNL     1      31.359  36.428  16.150  1.00  0.00     0.163 HD
ATOM     51  C   UNL     1      33.963  35.870  16.268  1.00  0.00     0.114 C 
ATOM     52  O   UNL     1      33.353  34.508  14.441  1.00  0.00    -0.275 OA
ENDBRANCH   7  48
ENDBRANCH   1   2
BRANCH   1  53
ATOM     53  O   UNL     1      30.796  32.698  14.454  1.00  0.00    -0.388 OA
ATOM     54  H   UNL     1      30.722  31.811  14.058  1.00  0.00     0.211 HD
ENDBRANCH   1  53
BRANCH   1  55
ATOM     55  C   UNL     1      29.450  32.216  16.312  1.00  0.00     0.165 C 
BRANCH  55  56
ATOM     56  O   UNL     1      30.273  32.617  17.337  1.00  0.00    -0.388 OA
ATOM     57  H   UNL     1      31.239  32.491  17.142  1.00  0.00     0.211 HD
ENDBRANCH  55  56
BRANCH  55  58
ATOM     58  C   UNL     1      29.448  30.726  16.163  1.00  0.00     0.154 C 
BRANCH  58  59
ATOM     59  N   UNL     1      28.120  30.198  15.994  1.00  0.00    -0.319 N 
ATOM     60  C   UNL     1      27.465  29.648  17.160  1.00  0.00     0.407 C 
ATOM     61  H   UNL     1      27.607  30.185  15.098  1.00  0.00     0.167 HD
ATOM     62  O   UNL     1      28.105  29.698  18.242  1.00  0.00    -0.225 OA
BRANCH  60  63
ATOM     63  O   UNL     1      26.211  29.102  17.072  1.00  0.00    -0.443 OA
BRANCH  63  64
ATOM     64  C   UNL     1      25.088  29.928  16.867  1.00  0.00     0.294 C 
BRANCH  64  65
ATOM     65  C   UNL     1      24.742  30.005  15.437  1.00  0.00     0.120 A 
ATOM     66  C   UNL     1      23.894  29.169  14.730  1.00  0.00     0.138 A 
ATOM     67  N   UNL     1      25.149  30.914  14.561  1.00  0.00    -0.132 NA
ATOM     68  N   UNL     1      23.809  29.584  13.465  1.00  0.00    -0.251 N 
ATOM     69  N   UNL     1      24.589  30.662  13.371  1.00  0.00    -0.067 NA
BRANCH  68  70
ATOM     70  C   UNL     1      23.028  28.974  12.402  1.00  0.00     0.162 C 
BRANCH  70  71
ATOM     71  C   UNL     1      21.553  29.333  12.576  1.00  0.00     0.122 C 
BRANCH  71  72
ATOM     72  N   UNL     1      21.398  30.731  12.860  1.00  0.00    -0.214 NA
ATOM     73  H   UNL     1      21.133  31.233  11.971  1.00  0.00     0.141 HD
BRANCH  72  74
ATOM     74  S   UNL     1      20.154  31.049  14.004  1.00  0.00     0.208 S 
ATOM     75  O   UNL     1      20.749  31.175  15.397  1.00  0.00    -0.213 OA
ATOM     76  O   UNL     1      19.555  32.388  13.617  1.00  0.00    -0.213 OA
ATOM     77  C   UNL     1      18.914  29.792  13.962  1.00  0.00     0.176 C 
ENDBRANCH  72  74
ENDBRANCH  71  72
ENDBRANCH  70  71
ENDBRANCH  68  70
ENDBRANCH  64  65
ENDBRANCH  63  64
ENDBRANCH  60  63
ENDBRANCH  58  59
ENDBRANCH  55  58
ENDBRANCH   1  55
TORSDOF 33
BEGIN_RES LYS A 131
REMARK  4 active torsions:
REMARK  status: ('A' for Active; 'I' for Inactive)
REMARK    1  A    between atoms: CA   and  CB  
REMARK    2  A    between atoms: CB   and  CG  
REMARK    3  A    between atoms: CG   and  CD  
REMARK    4  A    between atoms: CD   and  CE  
ROOT
ATOM      1  CA  LYS A 131      29.867  25.555  16.977  1.00 20.52     0.186 C 
ENDROOT
BRANCH   1   2
ATOM      2  CB  LYS A 131      28.345  25.722  17.026  1.00 20.94     0.034 C 
BRANCH   2   3
ATOM      3  CG  LYS A 131      27.602  24.400  16.915  1.00 22.96     0.005 C 
BRANCH   3   4
ATOM      4  CD  LYS A 131      26.556  24.246  17.984  1.00 24.33     0.041 C 
BRANCH   4   5
ATOM      5  CE  LYS A 131      25.450  25.274  17.766  1.00 26.91     0.338 C 
ATOM      6  NZ  LYS A 131      24.293  24.985  18.645  1.00 27.40     0.618 N 
ENDBRANCH   4   5
ENDBRANCH   3   4
ENDBRANCH   2   3
ENDBRANCH   1   2
END_RES LYS A 131
BEGIN_RES LYS A 135
REMARK  4 active torsions:
REMARK  status: ('A' for Active; 'I' for Inactive)
REMARK    5  A    between atoms: CA   and  CB  
REMARK    6  A    between atoms: CB   and  CG  
REMARK    7  A    between atoms: CG   and  CD  
REMARK    8  A    between atoms: CD   and  CE  
ROOT
ATOM      7  CA  LYS A 135      33.193  34.663   9.290  1.00 25.02     0.186 C 
ENDROOT
BRANCH   7   8
ATOM      8  CB  LYS A 135      32.060  35.360  10.034  1.00 26.63     0.034 C 
BRANCH   8   9
ATOM      9  CG  LYS A 135      30.802  35.506   9.217  1.00 29.45     0.005 C 
BRANCH   9  10
ATOM     10  CD  LYS A 135      30.128  34.157   9.024  1.00 32.00     0.041 C 
BRANCH  10  11
ATOM     11  CE  LYS A 135      28.671  34.339   8.645  1.00 34.25     0.338 C 
ATOM     12  NZ  LYS A 135      27.773  33.689   9.639  1.00 35.99     0.618 N 
ENDBRANCH  10  11
ENDBRANCH   9  10
ENDBRANCH   8   9
ENDBRANCH   7   8
END_RES LYS A 135
