REMARK VINA RESULT:    -4.727      6.406     12.154
REMARK INTER + INTRA:         -21.773
REMARK INTER:                 -11.761
REMARK INTRA:                 -10.012
REMARK UNBOUND:                -9.861
REMARK SMILES CC(=O)N[C@@H]1[C@@H](O)C[C@](OC[C@H]2O[C@@H](O[C@H]3[C@H](O)[C@@H](O)[C@H](OCCN=[N+]=[N-])O[C@@H]3CO)[C@H](O)[C@@H](O)[C@H]2O)(C(=O)O)O[C@H]1C(O)[C@H](O)CNC(=O)OCc1cn(-c2ccc([N+](=O)[O-])cc2)nn1
REMARK SMILES IDX 9 1 8 2 6 3 5 4 42 5 41 6 10 7 11 8 12 9 14 10 13 11 32 12
REMARK SMILES IDX 34 13 36 14 15 15 16 16 29 17 28 18 21 19 17 20 19 21 30 22
REMARK SMILES IDX 31 23 22 25 23 26 24 27 25 28 26 29 27 30 18 31 20 33 33 35
REMARK SMILES IDX 35 37 37 39 38 41 39 42 40 43 7 45 43 47 44 48 45 50 46 51
REMARK SMILES IDX 47 53 48 54 49 55 50 57 51 58 52 59 53 60 54 61 66 62 55 63
REMARK SMILES IDX 65 64 56 65 57 66 64 67 58 68 63 69 59 70 60 71 61 72 62 73
REMARK SMILES IDX 4 74 2 75 1 77 3 78
REMARK H PARENT 31 24 18 32 20 34 33 36 35 38 37 40 40 44 7 46 44 49 46 52
REMARK H PARENT 48 56 4 76
REMARK Flexibility Score: inf
ROOT
ATOM      1  C   UNL     1      27.800  32.255  17.019  1.00  0.00     0.272 C 
ATOM      2  C   UNL     1      28.299  31.494  15.834  1.00  0.00     0.113 C 
ATOM      3  C   UNL     1      29.652  31.939  15.477  1.00  0.00     0.145 C 
ATOM      4  C   UNL     1      30.124  33.247  16.139  1.00  0.00     0.142 C 
ATOM      5  C   UNL     1      28.988  34.149  16.269  1.00  0.00     0.178 C 
ATOM      6  O   UNL     1      27.782  33.600  16.693  1.00  0.00    -0.332 OA
ENDROOT
BRANCH   1   7
ATOM      7  O   UNL     1      28.413  31.978  18.201  1.00  0.00    -0.338 OA
BRANCH   7   8
ATOM      8  C   UNL     1      28.559  30.669  18.529  1.00  0.00     0.199 C 
BRANCH   8   9
ATOM      9  C   UNL     1      28.336  30.430  20.017  1.00  0.00     0.179 C 
ATOM     10  C   UNL     1      27.899  28.157  20.351  1.00  0.00     0.282 C 
ATOM     11  O   UNL     1      27.435  29.432  20.277  1.00  0.00    -0.341 OA
ATOM     12  C   UNL     1      29.347  27.920  20.205  1.00  0.00     0.202 C 
ATOM     13  C   UNL     1      30.154  28.987  20.896  1.00  0.00     0.179 C 
ATOM     14  C   UNL     1      29.579  30.356  20.830  1.00  0.00     0.177 C 
BRANCH  10  15
ATOM     15  O   UNL     1      27.105  27.376  19.516  1.00  0.00    -0.341 OA
BRANCH  15  16
ATOM     16  C   UNL     1      25.811  27.746  19.364  1.00  0.00     0.184 C 
ATOM     17  C   UNL     1      24.810  26.702  19.807  1.00  0.00     0.178 C 
ATOM     18  O   UNL     1      23.515  27.193  19.537  1.00  0.00    -0.341 OA
ATOM     19  C   UNL     1      23.292  27.148  18.161  1.00  0.00     0.281 C 
ATOM     20  C   UNL     1      25.576  27.871  17.846  1.00  0.00     0.180 C 
ATOM     21  C   UNL     1      24.141  28.294  17.596  1.00  0.00     0.202 C 
BRANCH  17  22
ATOM     22  C   UNL     1      24.839  26.402  21.283  1.00  0.00     0.191 C 
BRANCH  22  23
ATOM     23  O   UNL     1      25.880  25.454  21.446  1.00  0.00    -0.394 OA
ATOM     24  H   UNL     1      25.590  24.561  21.120  1.00  0.00     0.210 HD
ENDBRANCH  22  23
ENDBRANCH  17  22
BRANCH  19  25
ATOM     25  O   UNL     1      21.976  27.406  17.880  1.00  0.00    -0.350 OA
BRANCH  25  26
ATOM     26  C   UNL     1      21.184  26.312  17.641  1.00  0.00     0.169 C 
BRANCH  26  27
ATOM     27  C   UNL     1      21.902  25.116  17.082  1.00  0.00     0.119 C 
BRANCH  27  28
ATOM     28  N   UNL     1      21.708  25.102  15.630  1.00  0.00    -0.092 NA
ATOM     29  N   UNL     1      21.505  24.040  15.060  1.00  0.00     0.001 N 
ATOM     30  N   UNL     1      21.076  23.013  14.560  1.00  0.00    -0.003 NA
ENDBRANCH  27  28
ENDBRANCH  26  27
ENDBRANCH  25  26
ENDBRANCH  19  25
BRANCH  20  31
ATOM     31  O   UNL     1      26.493  28.688  17.247  1.00  0.00    -0.387 OA
ATOM     32  H   UNL     1      27.430  28.489  17.443  1.00  0.00     0.211 HD
ENDBRANCH  20  31
BRANCH  21  33
ATOM     33  O   UNL     1      23.936  28.484  16.257  1.00  0.00    -0.385 OA
ATOM     34  H   UNL     1      24.162  27.652  15.775  1.00  0.00     0.211 HD
ENDBRANCH  21  33
ENDBRANCH  15  16
ENDBRANCH  10  15
BRANCH  12  35
ATOM     35  O   UNL     1      29.682  26.731  20.883  1.00  0.00    -0.385 OA
ATOM     36  H   UNL     1      29.216  26.656  21.737  1.00  0.00     0.211 HD
ENDBRANCH  12  35
BRANCH  13  37
ATOM     37  O   UNL     1      31.477  28.953  20.391  1.00  0.00    -0.387 OA
ATOM     38  H   UNL     1      31.419  29.019  19.424  1.00  0.00     0.211 HD
ENDBRANCH  13  37
BRANCH  14  39
ATOM     39  O   UNL     1      30.467  31.344  20.428  1.00  0.00    -0.387 OA
ATOM     40  H   UNL     1      29.959  32.200  20.401  1.00  0.00     0.211 HD
ENDBRANCH  14  39
ENDBRANCH   8   9
ENDBRANCH   7   8
ENDBRANCH   1   7
BRANCH   1  41
ATOM     41  C   UNL     1      26.325  31.946  17.171  1.00  0.00     0.364 C 
ATOM     42  O   UNL     1      25.766  31.156  16.385  1.00  0.00    -0.246 OA
BRANCH  41  43
ATOM     43  O   UNL     1      25.609  32.542  18.171  1.00  0.00    -0.477 OA
ATOM     44  H   UNL     1      25.959  33.275  18.782  1.00  0.00     0.296 HD
ENDBRANCH  41  43
ENDBRANCH   1  41
BRANCH   3  45
ATOM     45  O   UNL     1      30.603  30.978  15.809  1.00  0.00    -0.391 OA
ATOM     46  H   UNL     1      30.195  30.094  15.898  1.00  0.00     0.211 HD
ENDBRANCH   3  45
BRANCH   5  47
ATOM     47  C   UNL     1      29.068  35.428  16.980  1.00  0.00     0.176 C 
BRANCH  47  48
ATOM     48  O   UNL     1      30.284  35.716  17.606  1.00  0.00    -0.388 OA
ATOM     49  H   UNL     1      31.046  35.793  17.007  1.00  0.00     0.211 HD
ENDBRANCH  47  48
BRANCH  47  50
ATOM     50  C   UNL     1      28.641  36.699  16.320  1.00  0.00     0.165 C 
BRANCH  50  51
ATOM     51  O   UNL     1      27.302  36.909  16.200  1.00  0.00    -0.388 OA
ATOM     52  H   UNL     1      27.048  37.861  16.319  1.00  0.00     0.211 HD
ENDBRANCH  50  51
BRANCH  50  53
ATOM     53  C   UNL     1      29.507  37.080  15.149  1.00  0.00     0.154 C 
BRANCH  53  54
ATOM     54  N   UNL     1      28.821  37.160  13.887  1.00  0.00    -0.319 N 
ATOM     55  C   UNL     1      28.982  36.237  12.827  1.00  0.00     0.407 C 
ATOM     56  H   UNL     1      28.143  37.946  13.700  1.00  0.00     0.167 HD
ATOM     57  O   UNL     1      29.762  35.288  12.952  1.00  0.00    -0.225 OA
BRANCH  55  58
ATOM     58  O   UNL     1      28.281  36.366  11.626  1.00  0.00    -0.443 OA
BRANCH  58  59
ATOM     59  C   UNL     1      26.897  36.579  11.539  1.00  0.00     0.294 C 
BRANCH  59  60
ATOM     60  C   UNL     1      26.166  35.590  12.359  1.00  0.00     0.121 A 
ATOM     61  C   UNL     1      25.419  34.495  11.930  1.00  0.00     0.144 A 
ATOM     62  N   UNL     1      26.084  35.535  13.721  1.00  0.00    -0.131 NA
ATOM     63  N   UNL     1      24.930  33.838  12.999  1.00  0.00    -0.220 N 
ATOM     64  N   UNL     1      25.349  34.491  14.060  1.00  0.00    -0.062 NA
BRANCH  63  65
ATOM     65  C   UNL     1      24.125  32.654  12.995  1.00  0.00     0.067 A 
ATOM     66  C   UNL     1      22.763  32.657  12.809  1.00  0.00     0.035 A 
ATOM     67  C   UNL     1      24.731  31.422  13.197  1.00  0.00     0.035 A 
ATOM     68  C   UNL     1      22.025  31.475  12.825  1.00  0.00     0.088 A 
ATOM     69  C   UNL     1      24.003  30.251  13.212  1.00  0.00     0.088 A 
ATOM     70  C   UNL     1      22.637  30.252  13.027  1.00  0.00     0.269 A 
BRANCH  70  71
ATOM     71  N   UNL     1      21.873  29.052  13.043  1.00  0.00     0.062 N 
ATOM     72  O   UNL     1      21.989  28.163  13.902  1.00  0.00    -0.258 OA
ATOM     73  O   UNL     1      20.951  28.867  12.044  1.00  0.00    -0.258 OA
ENDBRANCH  70  71
ENDBRANCH  63  65
ENDBRANCH  59  60
ENDBRANCH  58  59
ENDBRANCH  55  58
ENDBRANCH  53  54
ENDBRANCH  50  53
ENDBRANCH  47  50
ENDBRANCH   5  47
BRANCH   4  74
ATOM     74  N   UNL     1      31.042  33.753  15.105  1.00  0.00    -0.348 N 
ATOM     75  C   UNL     1      32.251  34.398  15.416  1.00  0.00     0.217 C 
ATOM     76  H   UNL     1      30.771  33.609  14.117  1.00  0.00     0.163 HD
ATOM     77  C   UNL     1      33.109  34.879  14.291  1.00  0.00     0.114 C 
ATOM     78  O   UNL     1      32.630  34.582  16.583  1.00  0.00    -0.275 OA
ENDBRANCH   4  74
TORSDOF 31
BEGIN_RES LYS A 131
REMARK  4 active torsions:
REMARK  status: ('A' for Active; 'I' for Inactive)
REMARK    1  A    between atoms: CA   and  CB  
REMARK    2  A    between atoms: CB   and  CG  
REMARK    3  A    between atoms: CG   and  CD  
REMARK    4  A    between atoms: CD   and  CE  
ROOT
ATOM      1  CA  LYS A 131      29.867  25.555  16.977  1.00 20.52     0.186 C 
ENDROOT
BRANCH   1   2
ATOM      2  CB  LYS A 131      28.345  25.722  17.026  1.00 20.94     0.034 C 
BRANCH   2   3
ATOM      3  CG  LYS A 131      27.602  24.398  16.934  1.00 22.96     0.005 C 
BRANCH   3   4
ATOM      4  CD  LYS A 131      26.153  24.534  17.310  1.00 24.33     0.041 C 
BRANCH   4   5
ATOM      5  CE  LYS A 131      25.785  23.454  18.322  1.00 26.91     0.338 C 
ATOM      6  NZ  LYS A 131      24.949  22.409  17.685  1.00 27.40     0.618 N 
ENDBRANCH   4   5
ENDBRANCH   3   4
ENDBRANCH   2   3
ENDBRANCH   1   2
END_RES LYS A 131
BEGIN_RES LYS A 135
REMARK  4 active torsions:
REMARK  status: ('A' for Active; 'I' for Inactive)
REMARK    5  A    between atoms: CA   and  CB  
REMARK    6  A    between atoms: CB   and  CG  
REMARK    7  A    between atoms: CG   and  CD  
REMARK    8  A    between atoms: CD   and  CE  
ROOT
ATOM      7  CA  LYS A 135      33.193  34.663   9.290  1.00 25.02     0.186 C 
ENDROOT
BRANCH   7   8
ATOM      8  CB  LYS A 135      32.060  35.360  10.034  1.00 26.63     0.034 C 
BRANCH   8   9
ATOM      9  CG  LYS A 135      30.820  35.554   9.199  1.00 29.45     0.005 C 
BRANCH   9  10
ATOM     10  CD  LYS A 135      30.060  34.244   9.056  1.00 32.00     0.041 C 
BRANCH  10  11
ATOM     11  CE  LYS A 135      28.638  34.502   8.597  1.00 34.25     0.338 C 
ATOM     12  NZ  LYS A 135      27.660  33.751   9.433  1.00 35.99     0.618 N 
ENDBRANCH  10  11
ENDBRANCH   9  10
ENDBRANCH   8   9
ENDBRANCH   7   8
END_RES LYS A 135
