REMARK VINA RESULT:    -4.370      4.066      8.750
REMARK INTER + INTRA:         -22.775
REMARK INTER:                 -11.171
REMARK INTRA:                 -11.604
REMARK UNBOUND:               -11.507
REMARK SMILES COc1ccc(Cn2cc(COC(=O)NC[C@@H](O)C(O)[C@@H]3O[C@@](OC[C@H]4O[C@@H](O[C@H]5[C@H](O)[C@@H](O)[C@H](OCCN=[N+]=[N-])O[C@@H]5CO)[C@H](O)[C@@H](O)[C@H]4O)(C(=O)O)C[C@H](O)[C@H]3NC(C)=O)nn2)cc1
REMARK SMILES IDX 23 1 55 2 56 3 58 4 21 5 22 6 24 7 25 8 26 9 28 10 27 11
REMARK SMILES IDX 46 12 48 13 50 14 29 15 30 16 43 17 42 18 35 19 31 20 33 21
REMARK SMILES IDX 44 22 45 23 36 25 37 26 38 27 39 28 40 29 41 30 32 31 34 33
REMARK SMILES IDX 47 35 49 37 51 39 52 41 53 42 54 43 57 45 19 47 20 48 17 50
REMARK SMILES IDX 18 51 16 53 15 54 13 55 14 57 12 58 11 59 10 60 9 61 63 62
REMARK SMILES IDX 8 63 64 64 7 65 6 66 5 67 65 68 4 69 66 70 3 71 2 72 1 73
REMARK SMILES IDX 59 74 60 75 61 77 62 78
REMARK H PARENT 45 24 32 32 34 34 47 36 49 38 51 40 54 44 57 46 20 49 18 52
REMARK H PARENT 15 56 59 76
REMARK Flexibility Score: inf
ROOT
ATOM      1  C   UNL     1      21.089  36.860  10.615  1.00  0.00     0.272 C 
ATOM      2  C   UNL     1      20.752  36.203   9.293  1.00  0.00     0.113 C 
ATOM      3  C   UNL     1      20.876  37.213   8.171  1.00  0.00     0.145 C 
ATOM      4  C   UNL     1      22.130  38.034   8.235  1.00  0.00     0.142 C 
ATOM      5  C   UNL     1      22.973  37.752   9.467  1.00  0.00     0.178 C 
ATOM      6  O   UNL     1      22.198  37.604  10.601  1.00  0.00    -0.332 OA
ENDROOT
BRANCH   1   7
ATOM      7  O   UNL     1      20.883  36.030  11.664  1.00  0.00    -0.338 OA
BRANCH   7   8
ATOM      8  C   UNL     1      21.130  34.716  11.632  1.00  0.00     0.199 C 
BRANCH   8   9
ATOM      9  C   UNL     1      22.474  34.346  12.223  1.00  0.00     0.179 C 
ATOM     10  C   UNL     1      24.061  35.282  13.561  1.00  0.00     0.282 C 
ATOM     11  O   UNL     1      22.671  35.064  13.436  1.00  0.00    -0.341 OA
ATOM     12  C   UNL     1      24.846  34.082  13.177  1.00  0.00     0.202 C 
ATOM     13  C   UNL     1      24.102  32.795  13.067  1.00  0.00     0.179 C 
ATOM     14  C   UNL     1      22.681  32.917  12.556  1.00  0.00     0.177 C 
BRANCH  10  15
ATOM     15  O   UNL     1      24.380  35.899  14.737  1.00  0.00    -0.341 OA
BRANCH  15  16
ATOM     16  C   UNL     1      25.007  35.131  15.694  1.00  0.00     0.184 C 
ATOM     17  C   UNL     1      24.414  35.226  17.079  1.00  0.00     0.178 C 
ATOM     18  O   UNL     1      25.386  35.000  18.052  1.00  0.00    -0.341 OA
ATOM     19  C   UNL     1      26.380  34.099  17.632  1.00  0.00     0.281 C 
ATOM     20  C   UNL     1      26.399  35.769  15.870  1.00  0.00     0.180 C 
ATOM     21  C   UNL     1      27.258  34.729  16.535  1.00  0.00     0.202 C 
BRANCH  17  22
ATOM     22  C   UNL     1      23.292  34.274  17.352  1.00  0.00     0.191 C 
BRANCH  22  23
ATOM     23  O   UNL     1      22.971  33.590  16.182  1.00  0.00    -0.394 OA
ATOM     24  H   UNL     1      22.370  32.834  16.439  1.00  0.00     0.210 HD
ENDBRANCH  22  23
ENDBRANCH  17  22
BRANCH  19  25
ATOM     25  O   UNL     1      25.914  32.884  17.245  1.00  0.00    -0.350 OA
BRANCH  25  26
ATOM     26  C   UNL     1      26.771  31.984  16.691  1.00  0.00     0.169 C 
BRANCH  26  27
ATOM     27  C   UNL     1      26.798  30.612  17.252  1.00  0.00     0.119 C 
BRANCH  27  28
ATOM     28  N   UNL     1      26.293  29.604  16.386  1.00  0.00    -0.092 NA
ATOM     29  N   UNL     1      25.091  29.429  16.138  1.00  0.00     0.001 N 
ATOM     30  N   UNL     1      24.017  29.426  15.494  1.00  0.00    -0.003 NA
ENDBRANCH  27  28
ENDBRANCH  26  27
ENDBRANCH  25  26
ENDBRANCH  19  25
BRANCH  20  31
ATOM     31  O   UNL     1      26.898  36.263  14.697  1.00  0.00    -0.387 OA
ATOM     32  H   UNL     1      27.882  36.062  14.588  1.00  0.00     0.211 HD
ENDBRANCH  20  31
BRANCH  21  33
ATOM     33  O   UNL     1      28.419  35.289  17.068  1.00  0.00    -0.385 OA
ATOM     34  H   UNL     1      28.394  36.273  16.933  1.00  0.00     0.211 HD
ENDBRANCH  21  33
ENDBRANCH  15  16
ENDBRANCH  10  15
BRANCH  12  35
ATOM     35  O   UNL     1      25.611  34.302  12.003  1.00  0.00    -0.385 OA
ATOM     36  H   UNL     1      26.081  33.449  11.754  1.00  0.00     0.211 HD
ENDBRANCH  12  35
BRANCH  13  37
ATOM     37  O   UNL     1      24.141  32.063  14.279  1.00  0.00    -0.387 OA
ATOM     38  H   UNL     1      24.402  32.689  15.002  1.00  0.00     0.211 HD
ENDBRANCH  13  37
BRANCH  14  39
ATOM     39  O   UNL     1      21.759  32.425  13.474  1.00  0.00    -0.387 OA
ATOM     40  H   UNL     1      22.009  31.531  13.814  1.00  0.00     0.211 HD
ENDBRANCH  14  39
ENDBRANCH   8   9
ENDBRANCH   7   8
ENDBRANCH   1   7
BRANCH   1  41
ATOM     41  C   UNL     1      19.860  37.809  10.811  1.00  0.00     0.364 C 
ATOM     42  O   UNL     1      18.730  37.320  11.022  1.00  0.00    -0.246 OA
BRANCH  41  43
ATOM     43  O   UNL     1      19.957  39.157  10.765  1.00  0.00    -0.477 OA
ATOM     44  H   UNL     1      19.665  39.784  10.057  1.00  0.00     0.296 HD
ENDBRANCH  41  43
ENDBRANCH   1  41
BRANCH   3  45
ATOM     45  O   UNL     1      20.889  36.407   6.994  1.00  0.00    -0.391 OA
ATOM     46  H   UNL     1      20.017  36.471   6.528  1.00  0.00     0.211 HD
ENDBRANCH   3  45
BRANCH   5  47
ATOM     47  C   UNL     1      23.921  36.670   9.123  1.00  0.00     0.176 C 
BRANCH  47  48
ATOM     48  O   UNL     1      24.538  36.067  10.258  1.00  0.00    -0.388 OA
ATOM     49  H   UNL     1      25.406  35.714   9.966  1.00  0.00     0.211 HD
ENDBRANCH  47  48
BRANCH  47  50
ATOM     50  C   UNL     1      25.221  37.176   8.432  1.00  0.00     0.165 C 
BRANCH  50  51
ATOM     51  O   UNL     1      26.078  36.259   7.970  1.00  0.00    -0.388 OA
ATOM     52  H   UNL     1      26.968  36.351   8.393  1.00  0.00     0.211 HD
ENDBRANCH  50  51
BRANCH  50  53
ATOM     53  C   UNL     1      25.904  38.125   9.441  1.00  0.00     0.154 C 
BRANCH  53  54
ATOM     54  N   UNL     1      27.195  37.671   9.843  1.00  0.00    -0.319 N 
ATOM     55  C   UNL     1      27.417  37.290  11.206  1.00  0.00     0.407 C 
ATOM     56  H   UNL     1      27.973  37.611   9.179  1.00  0.00     0.167 HD
ATOM     57  O   UNL     1      26.462  37.362  12.028  1.00  0.00    -0.225 OA
BRANCH  55  58
ATOM     58  O   UNL     1      28.680  36.856  11.567  1.00  0.00    -0.443 OA
BRANCH  58  59
ATOM     59  C   UNL     1      28.872  35.480  11.950  1.00  0.00     0.294 C 
BRANCH  59  60
ATOM     60  C   UNL     1      29.702  35.457  13.172  1.00  0.00     0.120 A 
ATOM     61  C   UNL     1      30.653  34.493  13.524  1.00  0.00     0.138 A 
ATOM     62  N   UNL     1      29.697  36.338  14.178  1.00  0.00    -0.132 NA
ATOM     63  N   UNL     1      31.157  34.850  14.712  1.00  0.00    -0.248 N 
ATOM     64  N   UNL     1      30.568  35.972  15.097  1.00  0.00    -0.067 NA
BRANCH  63  65
ATOM     65  C   UNL     1      32.167  34.136  15.451  1.00  0.00     0.181 C 
BRANCH  65  66
ATOM     66  C   UNL     1      31.513  33.310  16.490  1.00  0.00    -0.026 A 
ATOM     67  C   UNL     1      30.985  32.068  16.151  1.00  0.00     0.009 A 
ATOM     68  C   UNL     1      31.411  33.704  17.799  1.00  0.00     0.009 A 
ATOM     69  C   UNL     1      30.380  31.250  17.081  1.00  0.00     0.047 A 
ATOM     70  C   UNL     1      30.797  32.873  18.742  1.00  0.00     0.047 A 
ATOM     71  C   UNL     1      30.279  31.653  18.405  1.00  0.00     0.118 A 
BRANCH  71  72
ATOM     72  O   UNL     1      29.664  30.797  19.300  1.00  0.00    -0.497 OA
ATOM     73  C   UNL     1      30.330  29.878  20.116  1.00  0.00     0.278 C 
ENDBRANCH  71  72
ENDBRANCH  65  66
ENDBRANCH  63  65
ENDBRANCH  59  60
ENDBRANCH  58  59
ENDBRANCH  55  58
ENDBRANCH  53  54
ENDBRANCH  50  53
ENDBRANCH  47  50
ENDBRANCH   5  47
BRANCH   4  74
ATOM     74  N   UNL     1      21.948  39.453   8.015  1.00  0.00    -0.348 N 
ATOM     75  C   UNL     1      22.868  40.288   7.324  1.00  0.00     0.217 C 
ATOM     76  H   UNL     1      21.105  39.910   8.391  1.00  0.00     0.163 HD
ATOM     77  C   UNL     1      22.576  41.763   7.158  1.00  0.00     0.114 C 
ATOM     78  O   UNL     1      23.922  39.799   6.852  1.00  0.00    -0.275 OA
ENDBRANCH   4  74
TORSDOF 32
BEGIN_RES LYS A 131
REMARK  4 active torsions:
REMARK  status: ('A' for Active; 'I' for Inactive)
REMARK    1  A    between atoms: CA   and  CB  
REMARK    2  A    between atoms: CB   and  CG  
REMARK    3  A    between atoms: CG   and  CD  
REMARK    4  A    between atoms: CD   and  CE  
ROOT
ATOM      1  CA  LYS A 131      29.867  25.555  16.977  1.00 20.52     0.186 C 
ENDROOT
BRANCH   1   2
ATOM      2  CB  LYS A 131      28.345  25.722  17.026  1.00 20.94     0.034 C 
BRANCH   2   3
ATOM      3  CG  LYS A 131      27.602  24.399  16.925  1.00 22.96     0.005 C 
BRANCH   3   4
ATOM      4  CD  LYS A 131      26.162  24.525  17.339  1.00 24.33     0.041 C 
BRANCH   4   5
ATOM      5  CE  LYS A 131      26.047  25.531  18.480  1.00 26.91     0.338 C 
ATOM      6  NZ  LYS A 131      25.004  26.540  18.178  1.00 27.40     0.618 N 
ENDBRANCH   4   5
ENDBRANCH   3   4
ENDBRANCH   2   3
ENDBRANCH   1   2
END_RES LYS A 131
BEGIN_RES LYS A 135
REMARK  4 active torsions:
REMARK  status: ('A' for Active; 'I' for Inactive)
REMARK    5  A    between atoms: CA   and  CB  
REMARK    6  A    between atoms: CB   and  CG  
REMARK    7  A    between atoms: CG   and  CD  
REMARK    8  A    between atoms: CD   and  CE  
ROOT
ATOM      7  CA  LYS A 135      33.193  34.663   9.290  1.00 25.02     0.186 C 
ENDROOT
BRANCH   7   8
ATOM      8  CB  LYS A 135      32.060  35.360  10.034  1.00 26.63     0.034 C 
BRANCH   8   9
ATOM      9  CG  LYS A 135      30.862  35.655   9.168  1.00 29.45     0.005 C 
BRANCH   9  10
ATOM     10  CD  LYS A 135      30.328  34.378   8.538  1.00 32.00     0.041 C 
BRANCH  10  11
ATOM     11  CE  LYS A 135      28.833  34.483   8.306  1.00 34.25     0.338 C 
ATOM     12  NZ  LYS A 135      28.075  33.733   9.346  1.00 35.99     0.618 N 
ENDBRANCH  10  11
ENDBRANCH   9  10
ENDBRANCH   8   9
ENDBRANCH   7   8
END_RES LYS A 135
