REMARK VINA RESULT:    -4.709     10.983     18.774
REMARK INTER + INTRA:         -22.833
REMARK INTER:                 -11.394
REMARK INTRA:                 -11.440
REMARK UNBOUND:               -11.242
REMARK SMILES CC(=O)N[C@@H]1[C@@H](O)C[C@](OC[C@H]2O[C@@H](O[C@H]3[C@H](O)[C@@H](O)[C@H](OCCN=[N+]=[N-])O[C@@H]3CO)[C@H](O)[C@@H](O)[C@H]2O)(C(=O)O)O[C@H]1C(O)[C@H](O)CNC(=O)OCc1cn(-c2c(C)cc(C)cc2C)nn1
REMARK SMILES IDX 9 1 8 2 6 3 5 4 42 5 41 6 10 7 11 8 12 9 14 10 13 11 32 12
REMARK SMILES IDX 34 13 36 14 15 15 16 16 29 17 28 18 21 19 17 20 19 21 30 22
REMARK SMILES IDX 31 23 22 25 23 26 24 27 25 28 26 29 27 30 18 31 20 33 33 35
REMARK SMILES IDX 35 37 37 39 38 41 39 42 40 43 7 45 43 47 44 48 45 50 46 51
REMARK SMILES IDX 47 53 48 54 49 55 50 57 51 58 52 59 53 60 54 61 66 62 55 63
REMARK SMILES IDX 65 64 56 65 57 66 63 67 58 68 59 69 62 70 64 71 60 72 61 73
REMARK SMILES IDX 4 74 2 75 1 77 3 78
REMARK H PARENT 31 24 18 32 20 34 33 36 35 38 37 40 40 44 7 46 44 49 46 52
REMARK H PARENT 48 56 4 76
REMARK Flexibility Score: inf
ROOT
ATOM      1  C   UNL     1      28.107  41.496   8.709  1.00  0.00     0.272 C 
ATOM      2  C   UNL     1      27.266  41.688   9.911  1.00  0.00     0.113 C 
ATOM      3  C   UNL     1      25.786  41.448   9.742  1.00  0.00     0.145 C 
ATOM      4  C   UNL     1      25.355  41.862   8.370  1.00  0.00     0.142 C 
ATOM      5  C   UNL     1      26.395  42.892   7.910  1.00  0.00     0.178 C 
ATOM      6  O   UNL     1      27.563  42.147   7.593  1.00  0.00    -0.332 OA
ENDROOT
BRANCH   1   7
ATOM      7  O   UNL     1      28.458  40.223   8.376  1.00  0.00    -0.338 OA
BRANCH   7   8
ATOM      8  C   UNL     1      28.985  39.394   9.296  1.00  0.00     0.199 C 
BRANCH   8   9
ATOM      9  C   UNL     1      28.713  37.955   8.833  1.00  0.00     0.179 C 
ATOM     10  C   UNL     1      27.074  36.847   7.657  1.00  0.00     0.282 C 
ATOM     11  O   UNL     1      27.357  37.742   8.678  1.00  0.00    -0.341 OA
ATOM     12  C   UNL     1      27.415  37.558   6.373  1.00  0.00     0.202 C 
ATOM     13  C   UNL     1      28.927  37.730   6.378  1.00  0.00     0.179 C 
ATOM     14  C   UNL     1      29.570  37.519   7.703  1.00  0.00     0.177 C 
BRANCH  10  15
ATOM     15  O   UNL     1      25.849  36.300   7.726  1.00  0.00    -0.341 OA
BRANCH  15  16
ATOM     16  C   UNL     1      24.929  36.833   8.555  1.00  0.00     0.184 C 
ATOM     17  C   UNL     1      24.540  35.807   9.604  1.00  0.00     0.178 C 
ATOM     18  O   UNL     1      23.333  35.222   9.361  1.00  0.00    -0.341 OA
ATOM     19  C   UNL     1      22.253  36.091   9.378  1.00  0.00     0.281 C 
ATOM     20  C   UNL     1      23.690  37.210   7.738  1.00  0.00     0.180 C 
ATOM     21  C   UNL     1      22.490  37.366   8.654  1.00  0.00     0.202 C 
BRANCH  17  22
ATOM     22  C   UNL     1      24.655  36.388  11.003  1.00  0.00     0.191 C 
BRANCH  22  23
ATOM     23  O   UNL     1      25.427  37.547  10.991  1.00  0.00    -0.394 OA
ATOM     24  H   UNL     1      25.871  37.716  10.129  1.00  0.00     0.210 HD
ENDBRANCH  22  23
ENDBRANCH  17  22
BRANCH  19  25
ATOM     25  O   UNL     1      21.851  36.371  10.692  1.00  0.00    -0.350 OA
BRANCH  25  26
ATOM     26  C   UNL     1      20.518  36.147  10.921  1.00  0.00     0.169 C 
BRANCH  26  27
ATOM     27  C   UNL     1      20.070  34.727  10.759  1.00  0.00     0.119 C 
BRANCH  27  28
ATOM     28  N   UNL     1      18.948  34.605   9.846  1.00  0.00    -0.092 NA
ATOM     29  N   UNL     1      19.073  34.889   8.638  1.00  0.00     0.001 N 
ATOM     30  N   UNL     1      19.416  35.157   7.480  1.00  0.00    -0.003 NA
ENDBRANCH  27  28
ENDBRANCH  26  27
ENDBRANCH  25  26
ENDBRANCH  19  25
BRANCH  20  31
ATOM     31  O   UNL     1      23.841  38.379   7.034  1.00  0.00    -0.387 OA
ATOM     32  H   UNL     1      24.781  38.662   6.894  1.00  0.00     0.211 HD
ENDBRANCH  20  31
BRANCH  21  33
ATOM     33  O   UNL     1      21.392  37.638   7.841  1.00  0.00    -0.385 OA
ATOM     34  H   UNL     1      21.683  37.966   6.944  1.00  0.00     0.211 HD
ENDBRANCH  21  33
ENDBRANCH  15  16
ENDBRANCH  10  15
BRANCH  12  35
ATOM     35  O   UNL     1      27.090  36.811   5.245  1.00  0.00    -0.385 OA
ATOM     36  H   UNL     1      26.712  35.940   5.573  1.00  0.00     0.211 HD
ENDBRANCH  12  35
BRANCH  13  37
ATOM     37  O   UNL     1      29.295  38.984   5.893  1.00  0.00    -0.387 OA
ATOM     38  H   UNL     1      29.506  39.634   6.611  1.00  0.00     0.211 HD
ENDBRANCH  13  37
BRANCH  14  39
ATOM     39  O   UNL     1      30.778  38.258   7.708  1.00  0.00    -0.387 OA
ATOM     40  H   UNL     1      31.541  37.676   7.929  1.00  0.00     0.211 HD
ENDBRANCH  14  39
ENDBRANCH   8   9
ENDBRANCH   7   8
ENDBRANCH   1   7
BRANCH   1  41
ATOM     41  C   UNL     1      29.373  42.286   8.956  1.00  0.00     0.364 C 
ATOM     42  O   UNL     1      29.637  42.644  10.108  1.00  0.00    -0.246 OA
BRANCH  41  43
ATOM     43  O   UNL     1      30.233  42.611   7.925  1.00  0.00    -0.477 OA
ATOM     44  H   UNL     1      30.894  43.368   7.945  1.00  0.00     0.296 HD
ENDBRANCH  41  43
ENDBRANCH   1  41
BRANCH   3  45
ATOM     45  O   UNL     1      25.554  40.103  10.025  1.00  0.00    -0.391 OA
ATOM     46  H   UNL     1      26.442  39.661  10.223  1.00  0.00     0.211 HD
ENDBRANCH   3  45
BRANCH   5  47
ATOM     47  C   UNL     1      26.060  43.599   6.657  1.00  0.00     0.176 C 
BRANCH  47  48
ATOM     48  O   UNL     1      26.060  42.598   5.617  1.00  0.00    -0.388 OA
ATOM     49  H   UNL     1      26.221  43.049   4.749  1.00  0.00     0.211 HD
ENDBRANCH  47  48
BRANCH  47  50
ATOM     50  C   UNL     1      27.070  44.594   6.121  1.00  0.00     0.165 C 
BRANCH  50  51
ATOM     51  O   UNL     1      26.207  45.644   5.620  1.00  0.00    -0.388 OA
ATOM     52  H   UNL     1      25.292  45.468   5.913  1.00  0.00     0.211 HD
ENDBRANCH  50  51
BRANCH  50  53
ATOM     53  C   UNL     1      27.739  44.092   4.865  1.00  0.00     0.154 C 
BRANCH  53  54
ATOM     54  N   UNL     1      28.905  43.285   5.050  1.00  0.00    -0.319 N 
ATOM     55  C   UNL     1      29.065  42.090   4.284  1.00  0.00     0.407 C 
ATOM     56  H   UNL     1      29.651  43.559   5.750  1.00  0.00     0.167 HD
ATOM     57  O   UNL     1      28.135  41.809   3.478  1.00  0.00    -0.225 OA
BRANCH  55  58
ATOM     58  O   UNL     1      30.178  41.267   4.404  1.00  0.00    -0.443 OA
BRANCH  58  59
ATOM     59  C   UNL     1      31.492  41.772   4.377  1.00  0.00     0.294 C 
BRANCH  59  60
ATOM     60  C   UNL     1      32.348  41.280   5.489  1.00  0.00     0.121 A 
ATOM     61  C   UNL     1      33.698  41.464   5.676  1.00  0.00     0.144 A 
ATOM     62  N   UNL     1      31.940  40.534   6.558  1.00  0.00    -0.131 NA
ATOM     63  N   UNL     1      34.072  40.850   6.810  1.00  0.00    -0.220 N 
ATOM     64  N   UNL     1      32.967  40.299   7.310  1.00  0.00    -0.062 NA
BRANCH  63  65
ATOM     65  C   UNL     1      35.384  40.768   7.400  1.00  0.00     0.072 A 
ATOM     66  C   UNL     1      35.713  41.735   8.317  1.00  0.00    -0.025 A 
ATOM     67  C   UNL     1      36.228  39.775   7.042  1.00  0.00    -0.025 A 
ATOM     68  C   UNL     1      34.745  42.824   8.686  1.00  0.00     0.047 C 
ATOM     69  C   UNL     1      36.968  41.676   8.891  1.00  0.00     0.009 A 
ATOM     70  C   UNL     1      37.488  39.757   7.650  1.00  0.00     0.009 A 
ATOM     71  C   UNL     1      35.906  38.711   6.056  1.00  0.00     0.047 C 
ATOM     72  C   UNL     1      37.874  40.697   8.575  1.00  0.00    -0.050 A 
ATOM     73  C   UNL     1      39.206  40.688   9.229  1.00  0.00     0.044 C 
ENDBRANCH  63  65
ENDBRANCH  59  60
ENDBRANCH  58  59
ENDBRANCH  55  58
ENDBRANCH  53  54
ENDBRANCH  50  53
ENDBRANCH  47  50
ENDBRANCH   5  47
BRANCH   4  74
ATOM     74  N   UNL     1      24.031  42.291   8.229  1.00  0.00    -0.348 N 
ATOM     75  C   UNL     1      23.160  41.826   7.201  1.00  0.00     0.217 C 
ATOM     76  H   UNL     1      23.628  42.965   8.904  1.00  0.00     0.163 HD
ATOM     77  C   UNL     1      21.749  42.303   7.080  1.00  0.00     0.114 C 
ATOM     78  O   UNL     1      23.616  40.996   6.397  1.00  0.00    -0.275 OA
ENDBRANCH   4  74
TORSDOF 30
BEGIN_RES LYS A 131
REMARK  4 active torsions:
REMARK  status: ('A' for Active; 'I' for Inactive)
REMARK    1  A    between atoms: CA   and  CB  
REMARK    2  A    between atoms: CB   and  CG  
REMARK    3  A    between atoms: CG   and  CD  
REMARK    4  A    between atoms: CD   and  CE  
ROOT
ATOM      1  CA  LYS A 131      29.867  25.555  16.977  1.00 20.52     0.186 C 
ENDROOT
BRANCH   1   2
ATOM      2  CB  LYS A 131      28.345  25.722  17.026  1.00 20.94     0.034 C 
BRANCH   2   3
ATOM      3  CG  LYS A 131      27.602  24.400  16.916  1.00 22.96     0.005 C 
BRANCH   3   4
ATOM      4  CD  LYS A 131      26.558  24.246  17.987  1.00 24.33     0.041 C 
BRANCH   4   5
ATOM      5  CE  LYS A 131      25.296  23.636  17.384  1.00 26.91     0.338 C 
ATOM      6  NZ  LYS A 131      24.383  24.700  16.906  1.00 27.40     0.618 N 
ENDBRANCH   4   5
ENDBRANCH   3   4
ENDBRANCH   2   3
ENDBRANCH   1   2
END_RES LYS A 131
BEGIN_RES LYS A 135
REMARK  4 active torsions:
REMARK  status: ('A' for Active; 'I' for Inactive)
REMARK    5  A    between atoms: CA   and  CB  
REMARK    6  A    between atoms: CB   and  CG  
REMARK    7  A    between atoms: CG   and  CD  
REMARK    8  A    between atoms: CD   and  CE  
ROOT
ATOM      7  CA  LYS A 135      33.193  34.663   9.290  1.00 25.02     0.186 C 
ENDROOT
BRANCH   7   8
ATOM      8  CB  LYS A 135      32.060  35.360  10.034  1.00 26.63     0.034 C 
BRANCH   8   9
ATOM      9  CG  LYS A 135      30.702  34.769   9.755  1.00 29.45     0.005 C 
BRANCH   9  10
ATOM     10  CD  LYS A 135      29.804  34.886  10.976  1.00 32.00     0.041 C 
BRANCH  10  11
ATOM     11  CE  LYS A 135      28.347  34.731  10.583  1.00 34.25     0.338 C 
ATOM     12  NZ  LYS A 135      28.200  33.804   9.427  1.00 35.99     0.618 N 
ENDBRANCH  10  11
ENDBRANCH   9  10
ENDBRANCH   8   9
ENDBRANCH   7   8
END_RES LYS A 135
