REMARK VINA RESULT:    -4.275      3.171      9.178
REMARK INTER + INTRA:         -22.094
REMARK INTER:                 -12.169
REMARK INTRA:                  -9.925
REMARK UNBOUND:               -11.571
REMARK SMILES CC(=O)N[C@@H]1[C@@H](O)C[C@](OC[C@H]2O[C@@H](O[C@H]3[C@H](O)[C@@H](O)[C@H](OCCN=[N+]=[N-])O[C@@H]3CO)[C@H](O)[C@@H](O)[C@H]2O)(C(=O)O)O[C@H]1C(O)[C@H](O)CNC(=O)OCc1cn(-c2ccc3[nH]ncc3c2)nn1
REMARK SMILES IDX 9 1 8 2 6 3 5 4 42 5 41 6 10 7 11 8 12 9 14 10 13 11 32 12
REMARK SMILES IDX 34 13 36 14 15 15 16 16 29 17 28 18 21 19 17 20 19 21 30 22
REMARK SMILES IDX 31 23 22 25 23 26 24 27 25 28 26 29 27 30 18 31 20 33 33 35
REMARK SMILES IDX 35 37 37 39 38 41 39 42 40 43 7 45 43 47 44 48 45 50 46 51
REMARK SMILES IDX 47 53 48 54 49 55 50 57 51 58 52 59 53 60 54 61 66 62 55 63
REMARK SMILES IDX 65 64 56 65 57 66 64 67 58 68 63 69 59 70 62 71 60 72 61 73
REMARK SMILES IDX 4 75 2 76 1 78 3 79
REMARK H PARENT 31 24 18 32 20 34 33 36 35 38 37 40 40 44 7 46 44 49 46 52
REMARK H PARENT 48 56 60 74 4 77
REMARK Flexibility Score: inf
ROOT
ATOM      1  C   UNL     1      31.018  36.072  14.257  1.00  0.00     0.272 C 
ATOM      2  C   UNL     1      31.602  37.248  13.562  1.00  0.00     0.113 C 
ATOM      3  C   UNL     1      30.809  37.771  12.392  1.00  0.00     0.145 C 
ATOM      4  C   UNL     1      29.422  38.130  12.989  1.00  0.00     0.142 C 
ATOM      5  C   UNL     1      28.947  36.883  13.629  1.00  0.00     0.178 C 
ATOM      6  O   UNL     1      29.693  36.324  14.607  1.00  0.00    -0.332 OA
ENDROOT
BRANCH   1   7
ATOM      7  O   UNL     1      31.751  35.852  15.443  1.00  0.00    -0.338 OA
BRANCH   7   8
ATOM      8  C   UNL     1      31.308  36.520  16.536  1.00  0.00     0.199 C 
BRANCH   8   9
ATOM      9  C   UNL     1      30.383  35.645  17.411  1.00  0.00     0.179 C 
ATOM     10  C   UNL     1      31.002  33.776  18.633  1.00  0.00     0.282 C 
ATOM     11  O   UNL     1      30.755  34.335  17.367  1.00  0.00    -0.341 OA
ATOM     12  C   UNL     1      32.156  34.531  19.208  1.00  0.00     0.202 C 
ATOM     13  C   UNL     1      31.625  35.928  19.563  1.00  0.00     0.179 C 
ATOM     14  C   UNL     1      30.350  36.212  18.818  1.00  0.00     0.177 C 
BRANCH  10  15
ATOM     15  O   UNL     1      31.187  32.411  18.505  1.00  0.00    -0.341 OA
BRANCH  15  16
ATOM     16  C   UNL     1      29.989  31.810  18.139  1.00  0.00     0.184 C 
ATOM     17  C   UNL     1      29.577  30.658  19.004  1.00  0.00     0.178 C 
ATOM     18  O   UNL     1      28.370  30.185  18.648  1.00  0.00    -0.341 OA
ATOM     19  C   UNL     1      27.834  30.449  17.428  1.00  0.00     0.281 C 
ATOM     20  C   UNL     1      30.148  31.166  16.749  1.00  0.00     0.180 C 
ATOM     21  C   UNL     1      28.793  30.719  16.320  1.00  0.00     0.202 C 
BRANCH  17  22
ATOM     22  C   UNL     1      29.581  30.960  20.489  1.00  0.00     0.191 C 
BRANCH  22  23
ATOM     23  O   UNL     1      30.339  30.050  21.203  1.00  0.00    -0.394 OA
ATOM     24  H   UNL     1      30.936  30.602  21.793  1.00  0.00     0.210 HD
ENDBRANCH  22  23
ENDBRANCH  17  22
BRANCH  19  25
ATOM     25  O   UNL     1      26.955  31.493  17.578  1.00  0.00    -0.350 OA
BRANCH  25  26
ATOM     26  C   UNL     1      26.659  32.218  16.476  1.00  0.00     0.169 C 
BRANCH  26  27
ATOM     27  C   UNL     1      25.237  32.114  16.028  1.00  0.00     0.119 C 
BRANCH  27  28
ATOM     28  N   UNL     1      25.005  32.375  14.639  1.00  0.00    -0.092 NA
ATOM     29  N   UNL     1      24.469  31.590  13.882  1.00  0.00     0.001 N 
ATOM     30  N   UNL     1      24.262  30.688  13.040  1.00  0.00    -0.003 NA
ENDBRANCH  27  28
ENDBRANCH  26  27
ENDBRANCH  25  26
ENDBRANCH  19  25
BRANCH  20  31
ATOM     31  O   UNL     1      30.732  32.021  15.854  1.00  0.00    -0.387 OA
ATOM     32  H   UNL     1      30.673  32.977  16.114  1.00  0.00     0.211 HD
ENDBRANCH  20  31
BRANCH  21  33
ATOM     33  O   UNL     1      28.967  29.585  15.506  1.00  0.00    -0.385 OA
ATOM     34  H   UNL     1      29.884  29.218  15.586  1.00  0.00     0.211 HD
ENDBRANCH  21  33
ENDBRANCH  15  16
ENDBRANCH  10  15
BRANCH  12  35
ATOM     35  O   UNL     1      32.778  33.952  20.284  1.00  0.00    -0.385 OA
ATOM     36  H   UNL     1      32.305  33.119  20.590  1.00  0.00     0.211 HD
ENDBRANCH  12  35
BRANCH  13  37
ATOM     37  O   UNL     1      32.596  36.898  19.428  1.00  0.00    -0.387 OA
ATOM     38  H   UNL     1      33.111  36.681  18.593  1.00  0.00     0.211 HD
ENDBRANCH  13  37
BRANCH  14  39
ATOM     39  O   UNL     1      30.267  37.622  18.691  1.00  0.00    -0.387 OA
ATOM     40  H   UNL     1      30.493  38.085  19.512  1.00  0.00     0.211 HD
ENDBRANCH  14  39
ENDBRANCH   8   9
ENDBRANCH   7   8
ENDBRANCH   1   7
BRANCH   1  41
ATOM     41  C   UNL     1      30.982  34.829  13.441  1.00  0.00     0.364 C 
ATOM     42  O   UNL     1      30.111  33.955  13.767  1.00  0.00    -0.246 OA
BRANCH  41  43
ATOM     43  O   UNL     1      31.776  34.512  12.383  1.00  0.00    -0.477 OA
ATOM     44  H   UNL     1      32.533  35.107  12.046  1.00  0.00     0.296 HD
ENDBRANCH  41  43
ENDBRANCH   1  41
BRANCH   3  45
ATOM     45  O   UNL     1      31.430  38.910  11.919  1.00  0.00    -0.391 OA
ATOM     46  H   UNL     1      31.126  39.733  12.409  1.00  0.00     0.211 HD
ENDBRANCH   3  45
BRANCH   5  47
ATOM     47  C   UNL     1      27.480  36.942  13.935  1.00  0.00     0.176 C 
BRANCH  47  48
ATOM     48  O   UNL     1      26.860  36.551  12.692  1.00  0.00    -0.388 OA
ATOM     49  H   UNL     1      26.466  37.330  12.250  1.00  0.00     0.211 HD
ENDBRANCH  47  48
BRANCH  47  50
ATOM     50  C   UNL     1      26.980  35.931  14.937  1.00  0.00     0.165 C 
BRANCH  50  51
ATOM     51  O   UNL     1      26.989  34.688  14.243  1.00  0.00    -0.388 OA
ATOM     52  H   UNL     1      27.040  33.929  14.849  1.00  0.00     0.211 HD
ENDBRANCH  50  51
BRANCH  50  53
ATOM     53  C   UNL     1      25.618  36.167  15.472  1.00  0.00     0.154 C 
BRANCH  53  54
ATOM     54  N   UNL     1      24.530  35.511  14.837  1.00  0.00    -0.319 N 
ATOM     55  C   UNL     1      23.475  36.107  14.106  1.00  0.00     0.407 C 
ATOM     56  H   UNL     1      24.471  34.444  14.896  1.00  0.00     0.167 HD
ATOM     57  O   UNL     1      23.418  37.328  13.938  1.00  0.00    -0.225 OA
BRANCH  55  58
ATOM     58  O   UNL     1      22.474  35.311  13.558  1.00  0.00    -0.443 OA
BRANCH  58  59
ATOM     59  C   UNL     1      22.583  34.540  12.400  1.00  0.00     0.294 C 
BRANCH  59  60
ATOM     60  C   UNL     1      23.769  34.820  11.578  1.00  0.00     0.121 A 
ATOM     61  C   UNL     1      23.828  35.651  10.482  1.00  0.00     0.144 A 
ATOM     62  N   UNL     1      25.001  34.298  11.751  1.00  0.00    -0.131 NA
ATOM     63  N   UNL     1      25.089  35.591  10.050  1.00  0.00    -0.220 N 
ATOM     64  N   UNL     1      25.778  34.774  10.825  1.00  0.00    -0.062 NA
BRANCH  63  65
ATOM     65  C   UNL     1      25.596  36.303   8.921  1.00  0.00     0.067 A 
ATOM     66  C   UNL     1      25.104  37.544   8.584  1.00  0.00     0.030 A 
ATOM     67  C   UNL     1      26.591  35.754   8.144  1.00  0.00     0.040 A 
ATOM     68  C   UNL     1      25.591  38.225   7.496  1.00  0.00     0.030 A 
ATOM     69  C   UNL     1      27.074  36.459   7.044  1.00  0.00     0.022 A 
ATOM     70  C   UNL     1      26.588  37.707   6.693  1.00  0.00     0.065 A 
ATOM     71  C   UNL     1      28.048  36.128   6.131  1.00  0.00     0.143 A 
ATOM     72  N   UNL     1      27.256  38.112   5.598  1.00  0.00    -0.278 N 
ATOM     73  N   UNL     1      28.112  37.168   5.283  1.00  0.00    -0.183 NA
ATOM     74  H   UNL     1      27.095  39.026   5.109  1.00  0.00     0.190 HD
ENDBRANCH  63  65
ENDBRANCH  59  60
ENDBRANCH  58  59
ENDBRANCH  55  58
ENDBRANCH  53  54
ENDBRANCH  50  53
ENDBRANCH  47  50
ENDBRANCH   5  47
BRANCH   4  75
ATOM     75  N   UNL     1      28.622  38.389  11.788  1.00  0.00    -0.348 N 
ATOM     76  C   UNL     1      28.119  39.674  11.573  1.00  0.00     0.217 C 
ATOM     77  H   UNL     1      28.418  37.650  11.096  1.00  0.00     0.163 HD
ATOM     78  C   UNL     1      27.287  40.021  10.374  1.00  0.00     0.114 C 
ATOM     79  O   UNL     1      28.371  40.595  12.418  1.00  0.00    -0.275 OA
ENDBRANCH   4  75
TORSDOF 30
BEGIN_RES LYS A 131
REMARK  4 active torsions:
REMARK  status: ('A' for Active; 'I' for Inactive)
REMARK    1  A    between atoms: CA   and  CB  
REMARK    2  A    between atoms: CB   and  CG  
REMARK    3  A    between atoms: CG   and  CD  
REMARK    4  A    between atoms: CD   and  CE  
ROOT
ATOM      1  CA  LYS A 131      29.867  25.555  16.977  1.00 20.52     0.186 C 
ENDROOT
BRANCH   1   2
ATOM      2  CB  LYS A 131      28.345  25.722  17.026  1.00 20.94     0.034 C 
BRANCH   2   3
ATOM      3  CG  LYS A 131      27.603  24.395  16.989  1.00 22.96     0.005 C 
BRANCH   3   4
ATOM      4  CD  LYS A 131      26.124  24.566  17.197  1.00 24.33     0.041 C 
BRANCH   4   5
ATOM      5  CE  LYS A 131      25.749  24.093  18.597  1.00 26.91     0.338 C 
ATOM      6  NZ  LYS A 131      25.795  25.222  19.556  1.00 27.40     0.618 N 
ENDBRANCH   4   5
ENDBRANCH   3   4
ENDBRANCH   2   3
ENDBRANCH   1   2
END_RES LYS A 131
BEGIN_RES LYS A 135
REMARK  4 active torsions:
REMARK  status: ('A' for Active; 'I' for Inactive)
REMARK    5  A    between atoms: CA   and  CB  
REMARK    6  A    between atoms: CB   and  CG  
REMARK    7  A    between atoms: CG   and  CD  
REMARK    8  A    between atoms: CD   and  CE  
ROOT
ATOM      7  CA  LYS A 135      33.193  34.663   9.290  1.00 25.02     0.186 C 
ENDROOT
BRANCH   7   8
ATOM      8  CB  LYS A 135      32.060  35.360  10.034  1.00 26.63     0.034 C 
BRANCH   8   9
ATOM      9  CG  LYS A 135      30.865  35.661   9.167  1.00 29.45     0.005 C 
BRANCH   9  10
ATOM     10  CD  LYS A 135      30.345  34.392   8.510  1.00 32.00     0.041 C 
BRANCH  10  11
ATOM     11  CE  LYS A 135      29.208  33.800   9.322  1.00 34.25     0.338 C 
ATOM     12  NZ  LYS A 135      28.922  34.627  10.527  1.00 35.99     0.618 N 
ENDBRANCH  10  11
ENDBRANCH   9  10
ENDBRANCH   8   9
ENDBRANCH   7   8
END_RES LYS A 135
