REMARK VINA RESULT:    -4.939      1.629      2.166
REMARK INTER + INTRA:         -24.567
REMARK INTER:                 -15.938
REMARK INTRA:                  -8.629
REMARK UNBOUND:               -12.409
REMARK SMILES CC(=O)N[C@@H]1[C@@H](O)C[C@](OC[C@H]2O[C@@H](O[C@H]3[C@H](O)[C@@H](O)[C@H](OCCN=[N+]=[N-])O[C@@H]3CO)[C@H](O)[C@@H](O)[C@H]2O)(C(=O)O)O[C@H]1C(O)[C@H](O)CNC(=O)OCc1cn(C2c3ccccc3-c3ccccc32)nn1
REMARK SMILES IDX 9 1 8 2 6 3 5 4 42 5 41 6 10 7 11 8 12 9 14 10 13 11 32 12
REMARK SMILES IDX 34 13 36 14 15 15 16 16 29 17 28 18 21 19 17 20 19 21 30 22
REMARK SMILES IDX 31 23 22 25 23 26 24 27 25 28 26 29 27 30 18 31 20 33 33 35
REMARK SMILES IDX 35 37 37 39 38 41 39 42 40 43 7 45 43 47 44 48 45 50 46 51
REMARK SMILES IDX 47 53 48 54 49 55 50 57 51 58 52 59 53 60 54 61 70 62 55 63
REMARK SMILES IDX 69 64 56 65 57 66 68 67 58 68 62 69 63 70 67 71 59 72 61 73
REMARK SMILES IDX 64 74 66 75 60 76 65 77 4 78 2 79 1 81 3 82
REMARK H PARENT 31 24 18 32 20 34 33 36 35 38 37 40 40 44 7 46 44 49 46 52
REMARK H PARENT 48 56 4 80
REMARK Flexibility Score: inf
ROOT
ATOM      1  C   UNL     1      23.959  36.401   9.441  1.00  0.00     0.272 C 
ATOM      2  C   UNL     1      22.617  36.404   8.830  1.00  0.00     0.113 C 
ATOM      3  C   UNL     1      22.436  37.478   7.825  1.00  0.00     0.145 C 
ATOM      4  C   UNL     1      23.403  38.622   7.970  1.00  0.00     0.142 C 
ATOM      5  C   UNL     1      23.802  38.738   9.400  1.00  0.00     0.178 C 
ATOM      6  O   UNL     1      24.335  37.637   9.990  1.00  0.00    -0.332 OA
ENDROOT
BRANCH   1   7
ATOM      7  O   UNL     1      24.949  35.997   8.584  1.00  0.00    -0.338 OA
BRANCH   7   8
ATOM      8  C   UNL     1      26.198  35.831   9.115  1.00  0.00     0.199 C 
BRANCH   8   9
ATOM      9  C   UNL     1      26.997  34.867   8.267  1.00  0.00     0.179 C 
ATOM     10  C   UNL     1      28.609  36.477   7.711  1.00  0.00     0.282 C 
ATOM     11  O   UNL     1      27.653  35.592   7.298  1.00  0.00    -0.341 OA
ATOM     12  C   UNL     1      29.498  35.876   8.731  1.00  0.00     0.202 C 
ATOM     13  C   UNL     1      29.379  34.352   8.538  1.00  0.00     0.179 C 
ATOM     14  C   UNL     1      27.964  34.047   9.076  1.00  0.00     0.177 C 
BRANCH  10  15
ATOM     15  O   UNL     1      28.088  37.717   7.965  1.00  0.00    -0.341 OA
BRANCH  15  16
ATOM     16  C   UNL     1      28.588  38.761   7.234  1.00  0.00     0.184 C 
ATOM     17  C   UNL     1      28.811  38.365   5.823  1.00  0.00     0.178 C 
ATOM     18  O   UNL     1      29.974  38.896   5.274  1.00  0.00    -0.341 OA
ATOM     19  C   UNL     1      30.296  40.126   5.747  1.00  0.00     0.281 C 
ATOM     20  C   UNL     1      29.882  39.144   7.948  1.00  0.00     0.180 C 
ATOM     21  C   UNL     1      30.827  39.957   7.166  1.00  0.00     0.202 C 
BRANCH  17  22
ATOM     22  C   UNL     1      27.666  38.786   4.926  1.00  0.00     0.191 C 
BRANCH  22  23
ATOM     23  O   UNL     1      26.589  39.280   5.700  1.00  0.00    -0.394 OA
ATOM     24  H   UNL     1      25.975  38.522   5.941  1.00  0.00     0.210 HD
ENDBRANCH  22  23
ENDBRANCH  17  22
BRANCH  19  25
ATOM     25  O   UNL     1      29.273  41.053   5.817  1.00  0.00    -0.350 OA
BRANCH  25  26
ATOM     26  C   UNL     1      29.677  42.319   6.133  1.00  0.00     0.169 C 
BRANCH  26  27
ATOM     27  C   UNL     1      28.818  43.079   7.083  1.00  0.00     0.119 C 
BRANCH  27  28
ATOM     28  N   UNL     1      28.522  44.425   6.637  1.00  0.00    -0.092 NA
ATOM     29  N   UNL     1      29.222  45.328   7.114  1.00  0.00     0.001 N 
ATOM     30  N   UNL     1      29.807  46.291   7.622  1.00  0.00    -0.003 NA
ENDBRANCH  27  28
ENDBRANCH  26  27
ENDBRANCH  25  26
ENDBRANCH  19  25
BRANCH  20  31
ATOM     31  O   UNL     1      29.557  39.867   9.127  1.00  0.00    -0.387 OA
ATOM     32  H   UNL     1      29.352  39.241   9.866  1.00  0.00     0.211 HD
ENDBRANCH  20  31
BRANCH  21  33
ATOM     33  O   UNL     1      32.061  39.302   7.056  1.00  0.00    -0.385 OA
ATOM     34  H   UNL     1      32.790  39.909   6.766  1.00  0.00     0.211 HD
ENDBRANCH  21  33
ENDBRANCH  15  16
ENDBRANCH  10  15
BRANCH  12  35
ATOM     35  O   UNL     1      30.848  36.158   8.530  1.00  0.00    -0.385 OA
ATOM     36  H   UNL     1      31.006  36.260   7.562  1.00  0.00     0.211 HD
ENDBRANCH  12  35
BRANCH  13  37
ATOM     37  O   UNL     1      30.266  33.669   9.335  1.00  0.00    -0.387 OA
ATOM     38  H   UNL     1      31.167  33.741   8.937  1.00  0.00     0.211 HD
ENDBRANCH  13  37
BRANCH  14  39
ATOM     39  O   UNL     1      27.961  34.493  10.384  1.00  0.00    -0.387 OA
ATOM     40  H   UNL     1      27.179  34.174  10.899  1.00  0.00     0.211 HD
ENDBRANCH  14  39
ENDBRANCH   8   9
ENDBRANCH   7   8
ENDBRANCH   1   7
BRANCH   1  41
ATOM     41  C   UNL     1      23.968  35.500  10.675  1.00  0.00     0.364 C 
ATOM     42  O   UNL     1      22.950  34.843  10.911  1.00  0.00    -0.246 OA
BRANCH  41  43
ATOM     43  O   UNL     1      25.064  35.416  11.498  1.00  0.00    -0.477 OA
ATOM     44  H   UNL     1      25.598  34.543  11.592  1.00  0.00     0.296 HD
ENDBRANCH  41  43
ENDBRANCH   1  41
BRANCH   3  45
ATOM     45  O   UNL     1      22.441  37.050   6.498  1.00  0.00    -0.391 OA
ATOM     46  H   UNL     1      21.966  36.217   6.359  1.00  0.00     0.211 HD
ENDBRANCH   3  45
BRANCH   5  47
ATOM     47  C   UNL     1      24.794  39.891   9.535  1.00  0.00     0.176 C 
BRANCH  47  48
ATOM     48  O   UNL     1      25.838  39.699   8.667  1.00  0.00    -0.388 OA
ATOM     49  H   UNL     1      26.717  39.925   9.097  1.00  0.00     0.211 HD
ENDBRANCH  47  48
BRANCH  47  50
ATOM     50  C   UNL     1      25.247  39.955  10.962  1.00  0.00     0.165 C 
BRANCH  50  51
ATOM     51  O   UNL     1      24.939  41.218  11.497  1.00  0.00    -0.388 OA
ATOM     52  H   UNL     1      25.723  41.606  11.945  1.00  0.00     0.211 HD
ENDBRANCH  50  51
BRANCH  50  53
ATOM     53  C   UNL     1      26.780  39.897  10.942  1.00  0.00     0.154 C 
BRANCH  53  54
ATOM     54  N   UNL     1      27.171  38.529  11.092  1.00  0.00    -0.319 N 
ATOM     55  C   UNL     1      27.191  37.920  12.364  1.00  0.00     0.407 C 
ATOM     56  H   UNL     1      27.444  37.971  10.248  1.00  0.00     0.167 HD
ATOM     57  O   UNL     1      26.878  38.560  13.400  1.00  0.00    -0.225 OA
BRANCH  55  58
ATOM     58  O   UNL     1      27.550  36.598  12.535  1.00  0.00    -0.443 OA
BRANCH  58  59
ATOM     59  C   UNL     1      27.559  35.957  13.801  1.00  0.00     0.294 C 
BRANCH  59  60
ATOM     60  C   UNL     1      28.790  35.130  13.871  1.00  0.00     0.120 A 
ATOM     61  C   UNL     1      29.641  34.950  14.953  1.00  0.00     0.139 A 
ATOM     62  N   UNL     1      29.312  34.389  12.882  1.00  0.00    -0.132 NA
ATOM     63  N   UNL     1      30.635  34.120  14.595  1.00  0.00    -0.240 N 
ATOM     64  N   UNL     1      30.405  33.798  13.332  1.00  0.00    -0.066 NA
BRANCH  63  65
ATOM     65  C   UNL     1      31.744  33.666  15.436  1.00  0.00     0.170 C 
ATOM     66  C   UNL     1      31.184  32.913  16.562  1.00  0.00    -0.011 A 
ATOM     67  C   UNL     1      32.413  34.815  16.072  1.00  0.00    -0.011 A 
ATOM     68  C   UNL     1      30.448  31.737  16.619  1.00  0.00     0.007 A 
ATOM     69  C   UNL     1      31.472  33.528  17.751  1.00  0.00    -0.012 A 
ATOM     70  C   UNL     1      32.246  34.726  17.433  1.00  0.00    -0.012 A 
ATOM     71  C   UNL     1      33.127  35.884  15.563  1.00  0.00     0.007 A 
ATOM     72  C   UNL     1      30.032  31.223  17.826  1.00  0.00     0.000 A 
ATOM     73  C   UNL     1      31.052  33.009  18.967  1.00  0.00     0.009 A 
ATOM     74  C   UNL     1      32.776  35.674  18.278  1.00  0.00     0.009 A 
ATOM     75  C   UNL     1      33.665  36.843  16.390  1.00  0.00     0.000 A 
ATOM     76  C   UNL     1      30.323  31.845  19.031  1.00  0.00     0.001 A 
ATOM     77  C   UNL     1      33.488  36.738  17.754  1.00  0.00     0.001 A 
ENDBRANCH  63  65
ENDBRANCH  59  60
ENDBRANCH  58  59
ENDBRANCH  55  58
ENDBRANCH  53  54
ENDBRANCH  50  53
ENDBRANCH  47  50
ENDBRANCH   5  47
BRANCH   4  78
ATOM     78  N   UNL     1      22.640  39.846   7.657  1.00  0.00    -0.348 N 
ATOM     79  C   UNL     1      23.153  40.838   6.783  1.00  0.00     0.217 C 
ATOM     80  H   UNL     1      21.718  39.959   8.099  1.00  0.00     0.163 HD
ATOM     81  C   UNL     1      22.368  42.075   6.475  1.00  0.00     0.114 C 
ATOM     82  O   UNL     1      24.291  40.646   6.271  1.00  0.00    -0.275 OA
ENDBRANCH   4  78
TORSDOF 30
BEGIN_RES LYS A 131
REMARK  4 active torsions:
REMARK  status: ('A' for Active; 'I' for Inactive)
REMARK    1  A    between atoms: CA   and  CB  
REMARK    2  A    between atoms: CB   and  CG  
REMARK    3  A    between atoms: CG   and  CD  
REMARK    4  A    between atoms: CD   and  CE  
ROOT
ATOM      1  CA  LYS A 131      29.867  25.555  16.977  1.00 20.52     0.186 C 
ENDROOT
BRANCH   1   2
ATOM      2  CB  LYS A 131      28.345  25.722  17.026  1.00 20.94     0.034 C 
BRANCH   2   3
ATOM      3  CG  LYS A 131      27.601  24.400  16.908  1.00 22.96     0.005 C 
BRANCH   3   4
ATOM      4  CD  LYS A 131      26.468  24.298  17.890  1.00 24.33     0.041 C 
BRANCH   4   5
ATOM      5  CE  LYS A 131      25.681  23.018  17.628  1.00 26.91     0.338 C 
ATOM      6  NZ  LYS A 131      24.799  22.707  18.778  1.00 27.40     0.618 N 
ENDBRANCH   4   5
ENDBRANCH   3   4
ENDBRANCH   2   3
ENDBRANCH   1   2
END_RES LYS A 131
BEGIN_RES LYS A 135
REMARK  4 active torsions:
REMARK  status: ('A' for Active; 'I' for Inactive)
REMARK    5  A    between atoms: CA   and  CB  
REMARK    6  A    between atoms: CB   and  CG  
REMARK    7  A    between atoms: CG   and  CD  
REMARK    8  A    between atoms: CD   and  CE  
ROOT
ATOM      7  CA  LYS A 135      33.193  34.663   9.290  1.00 25.02     0.186 C 
ENDROOT
BRANCH   7   8
ATOM      8  CB  LYS A 135      32.060  35.360  10.034  1.00 26.63     0.034 C 
BRANCH   8   9
ATOM      9  CG  LYS A 135      32.407  35.726  11.454  1.00 29.45     0.005 C 
BRANCH   9  10
ATOM     10  CD  LYS A 135      32.278  37.226  11.668  1.00 32.00     0.041 C 
BRANCH  10  11
ATOM     11  CE  LYS A 135      30.839  37.599  11.973  1.00 34.25     0.338 C 
ATOM     12  NZ  LYS A 135      30.711  38.167  13.343  1.00 35.99     0.618 N 
ENDBRANCH  10  11
ENDBRANCH   9  10
ENDBRANCH   8   9
ENDBRANCH   7   8
END_RES LYS A 135
