REMARK VINA RESULT:    -5.234      3.831      7.910
REMARK INTER + INTRA:         -22.454
REMARK INTER:                  -9.198
REMARK INTRA:                 -13.256
REMARK UNBOUND:                -8.960
REMARK SMILES CC(=O)N[C@@H]1[C@@H](O)C[C@](OC[C@H]2O[C@@H](O[C@H]3[C@H](O)[C@@H](O)[C@H](OCCN=[N+]=[N-])O[C@@H]3CO)[C@H](O)[C@@H](O)[C@H]2O)(C(=O)O)O[C@H]1C(O)[C@H](O)CNC(=O)OCc1cn(Cc2cccc(C#N)c2)nn1
REMARK SMILES IDX 9 1 8 2 6 3 5 4 42 5 41 6 10 7 11 8 12 9 14 10 13 11 32 12
REMARK SMILES IDX 34 13 36 14 15 15 16 16 29 17 28 18 21 19 17 20 19 21 30 22
REMARK SMILES IDX 31 23 22 25 23 26 24 27 25 28 26 29 27 30 18 31 20 33 33 35
REMARK SMILES IDX 35 37 37 39 38 41 39 42 40 43 7 45 43 47 44 48 45 50 46 51
REMARK SMILES IDX 47 53 48 54 49 55 50 57 51 58 52 59 53 60 54 61 66 62 55 63
REMARK SMILES IDX 65 64 56 65 57 66 58 67 64 68 59 69 61 70 60 71 62 72 63 73
REMARK SMILES IDX 4 74 2 75 1 77 3 78
REMARK H PARENT 31 24 18 32 20 34 33 36 35 38 37 40 40 44 7 46 44 49 46 52
REMARK H PARENT 48 56 4 76
REMARK Flexibility Score: inf
ROOT
ATOM      1  C   UNL     1      26.694  34.215  17.722  1.00  0.00     0.272 C 
ATOM      2  C   UNL     1      26.608  34.323  16.219  1.00  0.00     0.113 C 
ATOM      3  C   UNL     1      27.183  33.225  15.427  1.00  0.00     0.145 C 
ATOM      4  C   UNL     1      28.384  32.580  16.127  1.00  0.00     0.142 C 
ATOM      5  C   UNL     1      28.145  32.304  17.543  1.00  0.00     0.178 C 
ATOM      6  O   UNL     1      27.287  33.103  18.226  1.00  0.00    -0.332 OA
ENDROOT
BRANCH   1   7
ATOM      7  O   UNL     1      25.475  34.300  18.223  1.00  0.00    -0.338 OA
BRANCH   7   8
ATOM      8  C   UNL     1      24.324  34.774  18.170  1.00  0.00     0.199 C 
BRANCH   8   9
ATOM      9  C   UNL     1      23.094  34.160  17.564  1.00  0.00     0.179 C 
ATOM     10  C   UNL     1      22.032  33.895  15.593  1.00  0.00     0.282 C 
ATOM     11  O   UNL     1      23.313  34.063  16.137  1.00  0.00    -0.341 OA
ATOM     12  C   UNL     1      21.467  32.554  15.917  1.00  0.00     0.202 C 
ATOM     13  C   UNL     1      21.724  32.147  17.355  1.00  0.00     0.179 C 
ATOM     14  C   UNL     1      23.007  32.661  17.911  1.00  0.00     0.177 C 
BRANCH  10  15
ATOM     15  O   UNL     1      22.102  34.060  14.212  1.00  0.00    -0.341 OA
BRANCH  15  16
ATOM     16  C   UNL     1      23.150  34.854  13.824  1.00  0.00     0.184 C 
ATOM     17  C   UNL     1      22.721  36.026  13.019  1.00  0.00     0.178 C 
ATOM     18  O   UNL     1      23.764  36.791  12.549  1.00  0.00    -0.341 OA
ATOM     19  C   UNL     1      24.763  36.109  11.892  1.00  0.00     0.281 C 
ATOM     20  C   UNL     1      23.967  33.978  12.820  1.00  0.00     0.180 C 
ATOM     21  C   UNL     1      25.189  34.823  12.523  1.00  0.00     0.202 C 
BRANCH  17  22
ATOM     22  C   UNL     1      21.844  36.944  13.840  1.00  0.00     0.191 C 
BRANCH  22  23
ATOM     23  O   UNL     1      20.509  36.538  13.739  1.00  0.00    -0.394 OA
ATOM     24  H   UNL     1      19.883  37.281  13.718  1.00  0.00     0.210 HD
ENDBRANCH  22  23
ENDBRANCH  17  22
BRANCH  19  25
ATOM     25  O   UNL     1      25.898  36.948  11.912  1.00  0.00    -0.350 OA
BRANCH  25  26
ATOM     26  C   UNL     1      26.192  37.304  13.202  1.00  0.00     0.169 C 
BRANCH  26  27
ATOM     27  C   UNL     1      27.302  38.314  13.289  1.00  0.00     0.119 C 
BRANCH  27  28
ATOM     28  N   UNL     1      28.615  37.727  13.161  1.00  0.00    -0.092 NA
ATOM     29  N   UNL     1      28.989  36.918  14.020  1.00  0.00     0.001 N 
ATOM     30  N   UNL     1      29.519  36.160  14.865  1.00  0.00    -0.003 NA
ENDBRANCH  27  28
ENDBRANCH  26  27
ENDBRANCH  25  26
ENDBRANCH  19  25
BRANCH  20  31
ATOM     31  O   UNL     1      24.246  32.790  13.440  1.00  0.00    -0.387 OA
ATOM     32  H   UNL     1      24.182  32.014  12.812  1.00  0.00     0.211 HD
ENDBRANCH  20  31
BRANCH  21  33
ATOM     33  O   UNL     1      25.972  34.116  11.614  1.00  0.00    -0.385 OA
ATOM     34  H   UNL     1      25.558  34.254  10.712  1.00  0.00     0.211 HD
ENDBRANCH  21  33
ENDBRANCH  15  16
ENDBRANCH  10  15
BRANCH  12  35
ATOM     35  O   UNL     1      20.059  32.643  15.816  1.00  0.00    -0.385 OA
ATOM     36  H   UNL     1      19.797  33.411  16.381  1.00  0.00     0.211 HD
ENDBRANCH  12  35
BRANCH  13  37
ATOM     37  O   UNL     1      21.805  30.746  17.346  1.00  0.00    -0.387 OA
ATOM     38  H   UNL     1      22.107  30.382  16.491  1.00  0.00     0.211 HD
ENDBRANCH  13  37
BRANCH  14  39
ATOM     39  O   UNL     1      24.043  32.014  17.218  1.00  0.00    -0.387 OA
ATOM     40  H   UNL     1      23.814  31.844  16.283  1.00  0.00     0.211 HD
ENDBRANCH  14  39
ENDBRANCH   8   9
ENDBRANCH   7   8
ENDBRANCH   1   7
BRANCH   1  41
ATOM     41  C   UNL     1      27.570  35.359  18.164  1.00  0.00     0.364 C 
ATOM     42  O   UNL     1      28.043  35.397  19.350  1.00  0.00    -0.246 OA
BRANCH  41  43
ATOM     43  O   UNL     1      27.890  36.390  17.323  1.00  0.00    -0.477 OA
ATOM     44  H   UNL     1      27.835  37.346  17.711  1.00  0.00     0.296 HD
ENDBRANCH  41  43
ENDBRANCH   1  41
BRANCH   3  45
ATOM     45  O   UNL     1      26.225  32.249  15.194  1.00  0.00    -0.391 OA
ATOM     46  H   UNL     1      26.007  31.715  15.994  1.00  0.00     0.211 HD
ENDBRANCH   3  45
BRANCH   5  47
ATOM     47  C   UNL     1      27.629  30.913  17.851  1.00  0.00     0.176 C 
BRANCH  47  48
ATOM     48  O   UNL     1      28.496  30.051  17.100  1.00  0.00    -0.388 OA
ATOM     49  H   UNL     1      28.088  29.945  16.210  1.00  0.00     0.211 HD
ENDBRANCH  47  48
BRANCH  47  50
ATOM     50  C   UNL     1      27.702  30.417  19.234  1.00  0.00     0.165 C 
BRANCH  50  51
ATOM     51  O   UNL     1      28.141  29.035  19.043  1.00  0.00    -0.388 OA
ATOM     52  H   UNL     1      28.513  28.978  18.112  1.00  0.00     0.211 HD
ENDBRANCH  50  51
BRANCH  50  53
ATOM     53  C   UNL     1      26.443  30.265  20.005  1.00  0.00     0.154 C 
BRANCH  53  54
ATOM     54  N   UNL     1      25.238  30.102  19.258  1.00  0.00    -0.319 N 
ATOM     55  C   UNL     1      24.662  28.796  19.110  1.00  0.00     0.407 C 
ATOM     56  H   UNL     1      24.738  30.879  18.811  1.00  0.00     0.167 HD
ATOM     57  O   UNL     1      25.262  27.843  19.660  1.00  0.00    -0.225 OA
BRANCH  55  58
ATOM     58  O   UNL     1      23.513  28.557  18.414  1.00  0.00    -0.443 OA
BRANCH  58  59
ATOM     59  C   UNL     1      23.488  27.688  17.263  1.00  0.00     0.294 C 
BRANCH  59  60
ATOM     60  C   UNL     1      23.714  28.505  16.037  1.00  0.00     0.120 A 
ATOM     61  C   UNL     1      23.191  28.280  14.784  1.00  0.00     0.138 A 
ATOM     62  N   UNL     1      24.470  29.602  15.925  1.00  0.00    -0.132 NA
ATOM     63  N   UNL     1      23.637  29.246  13.931  1.00  0.00    -0.248 N 
ATOM     64  N   UNL     1      24.413  30.034  14.658  1.00  0.00    -0.067 NA
BRANCH  63  65
ATOM     65  C   UNL     1      23.324  29.355  12.535  1.00  0.00     0.181 C 
BRANCH  65  66
ATOM     66  C   UNL     1      21.916  29.785  12.380  1.00  0.00    -0.025 A 
ATOM     67  C   UNL     1      21.500  31.078  12.563  1.00  0.00     0.006 A 
ATOM     68  C   UNL     1      20.954  28.842  12.035  1.00  0.00     0.025 A 
ATOM     69  C   UNL     1      20.194  31.466  12.422  1.00  0.00     0.002 A 
ATOM     70  C   UNL     1      19.644  29.231  11.894  1.00  0.00     0.052 A 
ATOM     71  C   UNL     1      19.214  30.545  12.079  1.00  0.00     0.019 A 
BRANCH  70  72
ATOM     72  C   UNL     1      18.656  28.250  11.532  1.00  0.00     0.099 C 
ATOM     73  N   UNL     1      17.854  27.456  11.223  1.00  0.00    -0.192 NA
ENDBRANCH  70  72
ENDBRANCH  65  66
ENDBRANCH  63  65
ENDBRANCH  59  60
ENDBRANCH  58  59
ENDBRANCH  55  58
ENDBRANCH  53  54
ENDBRANCH  50  53
ENDBRANCH  47  50
ENDBRANCH   5  47
BRANCH   4  74
ATOM     74  N   UNL     1      29.577  33.366  15.814  1.00  0.00    -0.348 N 
ATOM     75  C   UNL     1      30.820  32.712  15.687  1.00  0.00     0.217 C 
ATOM     76  H   UNL     1      29.581  34.394  15.671  1.00  0.00     0.163 HD
ATOM     77  C   UNL     1      32.086  33.432  15.372  1.00  0.00     0.114 C 
ATOM     78  O   UNL     1      30.866  31.482  15.847  1.00  0.00    -0.275 OA
ENDBRANCH   4  74
TORSDOF 32
BEGIN_RES LYS A 131
REMARK  4 active torsions:
REMARK  status: ('A' for Active; 'I' for Inactive)
REMARK    1  A    between atoms: CA   and  CB  
REMARK    2  A    between atoms: CB   and  CG  
REMARK    3  A    between atoms: CG   and  CD  
REMARK    4  A    between atoms: CD   and  CE  
ROOT
ATOM      1  CA  LYS A 131      29.867  25.555  16.977  1.00 20.52     0.186 C 
ENDROOT
BRANCH   1   2
ATOM      2  CB  LYS A 131      28.345  25.722  17.026  1.00 20.94     0.034 C 
BRANCH   2   3
ATOM      3  CG  LYS A 131      27.602  24.398  16.933  1.00 22.96     0.005 C 
BRANCH   3   4
ATOM      4  CD  LYS A 131      26.149  24.537  17.294  1.00 24.33     0.041 C 
BRANCH   4   5
ATOM      5  CE  LYS A 131      25.981  24.371  18.801  1.00 26.91     0.338 C 
ATOM      6  NZ  LYS A 131      25.338  23.073  19.111  1.00 27.40     0.618 N 
ENDBRANCH   4   5
ENDBRANCH   3   4
ENDBRANCH   2   3
ENDBRANCH   1   2
END_RES LYS A 131
BEGIN_RES LYS A 135
REMARK  4 active torsions:
REMARK  status: ('A' for Active; 'I' for Inactive)
REMARK    5  A    between atoms: CA   and  CB  
REMARK    6  A    between atoms: CB   and  CG  
REMARK    7  A    between atoms: CG   and  CD  
REMARK    8  A    between atoms: CD   and  CE  
ROOT
ATOM      7  CA  LYS A 135      33.193  34.663   9.290  1.00 25.02     0.186 C 
ENDROOT
BRANCH   7   8
ATOM      8  CB  LYS A 135      32.060  35.360  10.034  1.00 26.63     0.034 C 
BRANCH   8   9
ATOM      9  CG  LYS A 135      30.774  34.575  10.045  1.00 29.45     0.005 C 
BRANCH   9  10
ATOM     10  CD  LYS A 135      30.395  34.147   8.635  1.00 32.00     0.041 C 
BRANCH  10  11
ATOM     11  CE  LYS A 135      28.954  34.515   8.336  1.00 34.25     0.338 C 
ATOM     12  NZ  LYS A 135      28.870  35.458   7.187  1.00 35.99     0.618 N 
ENDBRANCH  10  11
ENDBRANCH   9  10
ENDBRANCH   8   9
ENDBRANCH   7   8
END_RES LYS A 135
