REMARK VINA RESULT:    -4.546      5.861      9.580
REMARK INTER + INTRA:         -21.819
REMARK INTER:                  -9.629
REMARK INTRA:                 -12.190
REMARK UNBOUND:               -10.230
REMARK SMILES CC(=O)N[C@@H]1[C@@H](O)C[C@](OC[C@H]2O[C@@H](O[C@H]3[C@H](O)[C@@H](O)[C@H](OCCN=[N+]=[N-])O[C@@H]3CO)[C@H](O)[C@@H](O)[C@H]2O)(C(=O)O)O[C@H]1C(O)[C@H](O)CNC(=O)OCc1cn(C(C)(C)CO)nn1
REMARK SMILES IDX 9 1 8 2 6 3 5 4 42 5 41 6 10 7 11 8 12 9 14 10 13 11 32 12
REMARK SMILES IDX 34 13 36 14 15 15 16 16 29 17 28 18 21 19 17 20 19 21 30 22
REMARK SMILES IDX 31 23 22 25 23 26 24 27 25 28 26 29 27 30 18 31 20 33 33 35
REMARK SMILES IDX 35 37 37 39 38 41 39 42 40 43 7 45 43 47 44 48 45 50 46 51
REMARK SMILES IDX 47 53 48 54 49 55 50 57 51 58 52 59 53 60 54 61 62 62 55 63
REMARK SMILES IDX 61 64 56 65 57 66 58 67 59 68 60 69 4 71 2 72 1 74 3 75
REMARK H PARENT 31 24 18 32 20 34 33 36 35 38 37 40 40 44 7 46 44 49 46 52
REMARK H PARENT 48 56 60 70 4 73
REMARK Flexibility Score: inf
ROOT
ATOM      1  C   UNL     1      24.818  40.239   7.780  1.00  0.00     0.272 C 
ATOM      2  C   UNL     1      24.250  41.266   6.836  1.00  0.00     0.113 C 
ATOM      3  C   UNL     1      25.205  41.400   5.675  1.00  0.00     0.145 C 
ATOM      4  C   UNL     1      26.445  42.118   6.256  1.00  0.00     0.142 C 
ATOM      5  C   UNL     1      26.891  41.313   7.439  1.00  0.00     0.178 C 
ATOM      6  O   UNL     1      26.237  40.100   7.541  1.00  0.00    -0.332 OA
ENDROOT
BRANCH   1   7
ATOM      7  O   UNL     1      24.366  38.977   7.567  1.00  0.00    -0.338 OA
BRANCH   7   8
ATOM      8  C   UNL     1      23.089  38.635   7.561  1.00  0.00     0.199 C 
BRANCH   8   9
ATOM      9  C   UNL     1      22.490  37.548   8.356  1.00  0.00     0.179 C 
ATOM     10  C   UNL     1      23.100  35.625   9.474  1.00  0.00     0.282 C 
ATOM     11  O   UNL     1      23.556  36.822   8.987  1.00  0.00    -0.341 OA
ATOM     12  C   UNL     1      21.635  35.515   9.701  1.00  0.00     0.202 C 
ATOM     13  C   UNL     1      20.970  36.814  10.098  1.00  0.00     0.179 C 
ATOM     14  C   UNL     1      21.680  38.014   9.560  1.00  0.00     0.177 C 
BRANCH  10  15
ATOM     15  O   UNL     1      23.865  35.307  10.600  1.00  0.00    -0.341 OA
BRANCH  15  16
ATOM     16  C   UNL     1      25.002  36.068  10.734  1.00  0.00     0.184 C 
ATOM     17  C   UNL     1      26.258  35.371  10.261  1.00  0.00     0.178 C 
ATOM     18  O   UNL     1      27.317  35.489  11.137  1.00  0.00    -0.341 OA
ATOM     19  C   UNL     1      27.130  34.949  12.381  1.00  0.00     0.281 C 
ATOM     20  C   UNL     1      25.154  36.334  12.243  1.00  0.00     0.180 C 
ATOM     21  C   UNL     1      25.678  35.022  12.797  1.00  0.00     0.202 C 
BRANCH  17  22
ATOM     22  C   UNL     1      26.673  36.085   8.981  1.00  0.00     0.191 C 
BRANCH  22  23
ATOM     23  O   UNL     1      26.403  37.449   9.099  1.00  0.00    -0.394 OA
ATOM     24  H   UNL     1      25.940  37.826   8.328  1.00  0.00     0.210 HD
ENDBRANCH  22  23
ENDBRANCH  17  22
BRANCH  19  25
ATOM     25  O   UNL     1      27.966  35.619  13.257  1.00  0.00    -0.350 OA
BRANCH  25  26
ATOM     26  C   UNL     1      29.198  35.934  12.776  1.00  0.00     0.169 C 
BRANCH  26  27
ATOM     27  C   UNL     1      30.323  35.077  13.337  1.00  0.00     0.119 C 
BRANCH  27  28
ATOM     28  N   UNL     1      31.620  35.623  12.984  1.00  0.00    -0.092 NA
ATOM     29  N   UNL     1      32.584  35.299  13.692  1.00  0.00     0.001 N 
ATOM     30  N   UNL     1      33.645  34.769  14.091  1.00  0.00    -0.003 NA
ENDBRANCH  27  28
ENDBRANCH  26  27
ENDBRANCH  25  26
ENDBRANCH  19  25
BRANCH  20  31
ATOM     31  O   UNL     1      26.098  37.360  12.342  1.00  0.00    -0.387 OA
ATOM     32  H   UNL     1      26.952  36.967  12.019  1.00  0.00     0.211 HD
ENDBRANCH  20  31
BRANCH  21  33
ATOM     33  O   UNL     1      25.004  33.991  12.120  1.00  0.00    -0.385 OA
ATOM     34  H   UNL     1      24.383  34.380  11.435  1.00  0.00     0.211 HD
ENDBRANCH  21  33
ENDBRANCH  15  16
ENDBRANCH  10  15
BRANCH  12  35
ATOM     35  O   UNL     1      20.936  34.882   8.671  1.00  0.00    -0.385 OA
ATOM     36  H   UNL     1      20.351  35.557   8.272  1.00  0.00     0.211 HD
ENDBRANCH  12  35
BRANCH  13  37
ATOM     37  O   UNL     1      20.822  36.896  11.494  1.00  0.00    -0.387 OA
ATOM     38  H   UNL     1      21.670  37.185  11.923  1.00  0.00     0.211 HD
ENDBRANCH  13  37
BRANCH  14  39
ATOM     39  O   UNL     1      22.616  38.405  10.546  1.00  0.00    -0.387 OA
ATOM     40  H   UNL     1      22.390  39.297  10.883  1.00  0.00     0.211 HD
ENDBRANCH  14  39
ENDBRANCH   8   9
ENDBRANCH   7   8
ENDBRANCH   1   7
BRANCH   1  41
ATOM     41  C   UNL     1      24.772  40.665   9.178  1.00  0.00     0.364 C 
ATOM     42  O   UNL     1      25.145  39.941  10.105  1.00  0.00    -0.246 OA
BRANCH  41  43
ATOM     43  O   UNL     1      24.297  41.931   9.563  1.00  0.00    -0.477 OA
ATOM     44  H   UNL     1      23.923  42.015  10.501  1.00  0.00     0.296 HD
ENDBRANCH  41  43
ENDBRANCH   1  41
BRANCH   3  45
ATOM     45  O   UNL     1      25.658  40.118   5.356  1.00  0.00    -0.391 OA
ATOM     46  H   UNL     1      26.183  39.732   6.085  1.00  0.00     0.211 HD
ENDBRANCH   3  45
BRANCH   5  47
ATOM     47  C   UNL     1      28.351  40.917   7.149  1.00  0.00     0.176 C 
BRANCH  47  48
ATOM     48  O   UNL     1      28.693  41.408   5.865  1.00  0.00    -0.388 OA
ATOM     49  H   UNL     1      29.611  41.197   5.626  1.00  0.00     0.211 HD
ENDBRANCH  47  48
BRANCH  47  50
ATOM     50  C   UNL     1      28.514  39.411   7.021  1.00  0.00     0.165 C 
BRANCH  50  51
ATOM     51  O   UNL     1      28.767  38.794   8.202  1.00  0.00    -0.388 OA
ATOM     52  H   UNL     1      28.220  38.001   8.407  1.00  0.00     0.211 HD
ENDBRANCH  50  51
BRANCH  50  53
ATOM     53  C   UNL     1      29.586  39.093   5.998  1.00  0.00     0.154 C 
BRANCH  53  54
ATOM     54  N   UNL     1      30.909  38.997   6.493  1.00  0.00    -0.319 N 
ATOM     55  C   UNL     1      31.870  40.008   6.393  1.00  0.00     0.407 C 
ATOM     56  H   UNL     1      31.220  38.089   6.985  1.00  0.00     0.167 HD
ATOM     57  O   UNL     1      31.629  41.102   5.857  1.00  0.00    -0.225 OA
BRANCH  55  58
ATOM     58  O   UNL     1      33.180  39.833   6.901  1.00  0.00    -0.443 OA
BRANCH  58  59
ATOM     59  C   UNL     1      33.482  40.096   8.253  1.00  0.00     0.294 C 
BRANCH  59  60
ATOM     60  C   UNL     1      32.357  39.832   9.173  1.00  0.00     0.120 A 
ATOM     61  C   UNL     1      31.592  40.760   9.851  1.00  0.00     0.139 A 
ATOM     62  N   UNL     1      31.860  38.636   9.523  1.00  0.00    -0.132 NA
ATOM     63  N   UNL     1      30.660  40.110  10.589  1.00  0.00    -0.244 N 
ATOM     64  N   UNL     1      30.845  38.819  10.371  1.00  0.00    -0.066 NA
BRANCH  63  65
ATOM     65  C   UNL     1      29.672  40.735  11.432  1.00  0.00     0.082 C 
ATOM     66  C   UNL     1      29.042  41.887  10.707  1.00  0.00     0.039 C 
ATOM     67  C   UNL     1      30.341  41.312  12.689  1.00  0.00     0.039 C 
BRANCH  65  68
ATOM     68  C   UNL     1      28.595  39.800  11.901  1.00  0.00     0.186 C 
BRANCH  68  69
ATOM     69  O   UNL     1      27.891  39.211  10.876  1.00  0.00    -0.394 OA
ATOM     70  H   UNL     1      26.967  38.995  11.076  1.00  0.00     0.210 HD
ENDBRANCH  68  69
ENDBRANCH  65  68
ENDBRANCH  63  65
ENDBRANCH  59  60
ENDBRANCH  58  59
ENDBRANCH  55  58
ENDBRANCH  53  54
ENDBRANCH  50  53
ENDBRANCH  47  50
ENDBRANCH   5  47
BRANCH   4  71
ATOM     71  N   UNL     1      26.017  43.450   6.542  1.00  0.00    -0.348 N 
ATOM     72  C   UNL     1      26.835  44.604   6.578  1.00  0.00     0.217 C 
ATOM     73  H   UNL     1      24.992  43.636   6.759  1.00  0.00     0.163 HD
ATOM     74  C   UNL     1      26.295  45.954   6.890  1.00  0.00     0.114 C 
ATOM     75  O   UNL     1      28.050  44.495   6.342  1.00  0.00    -0.275 OA
ENDBRANCH   4  71
TORSDOF 32
BEGIN_RES LYS A 131
REMARK  4 active torsions:
REMARK  status: ('A' for Active; 'I' for Inactive)
REMARK    1  A    between atoms: CA   and  CB  
REMARK    2  A    between atoms: CB   and  CG  
REMARK    3  A    between atoms: CG   and  CD  
REMARK    4  A    between atoms: CD   and  CE  
ROOT
ATOM      1  CA  LYS A 131      29.867  25.555  16.977  1.00 20.52     0.186 C 
ENDROOT
BRANCH   1   2
ATOM      2  CB  LYS A 131      28.345  25.722  17.026  1.00 20.94     0.034 C 
BRANCH   2   3
ATOM      3  CG  LYS A 131      27.602  24.397  16.946  1.00 22.96     0.005 C 
BRANCH   3   4
ATOM      4  CD  LYS A 131      26.156  24.534  17.333  1.00 24.33     0.041 C 
BRANCH   4   5
ATOM      5  CE  LYS A 131      25.723  23.306  18.128  1.00 26.91     0.338 C 
ATOM      6  NZ  LYS A 131      24.641  22.584  17.418  1.00 27.40     0.618 N 
ENDBRANCH   4   5
ENDBRANCH   3   4
ENDBRANCH   2   3
ENDBRANCH   1   2
END_RES LYS A 131
BEGIN_RES LYS A 135
REMARK  4 active torsions:
REMARK  status: ('A' for Active; 'I' for Inactive)
REMARK    5  A    between atoms: CA   and  CB  
REMARK    6  A    between atoms: CB   and  CG  
REMARK    7  A    between atoms: CG   and  CD  
REMARK    8  A    between atoms: CD   and  CE  
ROOT
ATOM      7  CA  LYS A 135      33.193  34.663   9.290  1.00 25.02     0.186 C 
ENDROOT
BRANCH   7   8
ATOM      8  CB  LYS A 135      32.060  35.360  10.034  1.00 26.63     0.034 C 
BRANCH   8   9
ATOM      9  CG  LYS A 135      30.688  34.916   9.595  1.00 29.45     0.005 C 
BRANCH   9  10
ATOM     10  CD  LYS A 135      30.211  35.741   8.410  1.00 32.00     0.041 C 
BRANCH  10  11
ATOM     11  CE  LYS A 135      29.585  34.847   7.356  1.00 34.25     0.338 C 
ATOM     12  NZ  LYS A 135      28.880  35.651   6.321  1.00 35.99     0.618 N 
ENDBRANCH  10  11
ENDBRANCH   9  10
ENDBRANCH   8   9
ENDBRANCH   7   8
END_RES LYS A 135
