REMARK VINA RESULT:    -5.015      4.806     11.942
REMARK INTER + INTRA:         -23.597
REMARK INTER:                 -10.298
REMARK INTRA:                 -13.299
REMARK UNBOUND:               -10.372
REMARK SMILES CC(=O)N[C@@H]1[C@@H](O)C[C@](OC[C@H]2O[C@@H](O[C@H]3[C@H](O)[C@@H](O)[C@H](OCCN=[N+]=[N-])O[C@@H]3CO)[C@H](O)[C@@H](O)[C@H]2O)(C(=O)O)O[C@H]1C(O)[C@H](O)CNC(=O)OCc1cn(CC(=O)NCc2cccs2)nn1
REMARK SMILES IDX 43 1 42 2 9 3 8 4 41 5 6 6 5 7 10 8 11 9 12 10 14 11 13 12
REMARK SMILES IDX 32 13 34 14 36 15 15 16 16 17 29 18 28 19 21 20 17 21 19 22
REMARK SMILES IDX 30 23 31 24 22 26 23 27 24 28 25 29 26 30 27 31 18 32 20 34
REMARK SMILES IDX 33 36 35 38 37 40 38 42 39 43 40 44 7 46 4 48 2 49 1 51 3 52
REMARK SMILES IDX 44 53 45 55 46 56 47 58 48 59 49 60 50 62 51 63 52 64 53 65
REMARK SMILES IDX 54 66 67 67 55 68 66 69 56 70 57 71 58 72 59 73 60 75 61 76
REMARK SMILES IDX 62 77 65 78 63 79 64 80
REMARK H PARENT 31 25 18 33 20 35 33 37 35 39 37 41 40 45 7 47 4 50 44 54
REMARK H PARENT 46 57 48 61 59 74
REMARK Flexibility Score: inf
ROOT
ATOM      1  C   UNL     1      28.212  30.231  22.491  1.00  0.00     0.176 C 
ENDROOT
BRANCH   1   2
ATOM      2  C   UNL     1      29.100  29.015  22.530  1.00  0.00     0.178 C 
ATOM      3  C   UNL     1      30.689  28.914  20.781  1.00  0.00     0.272 C 
ATOM      4  C   UNL     1      29.593  28.261  19.923  1.00  0.00     0.113 C 
ATOM      5  O   UNL     1      30.292  29.342  21.984  1.00  0.00    -0.332 OA
ATOM      6  C   UNL     1      28.889  27.258  20.744  1.00  0.00     0.145 C 
ATOM      7  C   UNL     1      28.477  27.742  22.109  1.00  0.00     0.142 C 
BRANCH   3   8
ATOM      8  O   UNL     1      31.144  29.953  20.004  1.00  0.00    -0.338 OA
BRANCH   8   9
ATOM      9  C   UNL     1      30.336  30.944  19.622  1.00  0.00     0.199 C 
BRANCH   9  10
ATOM     10  C   UNL     1      30.331  31.391  18.188  1.00  0.00     0.179 C 
ATOM     11  C   UNL     1      29.222  30.796  16.269  1.00  0.00     0.282 C 
ATOM     12  O   UNL     1      29.108  30.907  17.661  1.00  0.00    -0.341 OA
ATOM     13  C   UNL     1      29.871  31.998  15.667  1.00  0.00     0.202 C 
ATOM     14  C   UNL     1      29.979  33.184  16.566  1.00  0.00     0.179 C 
ATOM     15  C   UNL     1      30.239  32.891  18.009  1.00  0.00     0.177 C 
BRANCH  11  16
ATOM     16  O   UNL     1      28.027  30.531  15.660  1.00  0.00    -0.341 OA
BRANCH  16  17
ATOM     17  C   UNL     1      26.945  30.531  16.538  1.00  0.00     0.184 C 
ATOM     18  C   UNL     1      26.177  29.283  16.544  1.00  0.00     0.178 C 
ATOM     19  O   UNL     1      24.913  29.289  16.019  1.00  0.00    -0.341 OA
ATOM     20  C   UNL     1      24.512  30.382  15.322  1.00  0.00     0.281 C 
ATOM     21  C   UNL     1      26.183  31.805  16.308  1.00  0.00     0.180 C 
ATOM     22  C   UNL     1      24.691  31.597  16.250  1.00  0.00     0.202 C 
BRANCH  18  23
ATOM     23  C   UNL     1      26.001  28.777  17.990  1.00  0.00     0.191 C 
BRANCH  23  24
ATOM     24  O   UNL     1      26.703  29.537  18.900  1.00  0.00    -0.394 OA
ATOM     25  H   UNL     1      26.069  29.830  19.609  1.00  0.00     0.210 HD
ENDBRANCH  23  24
ENDBRANCH  18  23
BRANCH  20  26
ATOM     26  O   UNL     1      23.122  30.304  15.129  1.00  0.00    -0.350 OA
BRANCH  26  27
ATOM     27  C   UNL     1      22.803  29.747  13.908  1.00  0.00     0.169 C 
BRANCH  27  28
ATOM     28  C   UNL     1      23.154  30.781  12.834  1.00  0.00     0.119 C 
BRANCH  28  29
ATOM     29  N   UNL     1      22.132  31.818  12.817  1.00  0.00    -0.092 NA
ATOM     30  N   UNL     1      22.435  32.963  12.486  1.00  0.00     0.001 N 
ATOM     31  N   UNL     1      22.632  34.080  11.972  1.00  0.00    -0.003 NA
ENDBRANCH  28  29
ENDBRANCH  27  28
ENDBRANCH  26  27
ENDBRANCH  20  26
BRANCH  21  32
ATOM     32  O   UNL     1      26.514  32.812  17.221  1.00  0.00    -0.387 OA
ATOM     33  H   UNL     1      27.510  32.951  17.256  1.00  0.00     0.211 HD
ENDBRANCH  21  32
BRANCH  22  34
ATOM     34  O   UNL     1      24.115  32.725  15.701  1.00  0.00    -0.385 OA
ATOM     35  H   UNL     1      24.769  33.468  15.659  1.00  0.00     0.211 HD
ENDBRANCH  22  34
ENDBRANCH  16  17
ENDBRANCH  11  16
BRANCH  13  36
ATOM     36  O   UNL     1      31.139  31.688  15.125  1.00  0.00    -0.385 OA
ATOM     37  H   UNL     1      31.099  31.341  14.219  1.00  0.00     0.211 HD
ENDBRANCH  13  36
BRANCH  14  38
ATOM     38  O   UNL     1      28.862  34.036  16.401  1.00  0.00    -0.387 OA
ATOM     39  H   UNL     1      28.299  33.705  15.659  1.00  0.00     0.211 HD
ENDBRANCH  14  38
BRANCH  15  40
ATOM     40  O   UNL     1      29.108  33.360  18.720  1.00  0.00    -0.387 OA
ATOM     41  H   UNL     1      28.880  32.780  19.481  1.00  0.00     0.211 HD
ENDBRANCH  15  40
ENDBRANCH   9  10
ENDBRANCH   8   9
ENDBRANCH   3   8
BRANCH   3  42
ATOM     42  C   UNL     1      31.725  27.844  20.925  1.00  0.00     0.364 C 
ATOM     43  O   UNL     1      32.219  27.476  22.015  1.00  0.00    -0.246 OA
BRANCH  42  44
ATOM     44  O   UNL     1      32.188  27.194  19.788  1.00  0.00    -0.477 OA
ATOM     45  H   UNL     1      32.071  27.614  18.874  1.00  0.00     0.296 HD
ENDBRANCH  42  44
ENDBRANCH   3  42
BRANCH   6  46
ATOM     46  O   UNL     1      27.764  26.767  20.019  1.00  0.00    -0.391 OA
ATOM     47  H   UNL     1      28.031  26.424  19.138  1.00  0.00     0.211 HD
ENDBRANCH   6  46
BRANCH   7  48
ATOM     48  N   UNL     1      28.652  26.699  23.100  1.00  0.00    -0.348 N 
ATOM     49  C   UNL     1      27.638  26.442  24.047  1.00  0.00     0.217 C 
ATOM     50  H   UNL     1      29.528  26.114  23.147  1.00  0.00     0.163 HD
ATOM     51  C   UNL     1      27.836  25.364  25.060  1.00  0.00     0.114 C 
ATOM     52  O   UNL     1      26.555  27.071  24.099  1.00  0.00    -0.275 OA
ENDBRANCH   7  48
ENDBRANCH   1   2
BRANCH   1  53
ATOM     53  O   UNL     1      27.138  30.154  21.651  1.00  0.00    -0.388 OA
ATOM     54  H   UNL     1      26.254  30.113  22.073  1.00  0.00     0.211 HD
ENDBRANCH   1  53
BRANCH   1  55
ATOM     55  C   UNL     1      27.875  30.823  23.842  1.00  0.00     0.165 C 
BRANCH  55  56
ATOM     56  O   UNL     1      27.339  29.923  24.712  1.00  0.00    -0.388 OA
ATOM     57  H   UNL     1      26.361  29.841  24.682  1.00  0.00     0.211 HD
ENDBRANCH  55  56
BRANCH  55  58
ATOM     58  C   UNL     1      26.968  32.030  23.671  1.00  0.00     0.154 C 
BRANCH  58  59
ATOM     59  N   UNL     1      27.629  33.143  23.056  1.00  0.00    -0.319 N 
ATOM     60  C   UNL     1      27.490  33.583  21.717  1.00  0.00     0.407 C 
ATOM     61  H   UNL     1      28.320  33.752  23.625  1.00  0.00     0.167 HD
ATOM     62  O   UNL     1      26.741  33.022  20.918  1.00  0.00    -0.225 OA
BRANCH  60  63
ATOM     63  O   UNL     1      28.210  34.694  21.234  1.00  0.00    -0.443 OA
BRANCH  63  64
ATOM     64  C   UNL     1      27.651  35.916  20.877  1.00  0.00     0.294 C 
BRANCH  64  65
ATOM     65  C   UNL     1      27.473  36.116  19.433  1.00  0.00     0.120 A 
ATOM     66  C   UNL     1      26.289  36.083  18.729  1.00  0.00     0.138 A 
ATOM     67  N   UNL     1      28.444  36.377  18.517  1.00  0.00    -0.132 NA
ATOM     68  N   UNL     1      26.555  36.317  17.437  1.00  0.00    -0.243 N 
ATOM     69  N   UNL     1      27.852  36.489  17.347  1.00  0.00    -0.067 NA
BRANCH  68  70
ATOM     70  C   UNL     1      25.671  36.393  16.294  1.00  0.00     0.245 C 
BRANCH  70  71
ATOM     71  C   UNL     1      26.370  35.830  15.125  1.00  0.00     0.242 C 
ATOM     72  O   UNL     1      26.160  34.655  14.773  1.00  0.00    -0.273 OA
ATOM     73  N   UNL     1      27.287  36.618  14.388  1.00  0.00    -0.350 N 
ATOM     74  H   UNL     1      27.495  37.621  14.654  1.00  0.00     0.163 HD
BRANCH  73  75
ATOM     75  C   UNL     1      27.983  36.110  13.247  1.00  0.00     0.162 C 
BRANCH  75  76
ATOM     76  C   UNL     1      29.397  35.903  13.593  1.00  0.00     0.024 A 
ATOM     77  C   UNL     1      30.274  34.926  13.255  1.00  0.00     0.017 A 
ATOM     78  S   UNL     1      30.352  36.976  14.607  1.00  0.00    -0.147 S 
ATOM     79  C   UNL     1      31.534  34.983  13.714  1.00  0.00     0.012 A 
ATOM     80  C   UNL     1      31.920  36.002  14.503  1.00  0.00     0.065 A 
ENDBRANCH  75  76
ENDBRANCH  73  75
ENDBRANCH  70  71
ENDBRANCH  68  70
ENDBRANCH  64  65
ENDBRANCH  63  64
ENDBRANCH  60  63
ENDBRANCH  58  59
ENDBRANCH  55  58
ENDBRANCH   1  55
TORSDOF 33
BEGIN_RES LYS A 131
REMARK  4 active torsions:
REMARK  status: ('A' for Active; 'I' for Inactive)
REMARK    1  A    between atoms: CA   and  CB  
REMARK    2  A    between atoms: CB   and  CG  
REMARK    3  A    between atoms: CG   and  CD  
REMARK    4  A    between atoms: CD   and  CE  
ROOT
ATOM      1  CA  LYS A 131      29.867  25.555  16.977  1.00 20.52     0.186 C 
ENDROOT
BRANCH   1   2
ATOM      2  CB  LYS A 131      28.345  25.722  17.026  1.00 20.94     0.034 C 
BRANCH   2   3
ATOM      3  CG  LYS A 131      27.600  24.407  16.854  1.00 22.96     0.005 C 
BRANCH   3   4
ATOM      4  CD  LYS A 131      26.591  24.181  17.945  1.00 24.33     0.041 C 
BRANCH   4   5
ATOM      5  CE  LYS A 131      25.358  25.041  17.684  1.00 26.91     0.338 C 
ATOM      6  NZ  LYS A 131      24.732  25.452  18.962  1.00 27.40     0.618 N 
ENDBRANCH   4   5
ENDBRANCH   3   4
ENDBRANCH   2   3
ENDBRANCH   1   2
END_RES LYS A 131
BEGIN_RES LYS A 135
REMARK  4 active torsions:
REMARK  status: ('A' for Active; 'I' for Inactive)
REMARK    5  A    between atoms: CA   and  CB  
REMARK    6  A    between atoms: CB   and  CG  
REMARK    7  A    between atoms: CG   and  CD  
REMARK    8  A    between atoms: CD   and  CE  
ROOT
ATOM      7  CA  LYS A 135      33.193  34.663   9.290  1.00 25.02     0.186 C 
ENDROOT
BRANCH   7   8
ATOM      8  CB  LYS A 135      32.060  35.360  10.034  1.00 26.63     0.034 C 
BRANCH   8   9
ATOM      9  CG  LYS A 135      30.704  34.762   9.763  1.00 29.45     0.005 C 
BRANCH   9  10
ATOM     10  CD  LYS A 135      30.478  34.600   8.267  1.00 32.00     0.041 C 
BRANCH  10  11
ATOM     11  CE  LYS A 135      29.031  34.885   7.913  1.00 34.25     0.338 C 
ATOM     12  NZ  LYS A 135      28.930  35.628   6.626  1.00 35.99     0.618 N 
ENDBRANCH  10  11
ENDBRANCH   9  10
ENDBRANCH   8   9
ENDBRANCH   7   8
END_RES LYS A 135
