REMARK VINA RESULT:    -4.916      4.314      8.720
REMARK INTER + INTRA:         -23.889
REMARK INTER:                 -12.911
REMARK INTRA:                 -10.978
REMARK UNBOUND:               -10.207
REMARK SMILES CC(=O)N[C@@H]1[C@@H](O)C[C@](OC[C@H]2O[C@@H](O[C@H]3[C@H](O)[C@@H](O)[C@H](OCCN=[N+]=[N-])O[C@@H]3CO)[C@H](O)[C@@H](O)[C@H]2O)(C(=O)O)O[C@H]1C(O)[C@H](O)CNC(=O)OCc1cn(C[C@H](CC(=O)O)CC(C)C)nn1
REMARK SMILES IDX 43 1 42 2 9 3 8 4 41 5 6 6 5 7 10 8 11 9 12 10 14 11 13 12
REMARK SMILES IDX 32 13 34 14 36 15 15 16 16 17 29 18 28 19 21 20 17 21 19 22
REMARK SMILES IDX 30 23 31 24 22 26 23 27 24 28 25 29 26 30 27 31 18 32 20 34
REMARK SMILES IDX 33 36 35 38 37 40 38 42 39 43 40 44 7 46 4 48 2 49 1 51 3 52
REMARK SMILES IDX 44 53 45 55 46 56 47 58 48 59 49 60 50 62 51 63 52 64 53 65
REMARK SMILES IDX 54 66 67 67 55 68 66 69 56 70 57 71 58 72 59 73 60 74 61 75
REMARK SMILES IDX 62 77 63 78 64 79 65 80
REMARK H PARENT 31 25 18 33 20 35 33 37 35 39 37 41 40 45 7 47 4 50 44 54
REMARK H PARENT 46 57 48 61 61 76
REMARK Flexibility Score: inf
ROOT
ATOM      1  C   UNL     1      28.993  32.897  15.409  1.00  0.00     0.176 C 
ENDROOT
BRANCH   1   2
ATOM      2  C   UNL     1      28.978  34.392  15.561  1.00  0.00     0.178 C 
ATOM      3  C   UNL     1      28.119  35.755  13.768  1.00  0.00     0.272 C 
ATOM      4  C   UNL     1      29.498  36.031  13.287  1.00  0.00     0.113 C 
ATOM      5  O   UNL     1      28.019  34.842  14.712  1.00  0.00    -0.332 OA
ATOM      6  C   UNL     1      30.597  35.233  13.862  1.00  0.00     0.145 C 
ATOM      7  C   UNL     1      30.365  34.887  15.334  1.00  0.00     0.142 C 
BRANCH   3   8
ATOM      8  O   UNL     1      27.309  35.363  12.668  1.00  0.00    -0.338 OA
BRANCH   8   9
ATOM      9  C   UNL     1      27.939  35.374  11.463  1.00  0.00     0.199 C 
BRANCH   9  10
ATOM     10  C   UNL     1      27.023  36.004  10.390  1.00  0.00     0.179 C 
ATOM     11  C   UNL     1      24.796  36.482   9.949  1.00  0.00     0.282 C 
ATOM     12  O   UNL     1      25.774  36.276  10.909  1.00  0.00    -0.341 OA
ATOM     13  C   UNL     1      25.483  37.187   8.768  1.00  0.00     0.202 C 
ATOM     14  C   UNL     1      26.559  38.125   9.276  1.00  0.00     0.179 C 
ATOM     15  C   UNL     1      27.631  37.347   9.961  1.00  0.00     0.177 C 
BRANCH  11  16
ATOM     16  O   UNL     1      23.890  37.395  10.430  1.00  0.00    -0.341 OA
BRANCH  16  17
ATOM     17  C   UNL     1      22.565  37.103  10.237  1.00  0.00     0.184 C 
ATOM     18  C   UNL     1      22.292  35.698   9.788  1.00  0.00     0.178 C 
ATOM     19  O   UNL     1      21.751  35.577   8.542  1.00  0.00    -0.341 OA
ATOM     20  C   UNL     1      20.580  36.279   8.331  1.00  0.00     0.281 C 
ATOM     21  C   UNL     1      22.051  38.036   9.161  1.00  0.00     0.180 C 
ATOM     22  C   UNL     1      20.588  37.662   8.881  1.00  0.00     0.202 C 
BRANCH  18  23
ATOM     23  C   UNL     1      21.467  35.020  10.866  1.00  0.00     0.191 C 
BRANCH  23  24
ATOM     24  O   UNL     1      21.765  35.529  12.128  1.00  0.00    -0.394 OA
ATOM     25  H   UNL     1      21.596  36.509  12.188  1.00  0.00     0.210 HD
ENDBRANCH  23  24
ENDBRANCH  18  23
BRANCH  20  26
ATOM     26  O   UNL     1      19.529  35.489   8.773  1.00  0.00    -0.350 OA
BRANCH  26  27
ATOM     27  C   UNL     1      19.121  34.551   7.840  1.00  0.00     0.169 C 
BRANCH  27  28
ATOM     28  C   UNL     1      17.654  34.257   8.123  1.00  0.00     0.119 C 
BRANCH  28  29
ATOM     29  N   UNL     1      17.609  32.878   8.588  1.00  0.00    -0.092 NA
ATOM     30  N   UNL     1      17.373  32.004   7.788  1.00  0.00     0.001 N 
ATOM     31  N   UNL     1      17.012  30.955   7.237  1.00  0.00    -0.003 NA
ENDBRANCH  28  29
ENDBRANCH  27  28
ENDBRANCH  26  27
ENDBRANCH  20  26
BRANCH  21  32
ATOM     32  O   UNL     1      22.173  39.352   9.569  1.00  0.00    -0.387 OA
ATOM     33  H   UNL     1      22.674  39.836   8.840  1.00  0.00     0.211 HD
ENDBRANCH  21  32
BRANCH  22  34
ATOM     34  O   UNL     1      20.145  38.624   7.949  1.00  0.00    -0.385 OA
ATOM     35  H   UNL     1      20.391  38.296   7.058  1.00  0.00     0.211 HD
ENDBRANCH  22  34
ENDBRANCH  16  17
ENDBRANCH  11  16
BRANCH  13  36
ATOM     36  O   UNL     1      25.912  36.314   7.801  1.00  0.00    -0.385 OA
ATOM     37  H   UNL     1      25.202  35.864   7.311  1.00  0.00     0.211 HD
ENDBRANCH  13  36
BRANCH  14  38
ATOM     38  O   UNL     1      25.921  38.952  10.223  1.00  0.00    -0.387 OA
ATOM     39  H   UNL     1      26.531  39.270  10.906  1.00  0.00     0.211 HD
ENDBRANCH  14  38
BRANCH  15  40
ATOM     40  O   UNL     1      28.016  38.076  11.105  1.00  0.00    -0.387 OA
ATOM     41  H   UNL     1      27.693  38.990  11.061  1.00  0.00     0.211 HD
ENDBRANCH  15  40
ENDBRANCH   9  10
ENDBRANCH   8   9
ENDBRANCH   3   8
BRANCH   3  42
ATOM     42  C   UNL     1      27.466  37.055  14.200  1.00  0.00     0.364 C 
ATOM     43  O   UNL     1      27.955  37.729  15.115  1.00  0.00    -0.246 OA
BRANCH  42  44
ATOM     44  O   UNL     1      26.331  37.497  13.584  1.00  0.00    -0.477 OA
ATOM     45  H   UNL     1      25.465  37.694  14.084  1.00  0.00     0.296 HD
ENDBRANCH  42  44
ENDBRANCH   3  42
BRANCH   6  46
ATOM     46  O   UNL     1      30.967  34.096  13.178  1.00  0.00    -0.391 OA
ATOM     47  H   UNL     1      30.717  34.238  12.231  1.00  0.00     0.211 HD
ENDBRANCH   6  46
BRANCH   7  48
ATOM     48  N   UNL     1      30.747  36.063  16.069  1.00  0.00    -0.348 N 
ATOM     49  C   UNL     1      31.800  35.940  17.051  1.00  0.00     0.217 C 
ATOM     50  H   UNL     1      30.329  37.014  15.966  1.00  0.00     0.163 HD
ATOM     51  C   UNL     1      32.201  37.173  17.814  1.00  0.00     0.114 C 
ATOM     52  O   UNL     1      32.378  34.850  17.282  1.00  0.00    -0.275 OA
ENDBRANCH   7  48
ENDBRANCH   1   2
BRANCH   1  53
ATOM     53  O   UNL     1      27.951  32.356  16.219  1.00  0.00    -0.388 OA
ATOM     54  H   UNL     1      28.059  32.685  17.149  1.00  0.00     0.211 HD
ENDBRANCH   1  53
BRANCH   1  55
ATOM     55  C   UNL     1      30.228  32.168  15.890  1.00  0.00     0.165 C 
BRANCH  55  56
ATOM     56  O   UNL     1      29.926  30.807  15.451  1.00  0.00    -0.388 OA
ATOM     57  H   UNL     1      30.804  30.540  15.025  1.00  0.00     0.211 HD
ENDBRANCH  55  56
BRANCH  55  58
ATOM     58  C   UNL     1      30.276  32.023  17.372  1.00  0.00     0.154 C 
BRANCH  58  59
ATOM     59  N   UNL     1      29.880  30.732  17.808  1.00  0.00    -0.319 N 
ATOM     60  C   UNL     1      28.891  30.688  18.861  1.00  0.00     0.407 C 
ATOM     61  H   UNL     1      30.212  29.809  17.474  1.00  0.00     0.167 HD
ATOM     62  O   UNL     1      28.431  31.767  19.330  1.00  0.00    -0.225 OA
BRANCH  60  63
ATOM     63  O   UNL     1      28.411  29.517  19.402  1.00  0.00    -0.443 OA
BRANCH  63  64
ATOM     64  C   UNL     1      27.373  28.725  18.863  1.00  0.00     0.294 C 
BRANCH  64  65
ATOM     65  C   UNL     1      26.718  29.348  17.678  1.00  0.00     0.120 A 
ATOM     66  C   UNL     1      25.519  30.020  17.613  1.00  0.00     0.138 A 
ATOM     67  N   UNL     1      27.228  29.349  16.443  1.00  0.00    -0.132 NA
ATOM     68  N   UNL     1      25.324  30.419  16.318  1.00  0.00    -0.252 N 
ATOM     69  N   UNL     1      26.377  29.991  15.663  1.00  0.00    -0.067 NA
BRANCH  68  70
ATOM     70  C   UNL     1      24.210  31.120  15.795  1.00  0.00     0.150 C 
BRANCH  70  71
ATOM     71  C   UNL     1      24.356  31.625  14.422  1.00  0.00     0.022 C 
BRANCH  71  72
ATOM     72  C   UNL     1      25.144  32.868  14.236  1.00  0.00     0.128 C 
BRANCH  72  73
ATOM     73  C   UNL     1      24.397  34.132  14.193  1.00  0.00     0.303 C 
ATOM     74  O   UNL     1      23.667  34.450  15.168  1.00  0.00    -0.252 OA
BRANCH  73  75
ATOM     75  O   UNL     1      24.446  35.018  13.124  1.00  0.00    -0.481 OA
ATOM     76  H   UNL     1      23.756  34.967  12.389  1.00  0.00     0.296 HD
ENDBRANCH  73  75
ENDBRANCH  72  73
ENDBRANCH  71  72
BRANCH  71  77
ATOM     77  C   UNL     1      23.097  31.599  13.603  1.00  0.00     0.009 C 
BRANCH  77  78
ATOM     78  C   UNL     1      22.889  30.528  12.632  1.00  0.00    -0.017 C 
ATOM     79  C   UNL     1      23.657  29.263  12.775  1.00  0.00     0.007 C 
ATOM     80  C   UNL     1      21.434  30.168  12.394  1.00  0.00     0.007 C 
ENDBRANCH  77  78
ENDBRANCH  71  77
ENDBRANCH  70  71
ENDBRANCH  68  70
ENDBRANCH  64  65
ENDBRANCH  63  64
ENDBRANCH  60  63
ENDBRANCH  58  59
ENDBRANCH  55  58
ENDBRANCH   1  55
TORSDOF 36
BEGIN_RES LYS A 131
REMARK  4 active torsions:
REMARK  status: ('A' for Active; 'I' for Inactive)
REMARK    1  A    between atoms: CA   and  CB  
REMARK    2  A    between atoms: CB   and  CG  
REMARK    3  A    between atoms: CG   and  CD  
REMARK    4  A    between atoms: CD   and  CE  
ROOT
ATOM      1  CA  LYS A 131      29.867  25.555  16.977  1.00 20.52     0.186 C 
ENDROOT
BRANCH   1   2
ATOM      2  CB  LYS A 131      28.345  25.722  17.026  1.00 20.94     0.034 C 
BRANCH   2   3
ATOM      3  CG  LYS A 131      27.602  24.400  16.910  1.00 22.96     0.005 C 
BRANCH   3   4
ATOM      4  CD  LYS A 131      26.152  24.530  17.289  1.00 24.33     0.041 C 
BRANCH   4   5
ATOM      5  CE  LYS A 131      26.041  24.834  18.780  1.00 26.91     0.338 C 
ATOM      6  NZ  LYS A 131      25.503  23.661  19.509  1.00 27.40     0.618 N 
ENDBRANCH   4   5
ENDBRANCH   3   4
ENDBRANCH   2   3
ENDBRANCH   1   2
END_RES LYS A 131
BEGIN_RES LYS A 135
REMARK  4 active torsions:
REMARK  status: ('A' for Active; 'I' for Inactive)
REMARK    5  A    between atoms: CA   and  CB  
REMARK    6  A    between atoms: CB   and  CG  
REMARK    7  A    between atoms: CG   and  CD  
REMARK    8  A    between atoms: CD   and  CE  
ROOT
ATOM      7  CA  LYS A 135      33.193  34.663   9.290  1.00 25.02     0.186 C 
ENDROOT
BRANCH   7   8
ATOM      8  CB  LYS A 135      32.060  35.360  10.034  1.00 26.63     0.034 C 
BRANCH   8   9
ATOM      9  CG  LYS A 135      30.854  35.636   9.173  1.00 29.45     0.005 C 
BRANCH   9  10
ATOM     10  CD  LYS A 135      30.253  34.337   8.659  1.00 32.00     0.041 C 
BRANCH  10  11
ATOM     11  CE  LYS A 135      28.977  34.610   7.886  1.00 34.25     0.338 C 
ATOM     12  NZ  LYS A 135      29.142  35.775   6.973  1.00 35.99     0.618 N 
ENDBRANCH  10  11
ENDBRANCH   9  10
ENDBRANCH   8   9
ENDBRANCH   7   8
END_RES LYS A 135
