REMARK VINA RESULT:    -3.279      3.755      7.861
REMARK INTER + INTRA:         -22.120
REMARK INTER:                 -10.323
REMARK INTRA:                 -11.796
REMARK UNBOUND:               -13.473
REMARK SMILES CC(=O)N[C@@H]1[C@@H](O)C[C@](OC[C@H]2O[C@@H](O[C@H]3[C@H](O)[C@@H](O)[C@H](OCCN=[N+]=[N-])O[C@@H]3CO)[C@H](O)[C@@H](O)[C@H]2O)(C(=O)O)O[C@H]1C(O)[C@H](O)CNC(=O)OCc1cn(CCOC(C)=O)nn1
REMARK SMILES IDX 43 1 42 2 9 3 8 4 41 5 6 6 5 7 10 8 11 9 12 10 14 11 13 12
REMARK SMILES IDX 32 13 34 14 36 15 15 16 16 17 29 18 28 19 21 20 17 21 19 22
REMARK SMILES IDX 30 23 31 24 22 26 23 27 24 28 25 29 26 30 27 31 18 32 20 34
REMARK SMILES IDX 33 36 35 38 37 40 38 42 39 43 40 44 7 46 4 48 2 49 1 51 3 52
REMARK SMILES IDX 44 53 45 55 46 56 47 58 48 59 49 60 50 62 51 63 52 64 53 65
REMARK SMILES IDX 54 66 63 67 55 68 62 69 56 70 57 71 58 72 59 73 61 74 60 75
REMARK H PARENT 31 25 18 33 20 35 33 37 35 39 37 41 40 45 7 47 4 50 44 54
REMARK H PARENT 46 57 48 61
REMARK Flexibility Score: inf
ROOT
ATOM      1  C   UNL     1      29.803  38.083   9.072  1.00  0.00     0.176 C 
ENDROOT
BRANCH   1   2
ATOM      2  C   UNL     1      29.437  38.244   7.619  1.00  0.00     0.178 C 
ATOM      3  C   UNL     1      28.433  39.862   6.230  1.00  0.00     0.272 C 
ATOM      4  C   UNL     1      28.827  38.826   5.205  1.00  0.00     0.113 C 
ATOM      5  O   UNL     1      28.991  39.578   7.505  1.00  0.00    -0.332 OA
ATOM      6  C   UNL     1      28.434  37.445   5.587  1.00  0.00     0.145 C 
ATOM      7  C   UNL     1      28.296  37.406   7.135  1.00  0.00     0.142 C 
BRANCH   3   8
ATOM      8  O   UNL     1      27.154  40.067   6.427  1.00  0.00    -0.338 OA
BRANCH   8   9
ATOM      9  C   UNL     1      26.462  41.137   6.702  1.00  0.00     0.199 C 
BRANCH   9  10
ATOM     10  C   UNL     1      25.571  41.339   7.853  1.00  0.00     0.179 C 
ATOM     11  C   UNL     1      24.021  40.173   9.098  1.00  0.00     0.282 C 
ATOM     12  O   UNL     1      25.197  40.030   8.348  1.00  0.00    -0.341 OA
ATOM     13  C   UNL     1      23.999  41.351   9.979  1.00  0.00     0.202 C 
ATOM     14  C   UNL     1      25.255  42.140  10.111  1.00  0.00     0.179 C 
ATOM     15  C   UNL     1      26.308  41.886   9.091  1.00  0.00     0.177 C 
BRANCH  11  16
ATOM     16  O   UNL     1      23.782  38.948   9.698  1.00  0.00    -0.341 OA
BRANCH  16  17
ATOM     17  C   UNL     1      22.710  38.278   9.165  1.00  0.00     0.184 C 
ATOM     18  C   UNL     1      21.872  37.688  10.276  1.00  0.00     0.178 C 
ATOM     19  O   UNL     1      20.793  37.061   9.637  1.00  0.00    -0.341 OA
ATOM     20  C   UNL     1      21.202  35.877   9.102  1.00  0.00     0.281 C 
ATOM     21  C   UNL     1      23.144  37.179   8.209  1.00  0.00     0.180 C 
ATOM     22  C   UNL     1      22.634  35.838   8.622  1.00  0.00     0.202 C 
BRANCH  18  23
ATOM     23  C   UNL     1      21.329  38.794  11.161  1.00  0.00     0.191 C 
BRANCH  23  24
ATOM     24  O   UNL     1      20.878  39.842  10.379  1.00  0.00    -0.394 OA
ATOM     25  H   UNL     1      21.461  39.845   9.562  1.00  0.00     0.210 HD
ENDBRANCH  23  24
ENDBRANCH  18  23
BRANCH  20  26
ATOM     26  O   UNL     1      20.317  35.555   8.065  1.00  0.00    -0.350 OA
BRANCH  26  27
ATOM     27  C   UNL     1      19.120  36.251   8.186  1.00  0.00     0.169 C 
BRANCH  27  28
ATOM     28  C   UNL     1      18.079  35.208   8.608  1.00  0.00     0.119 C 
BRANCH  28  29
ATOM     29  N   UNL     1      18.118  34.119   7.646  1.00  0.00    -0.092 NA
ATOM     30  N   UNL     1      17.511  33.056   7.824  1.00  0.00     0.001 N 
ATOM     31  N   UNL     1      17.247  31.887   8.163  1.00  0.00    -0.003 NA
ENDBRANCH  28  29
ENDBRANCH  27  28
ENDBRANCH  26  27
ENDBRANCH  20  26
BRANCH  21  32
ATOM     32  O   UNL     1      22.825  37.454   6.885  1.00  0.00    -0.387 OA
ATOM     33  H   UNL     1      21.853  37.473   6.703  1.00  0.00     0.211 HD
ENDBRANCH  21  32
BRANCH  22  34
ATOM     34  O   UNL     1      23.496  35.235   9.516  1.00  0.00    -0.385 OA
ATOM     35  H   UNL     1      24.148  35.923   9.836  1.00  0.00     0.211 HD
ENDBRANCH  22  34
ENDBRANCH  16  17
ENDBRANCH  11  16
BRANCH  13  36
ATOM     36  O   UNL     1      22.892  42.196   9.701  1.00  0.00    -0.385 OA
ATOM     37  H   UNL     1      23.157  43.138   9.654  1.00  0.00     0.211 HD
ENDBRANCH  13  36
BRANCH  14  38
ATOM     38  O   UNL     1      25.838  41.975  11.377  1.00  0.00    -0.387 OA
ATOM     39  H   UNL     1      26.003  42.886  11.761  1.00  0.00     0.211 HD
ENDBRANCH  14  38
BRANCH  15  40
ATOM     40  O   UNL     1      27.120  40.832   9.593  1.00  0.00    -0.387 OA
ATOM     41  H   UNL     1      26.566  40.131   9.990  1.00  0.00     0.211 HD
ENDBRANCH  15  40
ENDBRANCH   9  10
ENDBRANCH   8   9
ENDBRANCH   3   8
BRANCH   3  42
ATOM     42  C   UNL     1      29.202  41.083   5.858  1.00  0.00     0.364 C 
ATOM     43  O   UNL     1      29.206  41.640   4.744  1.00  0.00    -0.246 OA
BRANCH  42  44
ATOM     44  O   UNL     1      30.022  41.710   6.822  1.00  0.00    -0.477 OA
ATOM     45  H   UNL     1      30.216  41.221   7.683  1.00  0.00     0.296 HD
ENDBRANCH  42  44
ENDBRANCH   3  42
BRANCH   6  46
ATOM     46  O   UNL     1      27.296  36.961   4.983  1.00  0.00    -0.391 OA
ATOM     47  H   UNL     1      26.675  36.513   5.612  1.00  0.00     0.211 HD
ENDBRANCH   6  46
BRANCH   7  48
ATOM     48  N   UNL     1      28.240  36.049   7.564  1.00  0.00    -0.348 N 
ATOM     49  C   UNL     1      27.144  35.535   8.305  1.00  0.00     0.217 C 
ATOM     50  H   UNL     1      29.007  35.406   7.312  1.00  0.00     0.163 HD
ATOM     51  C   UNL     1      27.094  34.109   8.753  1.00  0.00     0.114 C 
ATOM     52  O   UNL     1      26.154  36.262   8.622  1.00  0.00    -0.275 OA
ENDBRANCH   7  48
ENDBRANCH   1   2
BRANCH   1  53
ATOM     53  O   UNL     1      28.625  38.481   9.780  1.00  0.00    -0.388 OA
ATOM     54  H   UNL     1      28.811  39.278  10.318  1.00  0.00     0.211 HD
ENDBRANCH   1  53
BRANCH   1  55
ATOM     55  C   UNL     1      30.828  39.117   9.471  1.00  0.00     0.165 C 
BRANCH  55  56
ATOM     56  O   UNL     1      31.561  39.499   8.336  1.00  0.00    -0.388 OA
ATOM     57  H   UNL     1      32.492  39.639   8.606  1.00  0.00     0.211 HD
ENDBRANCH  55  56
BRANCH  55  58
ATOM     58  C   UNL     1      31.725  38.665  10.581  1.00  0.00     0.154 C 
BRANCH  58  59
ATOM     59  N   UNL     1      31.073  38.352  11.814  1.00  0.00    -0.319 N 
ATOM     60  C   UNL     1      30.816  39.300  12.822  1.00  0.00     0.407 C 
ATOM     61  H   UNL     1      30.740  37.362  12.034  1.00  0.00     0.167 HD
ATOM     62  O   UNL     1      31.131  40.504  12.714  1.00  0.00    -0.225 OA
BRANCH  60  63
ATOM     63  O   UNL     1      30.186  38.948  14.026  1.00  0.00    -0.443 OA
BRANCH  63  64
ATOM     64  C   UNL     1      28.926  39.436  14.389  1.00  0.00     0.294 C 
BRANCH  64  65
ATOM     65  C   UNL     1      27.879  39.063  13.398  1.00  0.00     0.120 A 
ATOM     66  C   UNL     1      27.202  37.856  13.412  1.00  0.00     0.138 A 
ATOM     67  N   UNL     1      27.386  39.741  12.366  1.00  0.00    -0.132 NA
ATOM     68  N   UNL     1      26.339  37.865  12.391  1.00  0.00    -0.249 N 
ATOM     69  N   UNL     1      26.468  39.022  11.769  1.00  0.00    -0.067 NA
BRANCH  68  70
ATOM     70  C   UNL     1      25.413  36.792  12.000  1.00  0.00     0.187 C 
BRANCH  70  71
ATOM     71  C   UNL     1      26.115  35.455  12.086  1.00  0.00     0.256 C 
BRANCH  71  72
ATOM     72  O   UNL     1      25.132  34.428  12.012  1.00  0.00    -0.464 OA
BRANCH  72  73
ATOM     73  C   UNL     1      24.873  33.619  13.115  1.00  0.00     0.302 C 
ATOM     74  O   UNL     1      24.447  32.458  12.906  1.00  0.00    -0.253 OA
ATOM     75  C   UNL     1      25.087  34.090  14.523  1.00  0.00     0.139 C 
ENDBRANCH  72  73
ENDBRANCH  71  72
ENDBRANCH  70  71
ENDBRANCH  68  70
ENDBRANCH  64  65
ENDBRANCH  63  64
ENDBRANCH  60  63
ENDBRANCH  58  59
ENDBRANCH  55  58
ENDBRANCH   1  55
TORSDOF 33
BEGIN_RES LYS A 131
REMARK  4 active torsions:
REMARK  status: ('A' for Active; 'I' for Inactive)
REMARK    1  A    between atoms: CA   and  CB  
REMARK    2  A    between atoms: CB   and  CG  
REMARK    3  A    between atoms: CG   and  CD  
REMARK    4  A    between atoms: CD   and  CE  
ROOT
ATOM      1  CA  LYS A 131      29.867  25.555  16.977  1.00 20.52     0.186 C 
ENDROOT
BRANCH   1   2
ATOM      2  CB  LYS A 131      28.345  25.722  17.026  1.00 20.94     0.034 C 
BRANCH   2   3
ATOM      3  CG  LYS A 131      27.602  24.399  16.928  1.00 22.96     0.005 C 
BRANCH   3   4
ATOM      4  CD  LYS A 131      26.150  24.535  17.295  1.00 24.33     0.041 C 
BRANCH   4   5
ATOM      5  CE  LYS A 131      25.963  24.187  18.768  1.00 26.91     0.338 C 
ATOM      6  NZ  LYS A 131      25.228  22.908  18.910  1.00 27.40     0.618 N 
ENDBRANCH   4   5
ENDBRANCH   3   4
ENDBRANCH   2   3
ENDBRANCH   1   2
END_RES LYS A 131
BEGIN_RES LYS A 135
REMARK  4 active torsions:
REMARK  status: ('A' for Active; 'I' for Inactive)
REMARK    5  A    between atoms: CA   and  CB  
REMARK    6  A    between atoms: CB   and  CG  
REMARK    7  A    between atoms: CG   and  CD  
REMARK    8  A    between atoms: CD   and  CE  
ROOT
ATOM      7  CA  LYS A 135      33.193  34.663   9.290  1.00 25.02     0.186 C 
ENDROOT
BRANCH   7   8
ATOM      8  CB  LYS A 135      32.060  35.360  10.034  1.00 26.63     0.034 C 
BRANCH   8   9
ATOM      9  CG  LYS A 135      30.720  34.695   9.851  1.00 29.45     0.005 C 
BRANCH   9  10
ATOM     10  CD  LYS A 135      29.829  34.941  11.059  1.00 32.00     0.041 C 
BRANCH  10  11
ATOM     11  CE  LYS A 135      30.635  34.856  12.341  1.00 34.25     0.338 C 
ATOM     12  NZ  LYS A 135      29.876  35.424  13.490  1.00 35.99     0.618 N 
ENDBRANCH  10  11
ENDBRANCH   9  10
ENDBRANCH   8   9
ENDBRANCH   7   8
END_RES LYS A 135
