REMARK VINA RESULT:    -4.781      2.668      7.242
REMARK INTER + INTRA:         -22.966
REMARK INTER:                 -12.257
REMARK INTRA:                 -10.709
REMARK UNBOUND:               -11.198
REMARK SMILES CC(=O)N[C@@H]1[C@@H](O)C[C@](OC[C@H]2O[C@@H](O[C@H]3[C@H](O)[C@@H](O)[C@H](OCCN=[N+]=[N-])O[C@@H]3CO)[C@H](O)[C@@H](O)[C@H]2O)(C(=O)O)O[C@H]1C(O)[C@H](O)CNC(=O)OCc1cn(C23CC4CC(CC(C4)C2)C3)nn1
REMARK SMILES IDX 9 1 8 2 6 3 5 4 42 5 41 6 10 7 11 8 12 9 14 10 13 11 32 12
REMARK SMILES IDX 34 13 36 14 15 15 16 16 29 17 28 18 21 19 17 20 19 21 30 22
REMARK SMILES IDX 31 23 22 25 23 26 24 27 25 28 26 29 27 30 18 31 20 33 33 35
REMARK SMILES IDX 35 37 37 39 38 41 39 42 40 43 7 45 43 47 44 48 45 50 46 51
REMARK SMILES IDX 47 53 48 54 49 55 50 57 51 58 52 59 53 60 54 61 67 62 55 63
REMARK SMILES IDX 66 64 56 65 65 66 64 67 57 68 60 69 62 70 58 71 59 72 61 73
REMARK SMILES IDX 63 74 4 75 2 76 1 78 3 79
REMARK H PARENT 31 24 18 32 20 34 33 36 35 38 37 40 40 44 7 46 44 49 46 52
REMARK H PARENT 48 56 4 77
REMARK Flexibility Score: inf
ROOT
ATOM      1  C   UNL     1      27.654  38.316   7.424  1.00  0.00     0.272 C 
ATOM      2  C   UNL     1      28.944  37.588   7.578  1.00  0.00     0.113 C 
ATOM      3  C   UNL     1      29.764  38.183   8.705  1.00  0.00     0.145 C 
ATOM      4  C   UNL     1      30.291  39.515   8.153  1.00  0.00     0.142 C 
ATOM      5  C   UNL     1      29.111  40.173   7.504  1.00  0.00     0.178 C 
ATOM      6  O   UNL     1      27.884  39.671   7.859  1.00  0.00    -0.332 OA
ENDROOT
BRANCH   1   7
ATOM      7  O   UNL     1      26.624  37.914   8.156  1.00  0.00    -0.338 OA
BRANCH   7   8
ATOM      8  C   UNL     1      26.097  36.725   8.298  1.00  0.00     0.199 C 
BRANCH   8   9
ATOM      9  C   UNL     1      24.766  36.471   8.924  1.00  0.00     0.179 C 
ATOM     10  C   UNL     1      23.471  36.716  10.743  1.00  0.00     0.282 C 
ATOM     11  O   UNL     1      24.757  37.025  10.255  1.00  0.00    -0.341 OA
ATOM     12  C   UNL     1      22.600  37.858  10.334  1.00  0.00     0.202 C 
ATOM     13  C   UNL     1      23.050  38.301   8.955  1.00  0.00     0.179 C 
ATOM     14  C   UNL     1      23.634  37.155   8.164  1.00  0.00     0.177 C 
BRANCH  10  15
ATOM     15  O   UNL     1      23.503  36.472  12.112  1.00  0.00    -0.341 OA
BRANCH  15  16
ATOM     16  C   UNL     1      23.760  35.152  12.335  1.00  0.00     0.184 C 
ATOM     17  C   UNL     1      22.672  34.334  12.930  1.00  0.00     0.178 C 
ATOM     18  O   UNL     1      23.002  32.986  12.656  1.00  0.00    -0.341 OA
ATOM     19  C   UNL     1      24.105  32.572  13.439  1.00  0.00     0.281 C 
ATOM     20  C   UNL     1      24.965  34.947  13.259  1.00  0.00     0.180 C 
ATOM     21  C   UNL     1      25.271  33.490  13.285  1.00  0.00     0.202 C 
BRANCH  17  22
ATOM     22  C   UNL     1      21.287  34.650  12.507  1.00  0.00     0.191 C 
BRANCH  22  23
ATOM     23  O   UNL     1      21.221  34.487  11.114  1.00  0.00    -0.394 OA
ATOM     24  H   UNL     1      20.771  35.256  10.677  1.00  0.00     0.210 HD
ENDBRANCH  22  23
ENDBRANCH  17  22
BRANCH  19  25
ATOM     25  O   UNL     1      24.447  31.336  12.938  1.00  0.00    -0.350 OA
BRANCH  25  26
ATOM     26  C   UNL     1      24.299  30.281  13.761  1.00  0.00     0.169 C 
BRANCH  26  27
ATOM     27  C   UNL     1      23.471  29.187  13.165  1.00  0.00     0.119 C 
BRANCH  27  28
ATOM     28  N   UNL     1      22.042  29.460  13.366  1.00  0.00    -0.092 NA
ATOM     29  N   UNL     1      21.251  28.903  12.616  1.00  0.00     0.001 N 
ATOM     30  N   UNL     1      20.334  28.644  11.808  1.00  0.00    -0.003 NA
ENDBRANCH  27  28
ENDBRANCH  26  27
ENDBRANCH  25  26
ENDBRANCH  19  25
BRANCH  20  31
ATOM     31  O   UNL     1      26.086  35.631  12.789  1.00  0.00    -0.387 OA
ATOM     32  H   UNL     1      26.891  35.232  13.186  1.00  0.00     0.211 HD
ENDBRANCH  20  31
BRANCH  21  33
ATOM     33  O   UNL     1      26.157  33.278  14.339  1.00  0.00    -0.385 OA
ATOM     34  H   UNL     1      26.399  32.334  14.406  1.00  0.00     0.211 HD
ENDBRANCH  21  33
ENDBRANCH  15  16
ENDBRANCH  10  15
BRANCH  12  35
ATOM     35  O   UNL     1      21.249  37.623  10.385  1.00  0.00    -0.385 OA
ATOM     36  H   UNL     1      20.816  37.920   9.549  1.00  0.00     0.211 HD
ENDBRANCH  12  35
BRANCH  13  37
ATOM     37  O   UNL     1      23.920  39.384   9.000  1.00  0.00    -0.387 OA
ATOM     38  H   UNL     1      24.305  39.531   8.077  1.00  0.00     0.211 HD
ENDBRANCH  13  37
BRANCH  14  39
ATOM     39  O   UNL     1      24.167  37.674   6.992  1.00  0.00    -0.387 OA
ATOM     40  H   UNL     1      23.616  37.437   6.201  1.00  0.00     0.211 HD
ENDBRANCH  14  39
ENDBRANCH   8   9
ENDBRANCH   7   8
ENDBRANCH   1   7
BRANCH   1  41
ATOM     41  C   UNL     1      27.349  38.503   5.995  1.00  0.00     0.364 C 
ATOM     42  O   UNL     1      27.941  37.980   5.043  1.00  0.00    -0.246 OA
BRANCH  41  43
ATOM     43  O   UNL     1      26.261  39.384   5.723  1.00  0.00    -0.477 OA
ATOM     44  H   UNL     1      25.485  39.385   6.351  1.00  0.00     0.296 HD
ENDBRANCH  41  43
ENDBRANCH   1  41
BRANCH   3  45
ATOM     45  O   UNL     1      28.930  38.483   9.774  1.00  0.00    -0.391 OA
ATOM     46  H   UNL     1      29.257  37.968  10.555  1.00  0.00     0.211 HD
ENDBRANCH   3  45
BRANCH   5  47
ATOM     47  C   UNL     1      29.017  41.687   7.931  1.00  0.00     0.176 C 
BRANCH  47  48
ATOM     48  O   UNL     1      30.013  41.740   8.927  1.00  0.00    -0.388 OA
ATOM     49  H   UNL     1      30.583  42.510   8.683  1.00  0.00     0.211 HD
ENDBRANCH  47  48
BRANCH  47  50
ATOM     50  C   UNL     1      27.707  41.966   8.518  1.00  0.00     0.165 C 
BRANCH  50  51
ATOM     51  O   UNL     1      26.920  42.906   7.827  1.00  0.00    -0.388 OA
ATOM     52  H   UNL     1      26.394  43.439   8.495  1.00  0.00     0.211 HD
ENDBRANCH  50  51
BRANCH  50  53
ATOM     53  C   UNL     1      27.645  42.269   9.966  1.00  0.00     0.154 C 
BRANCH  53  54
ATOM     54  N   UNL     1      27.632  41.135  10.815  1.00  0.00    -0.319 N 
ATOM     55  C   UNL     1      26.527  40.395  11.257  1.00  0.00     0.407 C 
ATOM     56  H   UNL     1      28.619  40.807  11.165  1.00  0.00     0.167 HD
ATOM     57  O   UNL     1      25.372  40.709  10.926  1.00  0.00    -0.225 OA
BRANCH  55  58
ATOM     58  O   UNL     1      26.753  39.274  12.092  1.00  0.00    -0.443 OA
BRANCH  58  59
ATOM     59  C   UNL     1      27.749  39.380  13.077  1.00  0.00     0.294 C 
BRANCH  59  60
ATOM     60  C   UNL     1      28.490  38.113  13.169  1.00  0.00     0.120 A 
ATOM     61  C   UNL     1      29.377  37.781  14.160  1.00  0.00     0.138 A 
ATOM     62  N   UNL     1      28.448  37.060  12.332  1.00  0.00    -0.132 NA
ATOM     63  N   UNL     1      29.838  36.556  13.896  1.00  0.00    -0.246 N 
ATOM     64  N   UNL     1      29.259  36.145  12.784  1.00  0.00    -0.066 NA
BRANCH  63  65
ATOM     65  C   UNL     1      30.801  35.869  14.733  1.00  0.00     0.065 C 
ATOM     66  C   UNL     1      31.623  34.961  13.873  1.00  0.00     0.034 C 
ATOM     67  C   UNL     1      31.632  36.875  15.503  1.00  0.00     0.034 C 
ATOM     68  C   UNL     1      30.072  35.017  15.756  1.00  0.00     0.034 C 
ATOM     69  C   UNL     1      32.664  34.249  14.699  1.00  0.00    -0.008 C 
ATOM     70  C   UNL     1      32.701  36.151  16.266  1.00  0.00    -0.008 C 
ATOM     71  C   UNL     1      31.118  34.329  16.602  1.00  0.00    -0.008 C 
ATOM     72  C   UNL     1      31.968  33.425  15.754  1.00  0.00     0.007 C 
ATOM     73  C   UNL     1      33.531  35.300  15.354  1.00  0.00     0.007 C 
ATOM     74  C   UNL     1      32.017  35.295  17.322  1.00  0.00     0.007 C 
ENDBRANCH  63  65
ENDBRANCH  59  60
ENDBRANCH  58  59
ENDBRANCH  55  58
ENDBRANCH  53  54
ENDBRANCH  50  53
ENDBRANCH  47  50
ENDBRANCH   5  47
BRANCH   4  75
ATOM     75  N   UNL     1      31.313  39.207   7.146  1.00  0.00    -0.348 N 
ATOM     76  C   UNL     1      32.470  40.021   6.997  1.00  0.00     0.217 C 
ATOM     77  H   UNL     1      31.197  38.375   6.515  1.00  0.00     0.163 HD
ATOM     78  C   UNL     1      33.505  39.692   5.951  1.00  0.00     0.114 C 
ATOM     79  O   UNL     1      32.601  41.008   7.753  1.00  0.00    -0.275 OA
ENDBRANCH   4  75
TORSDOF 30
BEGIN_RES LYS A 131
REMARK  4 active torsions:
REMARK  status: ('A' for Active; 'I' for Inactive)
REMARK    1  A    between atoms: CA   and  CB  
REMARK    2  A    between atoms: CB   and  CG  
REMARK    3  A    between atoms: CG   and  CD  
REMARK    4  A    between atoms: CD   and  CE  
ROOT
ATOM      1  CA  LYS A 131      29.867  25.555  16.977  1.00 20.52     0.186 C 
ENDROOT
BRANCH   1   2
ATOM      2  CB  LYS A 131      28.345  25.722  17.026  1.00 20.94     0.034 C 
BRANCH   2   3
ATOM      3  CG  LYS A 131      27.599  24.468  16.598  1.00 22.96     0.005 C 
BRANCH   3   4
ATOM      4  CD  LYS A 131      27.008  23.733  17.769  1.00 24.33     0.041 C 
BRANCH   4   5
ATOM      5  CE  LYS A 131      25.487  23.839  17.722  1.00 26.91     0.338 C 
ATOM      6  NZ  LYS A 131      24.878  22.499  17.555  1.00 27.40     0.618 N 
ENDBRANCH   4   5
ENDBRANCH   3   4
ENDBRANCH   2   3
ENDBRANCH   1   2
END_RES LYS A 131
BEGIN_RES LYS A 135
REMARK  4 active torsions:
REMARK  status: ('A' for Active; 'I' for Inactive)
REMARK    5  A    between atoms: CA   and  CB  
REMARK    6  A    between atoms: CB   and  CG  
REMARK    7  A    between atoms: CG   and  CD  
REMARK    8  A    between atoms: CD   and  CE  
ROOT
ATOM      7  CA  LYS A 135      33.193  34.663   9.290  1.00 25.02     0.186 C 
ENDROOT
BRANCH   7   8
ATOM      8  CB  LYS A 135      32.060  35.360  10.034  1.00 26.63     0.034 C 
BRANCH   8   9
ATOM      9  CG  LYS A 135      30.778  34.568  10.057  1.00 29.45     0.005 C 
BRANCH   9  10
ATOM     10  CD  LYS A 135      30.206  34.431   8.655  1.00 32.00     0.041 C 
BRANCH  10  11
ATOM     11  CE  LYS A 135      28.727  34.104   8.712  1.00 34.25     0.338 C 
ATOM     12  NZ  LYS A 135      28.225  34.132  10.114  1.00 35.99     0.618 N 
ENDBRANCH  10  11
ENDBRANCH   9  10
ENDBRANCH   8   9
ENDBRANCH   7   8
END_RES LYS A 135
