REMARK VINA RESULT:    -4.677      3.695      9.088
REMARK INTER + INTRA:         -22.456
REMARK INTER:                  -9.400
REMARK INTRA:                 -13.056
REMARK UNBOUND:               -10.943
REMARK SMILES CC(=O)N[C@@H]1[C@@H](O)C[C@](OC[C@H]2O[C@@H](O[C@H]3[C@H](O)[C@@H](O)[C@H](OCCN=[N+]=[N-])O[C@@H]3CO)[C@H](O)[C@@H](O)[C@H]2O)(C(=O)O)O[C@H]1C(O)[C@H](O)CNC(=O)OCc1cn([C@@H]2C[C@H]3CC[C@@H](C2)N3C)nn1
REMARK SMILES IDX 9 1 8 2 6 3 5 4 42 5 41 6 10 7 11 8 12 9 14 10 13 11 32 12
REMARK SMILES IDX 34 13 36 14 15 15 16 16 29 17 28 18 21 19 17 20 19 21 30 22
REMARK SMILES IDX 31 23 22 25 23 26 24 27 25 28 26 29 27 30 18 31 20 33 33 35
REMARK SMILES IDX 35 37 37 39 38 41 39 42 40 43 7 45 43 47 44 48 45 50 46 51
REMARK SMILES IDX 47 53 48 54 49 55 50 57 51 58 52 59 53 60 54 61 66 62 55 63
REMARK SMILES IDX 65 64 56 65 62 66 57 67 61 68 58 69 63 70 60 71 59 72 64 73
REMARK SMILES IDX 4 74 2 75 1 77 3 78
REMARK H PARENT 31 24 18 32 20 34 33 36 35 38 37 40 40 44 7 46 44 49 46 52
REMARK H PARENT 48 56 4 76
REMARK Flexibility Score: inf
ROOT
ATOM      1  C   UNL     1      29.408  31.816  16.378  1.00  0.00     0.272 C 
ATOM      2  C   UNL     1      30.401  31.314  17.349  1.00  0.00     0.113 C 
ATOM      3  C   UNL     1      30.236  31.964  18.715  1.00  0.00     0.145 C 
ATOM      4  C   UNL     1      30.251  33.502  18.551  1.00  0.00     0.142 C 
ATOM      5  C   UNL     1      29.464  33.928  17.377  1.00  0.00     0.178 C 
ATOM      6  O   UNL     1      28.669  32.874  16.976  1.00  0.00    -0.332 OA
ENDROOT
BRANCH   1   7
ATOM      7  O   UNL     1      28.544  30.996  15.747  1.00  0.00    -0.338 OA
BRANCH   7   8
ATOM      8  C   UNL     1      28.331  29.725  15.859  1.00  0.00     0.199 C 
BRANCH   8   9
ATOM      9  C   UNL     1      26.915  29.276  16.187  1.00  0.00     0.179 C 
ATOM     10  C   UNL     1      26.447  28.261  18.255  1.00  0.00     0.282 C 
ATOM     11  O   UNL     1      27.023  28.155  17.023  1.00  0.00    -0.341 OA
ATOM     12  C   UNL     1      25.003  28.637  18.225  1.00  0.00     0.202 C 
ATOM     13  C   UNL     1      24.856  29.874  17.410  1.00  0.00     0.179 C 
ATOM     14  C   UNL     1      26.129  30.376  16.825  1.00  0.00     0.177 C 
BRANCH  10  15
ATOM     15  O   UNL     1      27.202  28.984  19.162  1.00  0.00    -0.341 OA
BRANCH  15  16
ATOM     16  C   UNL     1      27.198  28.474  20.444  1.00  0.00     0.184 C 
ATOM     17  C   UNL     1      26.958  29.517  21.462  1.00  0.00     0.178 C 
ATOM     18  O   UNL     1      26.790  28.978  22.742  1.00  0.00    -0.341 OA
ATOM     19  C   UNL     1      27.210  27.651  22.841  1.00  0.00     0.281 C 
ATOM     20  C   UNL     1      28.638  27.948  20.767  1.00  0.00     0.180 C 
ATOM     21  C   UNL     1      28.524  27.372  22.141  1.00  0.00     0.202 C 
BRANCH  17  22
ATOM     22  C   UNL     1      25.886  30.512  21.188  1.00  0.00     0.191 C 
BRANCH  22  23
ATOM     23  O   UNL     1      26.379  31.562  20.418  1.00  0.00    -0.394 OA
ATOM     24  H   UNL     1      25.910  32.394  20.674  1.00  0.00     0.210 HD
ENDBRANCH  22  23
ENDBRANCH  17  22
BRANCH  19  25
ATOM     25  O   UNL     1      26.212  26.763  22.553  1.00  0.00    -0.350 OA
BRANCH  25  26
ATOM     26  C   UNL     1      25.170  26.618  23.399  1.00  0.00     0.169 C 
BRANCH  26  27
ATOM     27  C   UNL     1      23.860  27.100  22.894  1.00  0.00     0.119 C 
BRANCH  27  28
ATOM     28  N   UNL     1      23.803  27.390  21.503  1.00  0.00    -0.092 NA
ATOM     29  N   UNL     1      22.919  26.971  20.749  1.00  0.00     0.001 N 
ATOM     30  N   UNL     1      22.473  26.377  19.762  1.00  0.00    -0.003 NA
ENDBRANCH  27  28
ENDBRANCH  26  27
ENDBRANCH  25  26
ENDBRANCH  19  25
BRANCH  20  31
ATOM     31  O   UNL     1      29.018  26.974  19.879  1.00  0.00    -0.387 OA
ATOM     32  H   UNL     1      29.169  27.363  18.976  1.00  0.00     0.211 HD
ENDBRANCH  20  31
BRANCH  21  33
ATOM     33  O   UNL     1      29.565  27.830  22.954  1.00  0.00    -0.385 OA
ATOM     34  H   UNL     1      29.196  28.434  23.615  1.00  0.00     0.211 HD
ENDBRANCH  21  33
ENDBRANCH  15  16
ENDBRANCH  10  15
BRANCH  12  35
ATOM     35  O   UNL     1      24.263  27.588  17.640  1.00  0.00    -0.385 OA
ATOM     36  H   UNL     1      24.915  26.912  17.317  1.00  0.00     0.211 HD
ENDBRANCH  12  35
BRANCH  13  37
ATOM     37  O   UNL     1      24.280  30.915  18.176  1.00  0.00    -0.387 OA
ATOM     38  H   UNL     1      24.963  31.326  18.759  1.00  0.00     0.211 HD
ENDBRANCH  13  37
BRANCH  14  39
ATOM     39  O   UNL     1      26.844  31.102  17.786  1.00  0.00    -0.387 OA
ATOM     40  H   UNL     1      26.293  31.062  18.620  1.00  0.00     0.211 HD
ENDBRANCH  14  39
ENDBRANCH   8   9
ENDBRANCH   7   8
ENDBRANCH   1   7
BRANCH   1  41
ATOM     41  C   UNL     1      30.181  32.459  15.244  1.00  0.00     0.364 C 
ATOM     42  O   UNL     1      29.704  33.262  14.426  1.00  0.00    -0.246 OA
BRANCH  41  43
ATOM     43  O   UNL     1      31.534  32.151  15.072  1.00  0.00    -0.477 OA
ATOM     44  H   UNL     1      31.814  31.400  14.430  1.00  0.00     0.296 HD
ENDBRANCH  41  43
ENDBRANCH   1  41
BRANCH   3  45
ATOM     45  O   UNL     1      29.137  31.531  19.422  1.00  0.00    -0.391 OA
ATOM     46  H   UNL     1      29.193  31.911  20.350  1.00  0.00     0.211 HD
ENDBRANCH   3  45
BRANCH   5  47
ATOM     47  C   UNL     1      28.374  34.986  17.791  1.00  0.00     0.176 C 
BRANCH  47  48
ATOM     48  O   UNL     1      29.175  36.030  18.425  1.00  0.00    -0.388 OA
ATOM     49  H   UNL     1      29.625  36.502  17.660  1.00  0.00     0.211 HD
ENDBRANCH  47  48
BRANCH  47  50
ATOM     50  C   UNL     1      27.526  34.513  18.924  1.00  0.00     0.165 C 
BRANCH  50  51
ATOM     51  O   UNL     1      26.407  33.863  18.456  1.00  0.00    -0.388 OA
ATOM     52  H   UNL     1      26.015  33.204  19.052  1.00  0.00     0.211 HD
ENDBRANCH  50  51
BRANCH  50  53
ATOM     53  C   UNL     1      27.260  35.505  19.993  1.00  0.00     0.154 C 
BRANCH  53  54
ATOM     54  N   UNL     1      28.234  35.369  21.077  1.00  0.00    -0.319 N 
ATOM     55  C   UNL     1      27.980  34.545  22.179  1.00  0.00     0.407 C 
ATOM     56  H   UNL     1      29.115  35.897  21.001  1.00  0.00     0.167 HD
ATOM     57  O   UNL     1      26.883  33.914  22.225  1.00  0.00    -0.225 OA
BRANCH  55  58
ATOM     58  O   UNL     1      28.878  34.387  23.229  1.00  0.00    -0.443 OA
BRANCH  58  59
ATOM     59  C   UNL     1      28.995  33.140  23.902  1.00  0.00     0.294 C 
BRANCH  59  60
ATOM     60  C   UNL     1      29.869  32.222  23.108  1.00  0.00     0.120 A 
ATOM     61  C   UNL     1      31.178  32.436  22.729  1.00  0.00     0.138 A 
ATOM     62  N   UNL     1      29.545  31.030  22.617  1.00  0.00    -0.132 NA
ATOM     63  N   UNL     1      31.613  31.382  22.024  1.00  0.00    -0.249 N 
ATOM     64  N   UNL     1      30.571  30.532  21.976  1.00  0.00    -0.067 NA
BRANCH  63  65
ATOM     65  C   UNL     1      32.895  31.125  21.413  1.00  0.00     0.112 C 
ATOM     66  C   UNL     1      34.051  31.729  22.155  1.00  0.00     0.046 C 
ATOM     67  C   UNL     1      33.123  29.606  21.424  1.00  0.00     0.046 C 
ATOM     68  C   UNL     1      34.280  31.013  23.460  1.00  0.00     0.058 C 
ATOM     69  C   UNL     1      33.195  29.112  22.856  1.00  0.00     0.058 C 
ATOM     70  N   UNL     1      33.072  30.251  23.748  1.00  0.00    -0.300 NA
ATOM     71  C   UNL     1      35.342  29.951  23.347  1.00  0.00     0.021 C 
ATOM     72  C   UNL     1      34.606  28.652  23.168  1.00  0.00     0.021 C 
ATOM     73  C   UNL     1      33.109  29.873  25.128  1.00  0.00     0.105 C 
ENDBRANCH  63  65
ENDBRANCH  59  60
ENDBRANCH  58  59
ENDBRANCH  55  58
ENDBRANCH  53  54
ENDBRANCH  50  53
ENDBRANCH  47  50
ENDBRANCH   5  47
BRANCH   4  74
ATOM     74  N   UNL     1      31.661  33.914  18.555  1.00  0.00    -0.348 N 
ATOM     75  C   UNL     1      32.173  34.778  19.596  1.00  0.00     0.217 C 
ATOM     76  H   UNL     1      32.358  33.629  17.842  1.00  0.00     0.163 HD
ATOM     77  C   UNL     1      33.563  35.234  19.672  1.00  0.00     0.114 C 
ATOM     78  O   UNL     1      31.355  35.138  20.469  1.00  0.00    -0.275 OA
ENDBRANCH   4  74
TORSDOF 30
BEGIN_RES LYS A 131
REMARK  4 active torsions:
REMARK  status: ('A' for Active; 'I' for Inactive)
REMARK    1  A    between atoms: CA   and  CB  
REMARK    2  A    between atoms: CB   and  CG  
REMARK    3  A    between atoms: CG   and  CD  
REMARK    4  A    between atoms: CD   and  CE  
ROOT
ATOM      1  CA  LYS A 131      29.867  25.555  16.977  1.00 20.52     0.186 C 
ENDROOT
BRANCH   1   2
ATOM      2  CB  LYS A 131      28.345  25.722  17.026  1.00 20.94     0.034 C 
BRANCH   2   3
ATOM      3  CG  LYS A 131      27.602  24.399  16.918  1.00 22.96     0.005 C 
BRANCH   3   4
ATOM      4  CD  LYS A 131      26.144  24.540  17.257  1.00 24.33     0.041 C 
BRANCH   4   5
ATOM      5  CE  LYS A 131      25.883  23.949  18.639  1.00 26.91     0.338 C 
ATOM      6  NZ  LYS A 131      25.744  25.027  19.647  1.00 27.40     0.618 N 
ENDBRANCH   4   5
ENDBRANCH   3   4
ENDBRANCH   2   3
ENDBRANCH   1   2
END_RES LYS A 131
BEGIN_RES LYS A 135
REMARK  4 active torsions:
REMARK  status: ('A' for Active; 'I' for Inactive)
REMARK    5  A    between atoms: CA   and  CB  
REMARK    6  A    between atoms: CB   and  CG  
REMARK    7  A    between atoms: CG   and  CD  
REMARK    8  A    between atoms: CD   and  CE  
ROOT
ATOM      7  CA  LYS A 135      33.193  34.663   9.290  1.00 25.02     0.186 C 
ENDROOT
BRANCH   7   8
ATOM      8  CB  LYS A 135      32.060  35.360  10.034  1.00 26.63     0.034 C 
BRANCH   8   9
ATOM      9  CG  LYS A 135      30.710  34.732   9.801  1.00 29.45     0.005 C 
BRANCH   9  10
ATOM     10  CD  LYS A 135      30.391  34.682   8.315  1.00 32.00     0.041 C 
BRANCH  10  11
ATOM     11  CE  LYS A 135      28.891  34.727   8.090  1.00 34.25     0.338 C 
ATOM     12  NZ  LYS A 135      28.326  36.042   8.502  1.00 35.99     0.618 N 
ENDBRANCH  10  11
ENDBRANCH   9  10
ENDBRANCH   8   9
ENDBRANCH   7   8
END_RES LYS A 135
