REMARK VINA RESULT:    -4.867      5.118     11.467
REMARK INTER + INTRA:         -23.856
REMARK INTER:                 -12.961
REMARK INTRA:                 -10.895
REMARK UNBOUND:               -10.737
REMARK SMILES CC(=O)N[C@@H]1[C@@H](O)C[C@](OC[C@H]2O[C@@H](O[C@H]3[C@H](O)[C@@H](O)[C@H](OCCN=[N+]=[N-])O[C@@H]3CO)[C@H](O)[C@@H](O)[C@H]2O)(C(=O)O)O[C@H]1C(O)[C@H](O)CNC(=O)OCc1cn(CCNC(=O)NCc2ccco2)nn1
REMARK SMILES IDX 43 1 42 2 9 3 8 4 41 5 6 6 5 7 10 8 11 9 12 10 14 11 13 12
REMARK SMILES IDX 32 13 34 14 36 15 15 16 16 17 29 18 28 19 21 20 17 21 19 22
REMARK SMILES IDX 30 23 31 24 22 26 23 27 24 28 25 29 26 30 27 31 18 32 20 34
REMARK SMILES IDX 33 36 35 38 37 40 38 42 39 43 40 44 7 46 4 48 2 49 1 51 3 52
REMARK SMILES IDX 44 53 45 55 46 56 47 58 48 59 49 60 50 62 51 63 52 64 53 65
REMARK SMILES IDX 54 66 69 67 55 68 68 69 56 70 57 71 58 72 59 73 60 75 61 76
REMARK SMILES IDX 62 78 63 79 64 80 67 81 65 82 66 83
REMARK H PARENT 31 25 18 33 20 35 33 37 35 39 37 41 40 45 7 47 4 50 44 54
REMARK H PARENT 46 57 48 61 58 74 61 77
REMARK Flexibility Score: inf
ROOT
ATOM      1  C   UNL     1      29.025  38.791   6.893  1.00  0.00     0.176 C 
ENDROOT
BRANCH   1   2
ATOM      2  C   UNL     1      30.378  38.531   7.474  1.00  0.00     0.178 C 
ATOM      3  C   UNL     1      30.180  38.690   9.838  1.00  0.00     0.272 C 
ATOM      4  C   UNL     1      30.247  40.218   9.517  1.00  0.00     0.113 C 
ATOM      5  O   UNL     1      30.351  37.967   8.713  1.00  0.00    -0.332 OA
ATOM      6  C   UNL     1      31.289  40.548   8.524  1.00  0.00     0.145 C 
ATOM      7  C   UNL     1      31.371  39.627   7.331  1.00  0.00     0.142 C 
BRANCH   3   8
ATOM      8  O   UNL     1      28.884  38.515  10.275  1.00  0.00    -0.338 OA
BRANCH   8   9
ATOM      9  C   UNL     1      28.239  37.368  10.078  1.00  0.00     0.199 C 
BRANCH   9  10
ATOM     10  C   UNL     1      27.275  36.737  10.957  1.00  0.00     0.179 C 
ATOM     11  C   UNL     1      26.620  36.103  13.062  1.00  0.00     0.282 C 
ATOM     12  O   UNL     1      27.436  36.953  12.315  1.00  0.00    -0.341 OA
ATOM     13  C   UNL     1      25.447  35.555  12.337  1.00  0.00     0.202 C 
ATOM     14  C   UNL     1      24.866  36.432  11.266  1.00  0.00     0.179 C 
ATOM     15  C   UNL     1      25.889  37.330  10.635  1.00  0.00     0.177 C 
BRANCH  11  16
ATOM     16  O   UNL     1      26.200  36.687  14.246  1.00  0.00    -0.341 OA
BRANCH  16  17
ATOM     17  C   UNL     1      26.691  36.018  15.385  1.00  0.00     0.184 C 
ATOM     18  C   UNL     1      28.075  35.538  15.059  1.00  0.00     0.178 C 
ATOM     19  O   UNL     1      28.375  34.329  15.680  1.00  0.00    -0.341 OA
ATOM     20  C   UNL     1      27.550  33.372  15.102  1.00  0.00     0.281 C 
ATOM     21  C   UNL     1      25.709  34.953  15.743  1.00  0.00     0.180 C 
ATOM     22  C   UNL     1      26.158  33.547  15.608  1.00  0.00     0.202 C 
BRANCH  18  23
ATOM     23  C   UNL     1      29.071  36.557  15.613  1.00  0.00     0.191 C 
BRANCH  23  24
ATOM     24  O   UNL     1      30.332  35.923  15.643  1.00  0.00    -0.394 OA
ATOM     25  H   UNL     1      30.244  35.230  16.361  1.00  0.00     0.210 HD
ENDBRANCH  23  24
ENDBRANCH  18  23
BRANCH  20  26
ATOM     26  O   UNL     1      28.011  32.134  15.556  1.00  0.00    -0.350 OA
BRANCH  26  27
ATOM     27  C   UNL     1      28.206  32.136  16.937  1.00  0.00     0.169 C 
BRANCH  27  28
ATOM     28  C   UNL     1      29.553  31.451  17.185  1.00  0.00     0.119 C 
BRANCH  28  29
ATOM     29  N   UNL     1      30.532  32.512  17.339  1.00  0.00    -0.092 NA
ATOM     30  N   UNL     1      31.334  32.774  16.431  1.00  0.00     0.001 N 
ATOM     31  N   UNL     1      31.900  33.215  15.416  1.00  0.00    -0.003 NA
ENDBRANCH  28  29
ENDBRANCH  27  28
ENDBRANCH  26  27
ENDBRANCH  20  26
BRANCH  21  32
ATOM     32  O   UNL     1      25.291  35.201  17.066  1.00  0.00    -0.387 OA
ATOM     33  H   UNL     1      24.584  34.593  17.350  1.00  0.00     0.211 HD
ENDBRANCH  21  32
BRANCH  22  34
ATOM     34  O   UNL     1      25.316  32.905  14.664  1.00  0.00    -0.385 OA
ATOM     35  H   UNL     1      25.686  31.974  14.578  1.00  0.00     0.211 HD
ENDBRANCH  22  34
ENDBRANCH  16  17
ENDBRANCH  11  16
BRANCH  13  36
ATOM     36  O   UNL     1      25.647  34.242  11.890  1.00  0.00    -0.385 OA
ATOM     37  H   UNL     1      26.030  34.215  10.985  1.00  0.00     0.211 HD
ENDBRANCH  13  36
BRANCH  14  38
ATOM     38  O   UNL     1      23.777  37.178  11.736  1.00  0.00    -0.387 OA
ATOM     39  H   UNL     1      22.970  36.699  11.399  1.00  0.00     0.211 HD
ENDBRANCH  14  38
BRANCH  15  40
ATOM     40  O   UNL     1      25.804  38.643  11.033  1.00  0.00    -0.387 OA
ATOM     41  H   UNL     1      24.872  38.841  11.239  1.00  0.00     0.211 HD
ENDBRANCH  15  40
ENDBRANCH   9  10
ENDBRANCH   8   9
ENDBRANCH   3   8
BRANCH   3  42
ATOM     42  C   UNL     1      31.146  38.530  10.922  1.00  0.00     0.364 C 
ATOM     43  O   UNL     1      32.140  37.800  10.803  1.00  0.00    -0.246 OA
BRANCH  42  44
ATOM     44  O   UNL     1      31.029  39.175  12.158  1.00  0.00    -0.477 OA
ATOM     45  H   UNL     1      30.450  40.014  12.225  1.00  0.00     0.296 HD
ENDBRANCH  42  44
ENDBRANCH   3  42
BRANCH   6  46
ATOM     46  O   UNL     1      31.037  41.854   8.065  1.00  0.00    -0.391 OA
ATOM     47  H   UNL     1      31.748  42.114   7.427  1.00  0.00     0.211 HD
ENDBRANCH   6  46
BRANCH   7  48
ATOM     48  N   UNL     1      32.735  39.108   7.237  1.00  0.00    -0.348 N 
ATOM     49  C   UNL     1      33.738  39.812   6.557  1.00  0.00     0.217 C 
ATOM     50  H   UNL     1      32.943  38.194   7.695  1.00  0.00     0.163 HD
ATOM     51  C   UNL     1      35.145  39.324   6.433  1.00  0.00     0.114 C 
ATOM     52  O   UNL     1      33.414  40.921   6.024  1.00  0.00    -0.275 OA
ENDBRANCH   7  48
ENDBRANCH   1   2
BRANCH   1  53
ATOM     53  O   UNL     1      28.512  37.538   6.402  1.00  0.00    -0.388 OA
ATOM     54  H   UNL     1      27.643  37.436   6.820  1.00  0.00     0.211 HD
ENDBRANCH   1  53
BRANCH   1  55
ATOM     55  C   UNL     1      28.980  39.661   5.670  1.00  0.00     0.165 C 
BRANCH  55  56
ATOM     56  O   UNL     1      29.078  41.018   5.870  1.00  0.00    -0.388 OA
ATOM     57  H   UNL     1      28.442  41.367   6.543  1.00  0.00     0.211 HD
ENDBRANCH  55  56
BRANCH  55  58
ATOM     58  C   UNL     1      27.763  39.332   4.800  1.00  0.00     0.154 C 
BRANCH  58  59
ATOM     59  N   UNL     1      26.549  39.349   5.581  1.00  0.00    -0.319 N 
ATOM     60  C   UNL     1      25.743  40.500   5.736  1.00  0.00     0.407 C 
ATOM     61  H   UNL     1      26.253  38.471   6.051  1.00  0.00     0.167 HD
ATOM     62  O   UNL     1      26.083  41.572   5.170  1.00  0.00    -0.225 OA
BRANCH  60  63
ATOM     63  O   UNL     1      24.579  40.488   6.497  1.00  0.00    -0.443 OA
BRANCH  63  64
ATOM     64  C   UNL     1      24.688  40.464   7.917  1.00  0.00     0.294 C 
BRANCH  64  65
ATOM     65  C   UNL     1      23.702  39.435   8.369  1.00  0.00     0.120 A 
ATOM     66  C   UNL     1      23.270  38.373   7.622  1.00  0.00     0.138 A 
ATOM     67  N   UNL     1      23.083  39.375   9.574  1.00  0.00    -0.132 NA
ATOM     68  N   UNL     1      22.410  37.709   8.381  1.00  0.00    -0.250 N 
ATOM     69  N   UNL     1      22.302  38.320   9.561  1.00  0.00    -0.067 NA
BRANCH  68  70
ATOM     70  C   UNL     1      21.693  36.503   7.969  1.00  0.00     0.167 C 
BRANCH  70  71
ATOM     71  C   UNL     1      20.914  36.009   9.189  1.00  0.00     0.141 C 
BRANCH  71  72
ATOM     72  N   UNL     1      21.827  35.245   9.989  1.00  0.00    -0.336 N 
ATOM     73  C   UNL     1      21.451  34.526  11.141  1.00  0.00     0.315 C 
ATOM     74  H   UNL     1      22.834  35.240   9.674  1.00  0.00     0.165 HD
ATOM     75  O   UNL     1      20.271  34.530  11.552  1.00  0.00    -0.249 OA
ATOM     76  N   UNL     1      22.455  33.776  11.843  1.00  0.00    -0.331 N 
ATOM     77  H   UNL     1      23.435  33.802  11.461  1.00  0.00     0.165 HD
BRANCH  76  78
ATOM     78  C   UNL     1      22.111  33.028  13.020  1.00  0.00     0.193 C 
BRANCH  78  79
ATOM     79  C   UNL     1      22.539  31.611  12.876  1.00  0.00     0.122 A 
ATOM     80  C   UNL     1      21.693  30.569  12.516  1.00  0.00     0.047 A 
ATOM     81  O   UNL     1      23.725  31.134  13.055  1.00  0.00    -0.467 OA
ATOM     82  C   UNL     1      22.468  29.446  12.497  1.00  0.00     0.042 A 
ATOM     83  C   UNL     1      23.734  29.837  12.840  1.00  0.00     0.195 A 
ENDBRANCH  78  79
ENDBRANCH  76  78
ENDBRANCH  71  72
ENDBRANCH  70  71
ENDBRANCH  68  70
ENDBRANCH  64  65
ENDBRANCH  63  64
ENDBRANCH  60  63
ENDBRANCH  58  59
ENDBRANCH  55  58
ENDBRANCH   1  55
TORSDOF 34
BEGIN_RES LYS A 131
REMARK  4 active torsions:
REMARK  status: ('A' for Active; 'I' for Inactive)
REMARK    1  A    between atoms: CA   and  CB  
REMARK    2  A    between atoms: CB   and  CG  
REMARK    3  A    between atoms: CG   and  CD  
REMARK    4  A    between atoms: CD   and  CE  
ROOT
ATOM      1  CA  LYS A 131      29.867  25.555  16.977  1.00 20.52     0.186 C 
ENDROOT
BRANCH   1   2
ATOM      2  CB  LYS A 131      28.345  25.722  17.026  1.00 20.94     0.034 C 
BRANCH   2   3
ATOM      3  CG  LYS A 131      27.602  24.400  16.911  1.00 22.96     0.005 C 
BRANCH   3   4
ATOM      4  CD  LYS A 131      26.377  24.362  17.782  1.00 24.33     0.041 C 
BRANCH   4   5
ATOM      5  CE  LYS A 131      26.386  25.559  18.728  1.00 26.91     0.338 C 
ATOM      6  NZ  LYS A 131      25.545  25.287  19.917  1.00 27.40     0.618 N 
ENDBRANCH   4   5
ENDBRANCH   3   4
ENDBRANCH   2   3
ENDBRANCH   1   2
END_RES LYS A 131
BEGIN_RES LYS A 135
REMARK  4 active torsions:
REMARK  status: ('A' for Active; 'I' for Inactive)
REMARK    5  A    between atoms: CA   and  CB  
REMARK    6  A    between atoms: CB   and  CG  
REMARK    7  A    between atoms: CG   and  CD  
REMARK    8  A    between atoms: CD   and  CE  
ROOT
ATOM      7  CA  LYS A 135      33.193  34.663   9.290  1.00 25.02     0.186 C 
ENDROOT
BRANCH   7   8
ATOM      8  CB  LYS A 135      32.060  35.360  10.034  1.00 26.63     0.034 C 
BRANCH   8   9
ATOM      9  CG  LYS A 135      30.738  34.646   9.924  1.00 29.45     0.005 C 
BRANCH   9  10
ATOM     10  CD  LYS A 135      30.347  34.462   8.466  1.00 32.00     0.041 C 
BRANCH  10  11
ATOM     11  CE  LYS A 135      28.838  34.433   8.318  1.00 34.25     0.338 C 
ATOM     12  NZ  LYS A 135      28.202  33.700   9.448  1.00 35.99     0.618 N 
ENDBRANCH  10  11
ENDBRANCH   9  10
ENDBRANCH   8   9
ENDBRANCH   7   8
END_RES LYS A 135
