REMARK VINA RESULT:    -4.118      0.000      0.000
REMARK INTER + INTRA:         -23.175
REMARK INTER:                  -9.431
REMARK INTRA:                 -13.744
REMARK UNBOUND:               -13.037
REMARK SMILES CC(=O)N[C@@H]1[C@@H](O)C[C@](OC[C@H]2O[C@@H](O[C@H]3[C@H](O)[C@@H](O)[C@H](OCCN=[N+]=[N-])O[C@@H]3CO)[C@H](O)[C@@H](O)[C@H]2O)(C(=O)O)O[C@H]1C(O)[C@H](O)CNC(=O)OCc1cn([C@H]2C[C@H]3CC[C@@H](C2)N3C)nn1
REMARK SMILES IDX 9 1 8 2 6 3 5 4 42 5 41 6 10 7 11 8 12 9 14 10 13 11 32 12
REMARK SMILES IDX 34 13 36 14 15 15 16 16 29 17 28 18 21 19 17 20 19 21 30 22
REMARK SMILES IDX 31 23 22 25 23 26 24 27 25 28 26 29 27 30 18 31 20 33 33 35
REMARK SMILES IDX 35 37 37 39 38 41 39 42 40 43 7 45 43 47 44 48 45 50 46 51
REMARK SMILES IDX 47 53 48 54 49 55 50 57 51 58 52 59 53 60 54 61 66 62 55 63
REMARK SMILES IDX 65 64 56 65 62 66 57 67 61 68 58 69 63 70 60 71 59 72 64 73
REMARK SMILES IDX 4 74 2 75 1 77 3 78
REMARK H PARENT 31 24 18 32 20 34 33 36 35 38 37 40 40 44 7 46 44 49 46 52
REMARK H PARENT 48 56 4 76
REMARK Flexibility Score: inf
ROOT
ATOM      1  C   UNL     1      25.624  39.613   7.789  1.00  0.00     0.272 C 
ATOM      2  C   UNL     1      25.399  40.295   6.451  1.00  0.00     0.113 C 
ATOM      3  C   UNL     1      24.189  41.176   6.392  1.00  0.00     0.145 C 
ATOM      4  C   UNL     1      23.152  40.614   7.291  1.00  0.00     0.142 C 
ATOM      5  C   UNL     1      23.381  39.102   7.367  1.00  0.00     0.178 C 
ATOM      6  O   UNL     1      24.495  39.036   8.301  1.00  0.00    -0.332 OA
ENDROOT
BRANCH   1   7
ATOM      7  O   UNL     1      26.231  40.505   8.620  1.00  0.00    -0.338 OA
BRANCH   7   8
ATOM      8  C   UNL     1      27.440  41.011   8.309  1.00  0.00     0.199 C 
BRANCH   8   9
ATOM      9  C   UNL     1      28.553  40.882   9.281  1.00  0.00     0.179 C 
ATOM     10  C   UNL     1      28.849  40.290  11.440  1.00  0.00     0.282 C 
ATOM     11  O   UNL     1      28.179  39.916  10.269  1.00  0.00    -0.341 OA
ATOM     12  C   UNL     1      30.303  40.433  11.277  1.00  0.00     0.202 C 
ATOM     13  C   UNL     1      30.861  40.492   9.907  1.00  0.00     0.179 C 
ATOM     14  C   UNL     1      29.860  40.363   8.780  1.00  0.00     0.177 C 
BRANCH  10  15
ATOM     15  O   UNL     1      28.486  39.375  12.398  1.00  0.00    -0.341 OA
BRANCH  15  16
ATOM     16  C   UNL     1      27.102  39.185  12.461  1.00  0.00     0.184 C 
ATOM     17  C   UNL     1      26.329  40.373  12.929  1.00  0.00     0.178 C 
ATOM     18  O   UNL     1      26.335  40.635  14.262  1.00  0.00    -0.341 OA
ATOM     19  C   UNL     1      26.178  39.559  15.066  1.00  0.00     0.281 C 
ATOM     20  C   UNL     1      26.909  38.003  13.385  1.00  0.00     0.180 C 
ATOM     21  C   UNL     1      27.262  38.523  14.777  1.00  0.00     0.202 C 
BRANCH  17  22
ATOM     22  C   UNL     1      24.939  40.420  12.283  1.00  0.00     0.191 C 
BRANCH  22  23
ATOM     23  O   UNL     1      24.809  39.596  11.189  1.00  0.00    -0.394 OA
ATOM     24  H   UNL     1      24.316  38.771  11.387  1.00  0.00     0.210 HD
ENDBRANCH  22  23
ENDBRANCH  17  22
BRANCH  19  25
ATOM     25  O   UNL     1      24.937  39.003  15.160  1.00  0.00    -0.350 OA
BRANCH  25  26
ATOM     26  C   UNL     1      23.968  39.692  15.822  1.00  0.00     0.169 C 
BRANCH  26  27
ATOM     27  C   UNL     1      22.602  39.399  15.304  1.00  0.00     0.119 C 
BRANCH  27  28
ATOM     28  N   UNL     1      22.639  38.454  14.179  1.00  0.00    -0.092 NA
ATOM     29  N   UNL     1      21.935  38.657  13.175  1.00  0.00     0.001 N 
ATOM     30  N   UNL     1      21.621  39.228  12.112  1.00  0.00    -0.003 NA
ENDBRANCH  27  28
ENDBRANCH  26  27
ENDBRANCH  25  26
ENDBRANCH  19  25
BRANCH  20  31
ATOM     31  O   UNL     1      25.626  37.512  13.397  1.00  0.00    -0.387 OA
ATOM     32  H   UNL     1      24.985  38.110  13.813  1.00  0.00     0.211 HD
ENDBRANCH  20  31
BRANCH  21  33
ATOM     33  O   UNL     1      28.513  39.134  14.781  1.00  0.00    -0.385 OA
ATOM     34  H   UNL     1      28.473  39.872  14.116  1.00  0.00     0.211 HD
ENDBRANCH  21  33
ENDBRANCH  15  16
ENDBRANCH  10  15
BRANCH  12  35
ATOM     35  O   UNL     1      30.683  41.626  11.945  1.00  0.00    -0.385 OA
ATOM     36  H   UNL     1      31.420  41.482  12.576  1.00  0.00     0.211 HD
ENDBRANCH  12  35
BRANCH  13  37
ATOM     37  O   UNL     1      31.821  39.470   9.699  1.00  0.00    -0.387 OA
ATOM     38  H   UNL     1      32.718  39.928   9.604  1.00  0.00     0.211 HD
ENDBRANCH  13  37
BRANCH  14  39
ATOM     39  O   UNL     1      29.747  38.974   8.528  1.00  0.00    -0.387 OA
ATOM     40  H   UNL     1      28.803  38.765   8.813  1.00  0.00     0.211 HD
ENDBRANCH  14  39
ENDBRANCH   8   9
ENDBRANCH   7   8
ENDBRANCH   1   7
BRANCH   1  41
ATOM     41  C   UNL     1      26.566  38.495   7.464  1.00  0.00     0.364 C 
ATOM     42  O   UNL     1      26.889  38.231   6.310  1.00  0.00    -0.246 OA
BRANCH  41  43
ATOM     43  O   UNL     1      27.112  37.708   8.487  1.00  0.00    -0.477 OA
ATOM     44  H   UNL     1      27.511  38.211   9.292  1.00  0.00     0.296 HD
ENDBRANCH  41  43
ENDBRANCH   1  41
BRANCH   3  45
ATOM     45  O   UNL     1      24.614  42.463   6.798  1.00  0.00    -0.391 OA
ATOM     46  H   UNL     1      24.524  42.558   7.780  1.00  0.00     0.211 HD
ENDBRANCH   3  45
BRANCH   5  47
ATOM     47  C   UNL     1      22.276  38.338   7.979  1.00  0.00     0.176 C 
BRANCH  47  48
ATOM     48  O   UNL     1      22.506  38.389   9.422  1.00  0.00    -0.388 OA
ATOM     49  H   UNL     1      22.470  37.457   9.756  1.00  0.00     0.211 HD
ENDBRANCH  47  48
BRANCH  47  50
ATOM     50  C   UNL     1      22.335  36.828   7.799  1.00  0.00     0.165 C 
BRANCH  50  51
ATOM     51  O   UNL     1      21.128  36.478   7.145  1.00  0.00    -0.388 OA
ATOM     52  H   UNL     1      20.984  35.500   7.159  1.00  0.00     0.211 HD
ENDBRANCH  50  51
BRANCH  50  53
ATOM     53  C   UNL     1      22.520  36.000   9.005  1.00  0.00     0.154 C 
BRANCH  53  54
ATOM     54  N   UNL     1      23.975  35.809   9.169  1.00  0.00    -0.319 N 
ATOM     55  C   UNL     1      24.648  36.231  10.342  1.00  0.00     0.407 C 
ATOM     56  H   UNL     1      24.502  35.356   8.400  1.00  0.00     0.167 HD
ATOM     57  O   UNL     1      23.971  36.771  11.274  1.00  0.00    -0.225 OA
BRANCH  55  58
ATOM     58  O   UNL     1      26.016  36.055  10.473  1.00  0.00    -0.443 OA
BRANCH  58  59
ATOM     59  C   UNL     1      26.499  34.765  10.776  1.00  0.00     0.294 C 
BRANCH  59  60
ATOM     60  C   UNL     1      27.240  34.696  12.051  1.00  0.00     0.120 A 
ATOM     61  C   UNL     1      28.609  34.819  12.171  1.00  0.00     0.138 A 
ATOM     62  N   UNL     1      26.790  34.492  13.293  1.00  0.00    -0.132 NA
ATOM     63  N   UNL     1      28.957  34.688  13.457  1.00  0.00    -0.249 N 
ATOM     64  N   UNL     1      27.827  34.488  14.136  1.00  0.00    -0.067 NA
BRANCH  63  65
ATOM     65  C   UNL     1      30.326  34.753  13.949  1.00  0.00     0.112 C 
ATOM     66  C   UNL     1      30.409  35.925  14.866  1.00  0.00     0.046 C 
ATOM     67  C   UNL     1      31.246  34.776  12.773  1.00  0.00     0.046 C 
ATOM     68  C   UNL     1      31.629  36.772  14.696  1.00  0.00     0.058 C 
ATOM     69  C   UNL     1      32.415  35.704  12.890  1.00  0.00     0.058 C 
ATOM     70  N   UNL     1      32.761  36.014  14.261  1.00  0.00    -0.300 NA
ATOM     71  C   UNL     1      31.398  37.729  13.530  1.00  0.00     0.021 C 
ATOM     72  C   UNL     1      32.013  37.052  12.329  1.00  0.00     0.021 C 
ATOM     73  C   UNL     1      33.047  34.839  15.047  1.00  0.00     0.105 C 
ENDBRANCH  63  65
ENDBRANCH  59  60
ENDBRANCH  58  59
ENDBRANCH  55  58
ENDBRANCH  53  54
ENDBRANCH  50  53
ENDBRANCH  47  50
ENDBRANCH   5  47
BRANCH   4  74
ATOM     74  N   UNL     1      21.844  41.095   7.146  1.00  0.00    -0.348 N 
ATOM     75  C   UNL     1      21.357  42.249   7.851  1.00  0.00     0.217 C 
ATOM     76  H   UNL     1      21.170  40.651   6.482  1.00  0.00     0.163 HD
ATOM     77  C   UNL     1      19.944  42.696   7.617  1.00  0.00     0.114 C 
ATOM     78  O   UNL     1      22.076  42.874   8.639  1.00  0.00    -0.275 OA
ENDBRANCH   4  74
TORSDOF 30
BEGIN_RES LYS A 131
REMARK  4 active torsions:
REMARK  status: ('A' for Active; 'I' for Inactive)
REMARK    1  A    between atoms: CA   and  CB  
REMARK    2  A    between atoms: CB   and  CG  
REMARK    3  A    between atoms: CG   and  CD  
REMARK    4  A    between atoms: CD   and  CE  
ROOT
ATOM      1  CA  LYS A 131      29.867  25.555  16.977  1.00 20.52     0.186 C 
ENDROOT
BRANCH   1   2
ATOM      2  CB  LYS A 131      28.345  25.722  17.026  1.00 20.94     0.034 C 
BRANCH   2   3
ATOM      3  CG  LYS A 131      27.599  24.435  16.709  1.00 22.96     0.005 C 
BRANCH   3   4
ATOM      4  CD  LYS A 131      26.949  23.842  17.929  1.00 24.33     0.041 C 
BRANCH   4   5
ATOM      5  CE  LYS A 131      25.577  23.290  17.557  1.00 26.91     0.338 C 
ATOM      6  NZ  LYS A 131      24.754  24.339  16.910  1.00 27.40     0.618 N 
ENDBRANCH   4   5
ENDBRANCH   3   4
ENDBRANCH   2   3
ENDBRANCH   1   2
END_RES LYS A 131
BEGIN_RES LYS A 135
REMARK  4 active torsions:
REMARK  status: ('A' for Active; 'I' for Inactive)
REMARK    5  A    between atoms: CA   and  CB  
REMARK    6  A    between atoms: CB   and  CG  
REMARK    7  A    between atoms: CG   and  CD  
REMARK    8  A    between atoms: CD   and  CE  
ROOT
ATOM      7  CA  LYS A 135      33.193  34.663   9.290  1.00 25.02     0.186 C 
ENDROOT
BRANCH   7   8
ATOM      8  CB  LYS A 135      32.060  35.360  10.034  1.00 26.63     0.034 C 
BRANCH   8   9
ATOM      9  CG  LYS A 135      30.871  35.675   9.163  1.00 29.45     0.005 C 
BRANCH   9  10
ATOM     10  CD  LYS A 135      30.248  34.397   8.624  1.00 32.00     0.041 C 
BRANCH  10  11
ATOM     11  CE  LYS A 135      28.878  34.679   8.037  1.00 34.25     0.338 C 
ATOM     12  NZ  LYS A 135      28.987  35.449   6.767  1.00 35.99     0.618 N 
ENDBRANCH  10  11
ENDBRANCH   9  10
ENDBRANCH   8   9
ENDBRANCH   7   8
END_RES LYS A 135
