REMARK VINA RESULT:    -4.800      3.366      5.415
REMARK INTER + INTRA:         -22.115
REMARK INTER:                 -13.203
REMARK INTRA:                  -8.911
REMARK UNBOUND:               -10.018
REMARK SMILES COc1ccc(-n2cc(COC(=O)NC[C@@H](O)C(O)[C@@H]3O[C@@](OC[C@H]4O[C@@H](O[C@H]5[C@H](O)[C@@H](O)[C@H](OCCN=[N+]=[N-])O[C@@H]5CO)[C@H](O)[C@@H](O)[C@H]4O)(C(=O)O)C[C@H](O)[C@H]3NC(C)=O)nn2)cc1
REMARK SMILES IDX 22 1 54 2 55 3 57 4 20 5 21 6 23 7 24 8 25 9 27 10 26 11
REMARK SMILES IDX 45 12 47 13 49 14 28 15 29 16 42 17 41 18 34 19 30 20 32 21
REMARK SMILES IDX 43 22 44 23 35 25 36 26 37 27 38 28 39 29 40 30 31 31 33 33
REMARK SMILES IDX 46 35 48 37 50 39 51 41 52 42 53 43 56 45 18 47 19 48 16 50
REMARK SMILES IDX 17 51 15 53 14 54 12 55 13 57 11 58 10 59 9 60 8 61 62 62
REMARK SMILES IDX 7 63 63 64 6 65 5 66 64 67 4 68 65 69 3 70 2 71 1 72 58 73
REMARK SMILES IDX 59 74 60 76 61 77
REMARK H PARENT 44 24 31 32 33 34 46 36 48 38 50 40 53 44 56 46 19 49 17 52
REMARK H PARENT 14 56 58 75
REMARK Flexibility Score: inf
ROOT
ATOM      1  C   UNL     1      28.462  35.988   8.776  1.00  0.00     0.272 C 
ATOM      2  C   UNL     1      28.791  35.761   7.348  1.00  0.00     0.113 C 
ATOM      3  C   UNL     1      28.412  36.823   6.392  1.00  0.00     0.145 C 
ATOM      4  C   UNL     1      27.273  37.648   7.024  1.00  0.00     0.142 C 
ATOM      5  C   UNL     1      26.419  36.696   7.785  1.00  0.00     0.178 C 
ATOM      6  O   UNL     1      27.114  36.354   8.943  1.00  0.00    -0.332 OA
ENDROOT
BRANCH   1   7
ATOM      7  O   UNL     1      29.184  36.670   9.607  1.00  0.00    -0.338 OA
BRANCH   7   8
ATOM      8  C   UNL     1      29.094  37.494  10.583  1.00  0.00     0.199 C 
BRANCH   8   9
ATOM      9  C   UNL     1      29.300  38.977  10.467  1.00  0.00     0.179 C 
ATOM     10  C   UNL     1      30.110  40.718   9.227  1.00  0.00     0.282 C 
ATOM     11  O   UNL     1      29.778  39.353   9.258  1.00  0.00    -0.341 OA
ATOM     12  C   UNL     1      28.958  41.627   9.513  1.00  0.00     0.202 C 
ATOM     13  C   UNL     1      27.799  41.006  10.198  1.00  0.00     0.179 C 
ATOM     14  C   UNL     1      28.091  39.756  10.925  1.00  0.00     0.177 C 
BRANCH  10  15
ATOM     15  O   UNL     1      30.601  40.987   7.953  1.00  0.00    -0.341 OA
BRANCH  15  16
ATOM     16  C   UNL     1      31.965  40.927   7.878  1.00  0.00     0.184 C 
ATOM     17  C   UNL     1      32.567  42.156   7.302  1.00  0.00     0.178 C 
ATOM     18  O   UNL     1      33.971  42.006   7.152  1.00  0.00    -0.341 OA
ATOM     19  C   UNL     1      34.133  41.079   6.089  1.00  0.00     0.281 C 
ATOM     20  C   UNL     1      32.339  39.717   7.003  1.00  0.00     0.180 C 
ATOM     21  C   UNL     1      33.821  39.729   6.740  1.00  0.00     0.202 C 
BRANCH  17  22
ATOM     22  C   UNL     1      32.294  43.371   8.150  1.00  0.00     0.191 C 
BRANCH  22  23
ATOM     23  O   UNL     1      32.363  43.015   9.486  1.00  0.00    -0.394 OA
ATOM     24  H   UNL     1      31.482  42.981   9.920  1.00  0.00     0.210 HD
ENDBRANCH  22  23
ENDBRANCH  17  22
BRANCH  19  25
ATOM     25  O   UNL     1      35.382  41.124   5.576  1.00  0.00    -0.350 OA
BRANCH  25  26
ATOM     26  C   UNL     1      36.459  41.089   6.406  1.00  0.00     0.169 C 
BRANCH  26  27
ATOM     27  C   UNL     1      37.789  40.799   5.797  1.00  0.00     0.119 C 
BRANCH  27  28
ATOM     28  N   UNL     1      38.164  39.418   5.743  1.00  0.00    -0.092 NA
ATOM     29  N   UNL     1      37.500  38.601   5.113  1.00  0.00     0.001 N 
ATOM     30  N   UNL     1      36.681  37.872   4.545  1.00  0.00    -0.003 NA
ENDBRANCH  27  28
ENDBRANCH  26  27
ENDBRANCH  25  26
ENDBRANCH  19  25
BRANCH  20  31
ATOM     31  O   UNL     1      31.932  38.563   7.646  1.00  0.00    -0.387 OA
ATOM     32  H   UNL     1      31.587  38.840   8.552  1.00  0.00     0.211 HD
ENDBRANCH  20  31
BRANCH  21  33
ATOM     33  O   UNL     1      34.160  38.738   5.846  1.00  0.00    -0.385 OA
ATOM     34  H   UNL     1      35.102  38.458   5.956  1.00  0.00     0.211 HD
ENDBRANCH  21  33
ENDBRANCH  15  16
ENDBRANCH  10  15
BRANCH  12  35
ATOM     35  O   UNL     1      29.351  42.725  10.298  1.00  0.00    -0.385 OA
ATOM     36  H   UNL     1      29.918  43.346   9.789  1.00  0.00     0.211 HD
ENDBRANCH  12  35
BRANCH  13  37
ATOM     37  O   UNL     1      26.717  40.901   9.316  1.00  0.00    -0.387 OA
ATOM     38  H   UNL     1      25.881  41.253   9.685  1.00  0.00     0.211 HD
ENDBRANCH  13  37
BRANCH  14  39
ATOM     39  O   UNL     1      26.940  38.962  10.935  1.00  0.00    -0.387 OA
ATOM     40  H   UNL     1      26.201  39.535  11.260  1.00  0.00     0.211 HD
ENDBRANCH  14  39
ENDBRANCH   8   9
ENDBRANCH   7   8
ENDBRANCH   1   7
BRANCH   1  41
ATOM     41  C   UNL     1      28.421  34.533   9.343  1.00  0.00     0.364 C 
ATOM     42  O   UNL     1      29.332  33.740   9.093  1.00  0.00    -0.246 OA
BRANCH  41  43
ATOM     43  O   UNL     1      27.332  34.216  10.116  1.00  0.00    -0.477 OA
ATOM     44  H   UNL     1      26.451  33.881   9.700  1.00  0.00     0.296 HD
ENDBRANCH  41  43
ENDBRANCH   1  41
BRANCH   3  45
ATOM     45  O   UNL     1      29.416  37.610   5.908  1.00  0.00    -0.391 OA
ATOM     46  H   UNL     1      29.977  38.058   6.579  1.00  0.00     0.211 HD
ENDBRANCH   3  45
BRANCH   5  47
ATOM     47  C   UNL     1      25.101  37.327   8.292  1.00  0.00     0.176 C 
BRANCH  47  48
ATOM     48  O   UNL     1      24.194  37.436   7.283  1.00  0.00    -0.388 OA
ATOM     49  H   UNL     1      23.421  37.967   7.589  1.00  0.00     0.211 HD
ENDBRANCH  47  48
BRANCH  47  50
ATOM     50  C   UNL     1      24.740  36.877   9.614  1.00  0.00     0.165 C 
BRANCH  50  51
ATOM     51  O   UNL     1      24.525  35.479   9.761  1.00  0.00    -0.388 OA
ATOM     52  H   UNL     1      24.609  35.302  10.719  1.00  0.00     0.211 HD
ENDBRANCH  50  51
BRANCH  50  53
ATOM     53  C   UNL     1      23.705  37.497  10.456  1.00  0.00     0.154 C 
BRANCH  53  54
ATOM     54  N   UNL     1      23.696  37.247  11.826  1.00  0.00    -0.319 N 
ATOM     55  C   UNL     1      24.194  38.082  12.837  1.00  0.00     0.407 C 
ATOM     56  H   UNL     1      23.267  36.318  12.163  1.00  0.00     0.167 HD
ATOM     57  O   UNL     1      24.696  39.191  12.590  1.00  0.00    -0.225 OA
BRANCH  55  58
ATOM     58  O   UNL     1      24.121  37.653  14.183  1.00  0.00    -0.443 OA
BRANCH  58  59
ATOM     59  C   UNL     1      25.090  36.734  14.619  1.00  0.00     0.294 C 
BRANCH  59  60
ATOM     60  C   UNL     1      24.906  35.441  13.918  1.00  0.00     0.121 A 
ATOM     61  C   UNL     1      24.006  34.421  14.163  1.00  0.00     0.144 A 
ATOM     62  N   UNL     1      25.632  35.050  12.853  1.00  0.00    -0.131 NA
ATOM     63  N   UNL     1      24.219  33.467  13.249  1.00  0.00    -0.220 N 
ATOM     64  N   UNL     1      25.218  33.875  12.460  1.00  0.00    -0.062 NA
BRANCH  63  65
ATOM     65  C   UNL     1      23.588  32.216  13.024  1.00  0.00     0.067 A 
ATOM     66  C   UNL     1      24.231  31.009  13.081  1.00  0.00     0.032 A 
ATOM     67  C   UNL     1      22.230  32.199  12.712  1.00  0.00     0.032 A 
ATOM     68  C   UNL     1      23.555  29.822  12.839  1.00  0.00     0.048 A 
ATOM     69  C   UNL     1      21.556  31.017  12.470  1.00  0.00     0.048 A 
ATOM     70  C   UNL     1      22.207  29.803  12.529  1.00  0.00     0.119 A 
BRANCH  70  71
ATOM     71  O   UNL     1      21.533  28.590  12.284  1.00  0.00    -0.497 OA
ATOM     72  C   UNL     1      20.099  28.630  12.301  1.00  0.00     0.278 C 
ENDBRANCH  70  71
ENDBRANCH  63  65
ENDBRANCH  59  60
ENDBRANCH  58  59
ENDBRANCH  55  58
ENDBRANCH  53  54
ENDBRANCH  50  53
ENDBRANCH  47  50
ENDBRANCH   5  47
BRANCH   4  73
ATOM     73  N   UNL     1      26.653  38.435   5.995  1.00  0.00    -0.348 N 
ATOM     74  C   UNL     1      26.982  39.803   5.817  1.00  0.00     0.217 C 
ATOM     75  H   UNL     1      25.976  37.989   5.352  1.00  0.00     0.163 HD
ATOM     76  C   UNL     1      26.325  40.597   4.745  1.00  0.00     0.114 C 
ATOM     77  O   UNL     1      27.824  40.401   6.538  1.00  0.00    -0.275 OA
ENDBRANCH   4  73
TORSDOF 31
BEGIN_RES LYS A 131
REMARK  4 active torsions:
REMARK  status: ('A' for Active; 'I' for Inactive)
REMARK    1  A    between atoms: CA   and  CB  
REMARK    2  A    between atoms: CB   and  CG  
REMARK    3  A    between atoms: CG   and  CD  
REMARK    4  A    between atoms: CD   and  CE  
ROOT
ATOM      1  CA  LYS A 131      29.867  25.555  16.977  1.00 20.52     0.186 C 
ENDROOT
BRANCH   1   2
ATOM      2  CB  LYS A 131      28.345  25.722  17.026  1.00 20.94     0.034 C 
BRANCH   2   3
ATOM      3  CG  LYS A 131      27.602  24.398  16.932  1.00 22.96     0.005 C 
BRANCH   3   4
ATOM      4  CD  LYS A 131      26.633  24.211  18.067  1.00 24.33     0.041 C 
BRANCH   4   5
ATOM      5  CE  LYS A 131      26.327  25.563  18.703  1.00 26.91     0.338 C 
ATOM      6  NZ  LYS A 131      24.891  25.898  18.546  1.00 27.40     0.618 N 
ENDBRANCH   4   5
ENDBRANCH   3   4
ENDBRANCH   2   3
ENDBRANCH   1   2
END_RES LYS A 131
BEGIN_RES LYS A 135
REMARK  4 active torsions:
REMARK  status: ('A' for Active; 'I' for Inactive)
REMARK    5  A    between atoms: CA   and  CB  
REMARK    6  A    between atoms: CB   and  CG  
REMARK    7  A    between atoms: CG   and  CD  
REMARK    8  A    between atoms: CD   and  CE  
ROOT
ATOM      7  CA  LYS A 135      33.193  34.663   9.290  1.00 25.02     0.186 C 
ENDROOT
BRANCH   7   8
ATOM      8  CB  LYS A 135      32.060  35.360  10.034  1.00 26.63     0.034 C 
BRANCH   8   9
ATOM      9  CG  LYS A 135      32.533  36.418  10.997  1.00 29.45     0.005 C 
BRANCH   9  10
ATOM     10  CD  LYS A 135      32.630  35.856  12.407  1.00 32.00     0.041 C 
BRANCH  10  11
ATOM     11  CE  LYS A 135      31.855  36.723  13.380  1.00 34.25     0.338 C 
ATOM     12  NZ  LYS A 135      30.502  36.158  13.642  1.00 35.99     0.618 N 
ENDBRANCH  10  11
ENDBRANCH   9  10
ENDBRANCH   8   9
ENDBRANCH   7   8
END_RES LYS A 135
