REMARK VINA RESULT:    -4.001      6.323     12.231
REMARK INTER + INTRA:         -22.876
REMARK INTER:                 -12.243
REMARK INTRA:                 -10.633
REMARK UNBOUND:               -11.857
REMARK SMILES CC[N+](C)(CC)CCCn1cc(COC(=O)NC[C@@H](O)C(O)[C@@H]2O[C@@](OC[C@H]3O[C@@H](O[C@H]4[C@H](O)[C@@H](O)[C@H](OCCN=[N+]=[N-])O[C@@H]4CO)[C@H](O)[C@@H](O)[C@H]3O)(C(=O)O)C[C@H](O)[C@H]2NC(C)=O)nn1
REMARK SMILES IDX 21 1 23 2 25 3 57 4 24 5 58 6 60 7 26 8 27 9 28 10 30 11
REMARK SMILES IDX 29 12 48 13 50 14 52 15 31 16 32 17 45 18 44 19 37 20 33 21
REMARK SMILES IDX 35 22 46 23 47 24 38 26 39 27 40 28 41 29 42 30 43 31 34 32
REMARK SMILES IDX 36 34 49 36 51 38 53 40 54 42 55 43 56 44 59 46 61 48 62 49
REMARK SMILES IDX 63 51 64 52 22 53 19 55 20 56 18 58 17 59 15 60 16 62 14 63
REMARK SMILES IDX 13 64 12 65 11 66 65 67 10 68 66 69 9 70 8 71 7 72 3 73 4 74
REMARK SMILES IDX 2 75 1 76 5 77 6 78
REMARK H PARENT 47 25 34 33 36 35 49 37 51 39 53 41 56 45 59 47 61 50 22 54
REMARK H PARENT 20 57 17 61
REMARK Flexibility Score: inf
ROOT
ATOM      1  C   UNL     1      24.487  38.259  11.623  1.00  0.00     0.176 C 
ENDROOT
BRANCH   1   2
ATOM      2  C   UNL     1      24.762  38.114  10.129  1.00  0.00     0.178 C 
ATOM      3  C   UNL     1      23.612  37.614   8.130  1.00  0.00     0.272 C 
ATOM      4  C   UNL     1      24.917  37.016   7.723  1.00  0.00     0.113 C 
ATOM      5  O   UNL     1      23.617  37.609   9.553  1.00  0.00    -0.332 OA
ATOM      6  C   UNL     1      25.573  36.242   8.836  1.00  0.00     0.145 C 
ATOM      7  C   UNL     1      25.952  37.232   9.934  1.00  0.00     0.142 C 
BRANCH   3   8
ATOM      8  O   UNL     1      22.516  36.836   7.825  1.00  0.00    -0.338 OA
BRANCH   8   9
ATOM      9  C   UNL     1      21.609  36.536   8.769  1.00  0.00     0.199 C 
BRANCH   9  10
ATOM     10  C   UNL     1      20.594  35.483   8.253  1.00  0.00     0.179 C 
ATOM     11  C   UNL     1      19.210  35.177  10.138  1.00  0.00     0.282 C 
ATOM     12  O   UNL     1      20.124  34.680   9.218  1.00  0.00    -0.341 OA
ATOM     13  C   UNL     1      18.305  36.214   9.590  1.00  0.00     0.202 C 
ATOM     14  C   UNL     1      18.151  35.859   8.095  1.00  0.00     0.179 C 
ATOM     15  C   UNL     1      19.490  36.213   7.489  1.00  0.00     0.177 C 
BRANCH  11  16
ATOM     16  O   UNL     1      19.852  35.490  11.345  1.00  0.00    -0.341 OA
BRANCH  16  17
ATOM     17  C   UNL     1      19.949  34.420  12.185  1.00  0.00     0.184 C 
ATOM     18  C   UNL     1      19.337  34.467  13.516  1.00  0.00     0.178 C 
ATOM     19  O   UNL     1      19.318  33.196  14.062  1.00  0.00    -0.341 OA
ATOM     20  C   UNL     1      20.158  32.255  13.587  1.00  0.00     0.281 C 
ATOM     21  C   UNL     1      21.434  34.063  12.429  1.00  0.00     0.180 C 
ATOM     22  C   UNL     1      21.507  32.712  13.090  1.00  0.00     0.202 C 
BRANCH  18  23
ATOM     23  C   UNL     1      17.926  35.017  13.591  1.00  0.00     0.191 C 
BRANCH  23  24
ATOM     24  O   UNL     1      17.082  34.508  12.614  1.00  0.00    -0.394 OA
ATOM     25  H   UNL     1      16.294  35.140  12.570  1.00  0.00     0.210 HD
ENDBRANCH  23  24
ENDBRANCH  18  23
BRANCH  20  26
ATOM     26  O   UNL     1      19.520  31.416  12.692  1.00  0.00    -0.350 OA
BRANCH  26  27
ATOM     27  C   UNL     1      20.310  30.530  12.037  1.00  0.00     0.169 C 
BRANCH  27  28
ATOM     28  C   UNL     1      20.306  29.141  12.641  1.00  0.00     0.119 C 
BRANCH  28  29
ATOM     29  N   UNL     1      21.512  28.955  13.431  1.00  0.00    -0.092 NA
ATOM     30  N   UNL     1      22.610  29.383  13.087  1.00  0.00     0.001 N 
ATOM     31  N   UNL     1      23.717  29.826  12.772  1.00  0.00    -0.003 NA
ENDBRANCH  28  29
ENDBRANCH  27  28
ENDBRANCH  26  27
ENDBRANCH  20  26
BRANCH  21  32
ATOM     32  O   UNL     1      22.070  34.159  11.213  1.00  0.00    -0.387 OA
ATOM     33  H   UNL     1      23.030  34.025  11.227  1.00  0.00     0.211 HD
ENDBRANCH  21  32
BRANCH  22  34
ATOM     34  O   UNL     1      22.466  32.755  14.089  1.00  0.00    -0.385 OA
ATOM     35  H   UNL     1      22.695  33.674  14.388  1.00  0.00     0.211 HD
ENDBRANCH  22  34
ENDBRANCH  16  17
ENDBRANCH  11  16
BRANCH  13  36
ATOM     36  O   UNL     1      17.007  36.172  10.124  1.00  0.00    -0.385 OA
ATOM     37  H   UNL     1      17.012  35.497  10.837  1.00  0.00     0.211 HD
ENDBRANCH  13  36
BRANCH  14  38
ATOM     38  O   UNL     1      17.139  36.639   7.536  1.00  0.00    -0.387 OA
ATOM     39  H   UNL     1      17.557  37.470   7.231  1.00  0.00     0.211 HD
ENDBRANCH  14  38
BRANCH  15  40
ATOM     40  O   UNL     1      19.669  37.575   7.724  1.00  0.00    -0.387 OA
ATOM     41  H   UNL     1      19.836  38.116   6.938  1.00  0.00     0.211 HD
ENDBRANCH  15  40
ENDBRANCH   9  10
ENDBRANCH   8   9
ENDBRANCH   3   8
BRANCH   3  42
ATOM     42  C   UNL     1      23.390  38.991   7.656  1.00  0.00     0.364 C 
ATOM     43  O   UNL     1      24.313  39.675   7.160  1.00  0.00    -0.246 OA
BRANCH  42  44
ATOM     44  O   UNL     1      22.151  39.577   7.744  1.00  0.00    -0.477 OA
ATOM     45  H   UNL     1      21.307  39.166   7.348  1.00  0.00     0.296 HD
ENDBRANCH  42  44
ENDBRANCH   3  42
BRANCH   6  46
ATOM     46  O   UNL     1      24.773  35.257   9.366  1.00  0.00    -0.391 OA
ATOM     47  H   UNL     1      25.252  34.722  10.070  1.00  0.00     0.211 HD
ENDBRANCH   6  46
BRANCH   7  48
ATOM     48  N   UNL     1      27.042  38.033   9.349  1.00  0.00    -0.348 N 
ATOM     49  C   UNL     1      28.308  38.142   9.989  1.00  0.00     0.217 C 
ATOM     50  H   UNL     1      26.948  38.558   8.456  1.00  0.00     0.163 HD
ATOM     51  C   UNL     1      29.434  38.935   9.435  1.00  0.00     0.114 C 
ATOM     52  O   UNL     1      28.477  37.541  11.064  1.00  0.00    -0.275 OA
ENDBRANCH   7  48
ENDBRANCH   1   2
BRANCH   1  53
ATOM     53  O   UNL     1      25.739  38.165  12.320  1.00  0.00    -0.388 OA
ATOM     54  H   UNL     1      26.327  38.862  11.926  1.00  0.00     0.211 HD
ENDBRANCH   1  53
BRANCH   1  55
ATOM     55  C   UNL     1      23.644  37.132  12.125  1.00  0.00     0.165 C 
BRANCH  55  56
ATOM     56  O   UNL     1      22.291  37.648  11.968  1.00  0.00    -0.388 OA
ATOM     57  H   UNL     1      21.744  37.252  12.715  1.00  0.00     0.211 HD
ENDBRANCH  55  56
BRANCH  55  58
ATOM     58  C   UNL     1      23.799  36.730  13.544  1.00  0.00     0.154 C 
BRANCH  58  59
ATOM     59  N   UNL     1      24.234  35.463  13.927  1.00  0.00    -0.319 N 
ATOM     60  C   UNL     1      25.262  34.675  13.359  1.00  0.00     0.407 C 
ATOM     61  H   UNL     1      23.718  34.997  14.782  1.00  0.00     0.167 HD
ATOM     62  O   UNL     1      25.950  35.033  12.391  1.00  0.00    -0.225 OA
BRANCH  60  63
ATOM     63  O   UNL     1      25.543  33.393  13.894  1.00  0.00    -0.443 OA
BRANCH  63  64
ATOM     64  C   UNL     1      25.621  33.295  15.329  1.00  0.00     0.294 C 
BRANCH  64  65
ATOM     65  C   UNL     1      26.802  32.378  15.539  1.00  0.00     0.120 A 
ATOM     66  C   UNL     1      28.086  32.749  15.860  1.00  0.00     0.138 A 
ATOM     67  N   UNL     1      26.833  31.041  15.507  1.00  0.00    -0.132 NA
ATOM     68  N   UNL     1      28.849  31.619  16.014  1.00  0.00    -0.252 N 
ATOM     69  N   UNL     1      28.042  30.599  15.787  1.00  0.00    -0.067 NA
BRANCH  68  70
ATOM     70  C   UNL     1      30.248  31.587  16.400  1.00  0.00     0.152 C 
BRANCH  70  71
ATOM     71  C   UNL     1      31.126  32.234  15.418  1.00  0.00     0.085 C 
BRANCH  71  72
ATOM     72  C   UNL     1      31.829  33.484  15.748  1.00  0.00     0.265 C 
BRANCH  72  73
ATOM     73  N   UNL     1      31.758  34.578  14.838  1.00  0.00    -0.326 N 
ATOM     74  C   UNL     1      30.716  34.356  13.872  1.00  0.00     0.334 C 
BRANCH  73  75
ATOM     75  C   UNL     1      32.991  34.936  14.195  1.00  0.00     0.260 C 
ATOM     76  C   UNL     1      32.788  35.599  12.853  1.00  0.00     0.071 C 
ENDBRANCH  73  75
BRANCH  73  77
ATOM     77  C   UNL     1      31.309  35.735  15.631  1.00  0.00     0.260 C 
ATOM     78  C   UNL     1      29.840  35.966  15.586  1.00  0.00     0.071 C 
ENDBRANCH  73  77
ENDBRANCH  72  73
ENDBRANCH  71  72
ENDBRANCH  70  71
ENDBRANCH  68  70
ENDBRANCH  64  65
ENDBRANCH  63  64
ENDBRANCH  60  63
ENDBRANCH  58  59
ENDBRANCH  55  58
ENDBRANCH   1  55
TORSDOF 35
BEGIN_RES LYS A 131
REMARK  4 active torsions:
REMARK  status: ('A' for Active; 'I' for Inactive)
REMARK    1  A    between atoms: CA   and  CB  
REMARK    2  A    between atoms: CB   and  CG  
REMARK    3  A    between atoms: CG   and  CD  
REMARK    4  A    between atoms: CD   and  CE  
ROOT
ATOM      1  CA  LYS A 131      29.867  25.555  16.977  1.00 20.52     0.186 C 
ENDROOT
BRANCH   1   2
ATOM      2  CB  LYS A 131      28.345  25.722  17.026  1.00 20.94     0.034 C 
BRANCH   2   3
ATOM      3  CG  LYS A 131      27.606  24.393  17.061  1.00 22.96     0.005 C 
BRANCH   3   4
ATOM      4  CD  LYS A 131      26.292  24.495  17.787  1.00 24.33     0.041 C 
BRANCH   4   5
ATOM      5  CE  LYS A 131      26.369  25.611  18.823  1.00 26.91     0.338 C 
ATOM      6  NZ  LYS A 131      25.052  26.276  18.967  1.00 27.40     0.618 N 
ENDBRANCH   4   5
ENDBRANCH   3   4
ENDBRANCH   2   3
ENDBRANCH   1   2
END_RES LYS A 131
BEGIN_RES LYS A 135
REMARK  4 active torsions:
REMARK  status: ('A' for Active; 'I' for Inactive)
REMARK    5  A    between atoms: CA   and  CB  
REMARK    6  A    between atoms: CB   and  CG  
REMARK    7  A    between atoms: CG   and  CD  
REMARK    8  A    between atoms: CD   and  CE  
ROOT
ATOM      7  CA  LYS A 135      33.193  34.663   9.290  1.00 25.02     0.186 C 
ENDROOT
BRANCH   7   8
ATOM      8  CB  LYS A 135      32.060  35.360  10.034  1.00 26.63     0.034 C 
BRANCH   8   9
ATOM      9  CG  LYS A 135      30.801  35.503   9.218  1.00 29.45     0.005 C 
BRANCH   9  10
ATOM     10  CD  LYS A 135      30.180  34.142   8.947  1.00 32.00     0.041 C 
BRANCH  10  11
ATOM     11  CE  LYS A 135      28.697  34.281   8.660  1.00 34.25     0.338 C 
ATOM     12  NZ  LYS A 135      27.881  33.662   9.741  1.00 35.99     0.618 N 
ENDBRANCH  10  11
ENDBRANCH   9  10
ENDBRANCH   8   9
ENDBRANCH   7   8
END_RES LYS A 135
