REMARK VINA RESULT:    -4.049      4.635      9.402
REMARK INTER + INTRA:         -23.986
REMARK INTER:                 -10.914
REMARK INTRA:                 -13.073
REMARK UNBOUND:               -13.073
REMARK SMILES CC(=O)N[C@@H]1[C@@H](O)C[C@](OC[C@H]2O[C@@H](O[C@H]3[C@H](O)[C@@H](O)[C@H](OCCN=[N+]=[N-])O[C@@H]3CO)[C@H](O)[C@@H](O)[C@H]2O)(C(=O)O)O[C@H]1C(O)[C@H](O)CNC(=O)OCc1cn(C[C@@H](C)CN2CCN(c3ccc(Cl)cc3)CC2)nn1
REMARK SMILES IDX 43 1 42 2 9 3 8 4 41 5 6 6 5 7 10 8 11 9 12 10 14 11 13 12
REMARK SMILES IDX 32 13 34 14 36 15 15 16 16 17 29 18 28 19 21 20 17 21 19 22
REMARK SMILES IDX 30 23 31 24 22 26 23 27 24 28 25 29 26 30 27 31 18 32 20 34
REMARK SMILES IDX 33 36 35 38 37 40 38 42 39 43 40 44 7 46 4 48 2 49 1 51 3 52
REMARK SMILES IDX 44 53 45 55 46 56 47 58 48 59 49 60 50 62 51 63 52 64 53 65
REMARK SMILES IDX 54 66 74 67 55 68 73 69 56 70 57 71 58 72 59 73 60 74 61 75
REMARK SMILES IDX 72 76 62 77 71 78 63 79 64 80 65 81 70 82 66 83 69 84 67 85
REMARK SMILES IDX 68 86
REMARK H PARENT 31 25 18 33 20 35 33 37 35 39 37 41 40 45 7 47 4 50 44 54
REMARK H PARENT 46 57 48 61
REMARK Flexibility Score: inf
ROOT
ATOM      1  C   UNL     1      24.475  34.773  14.949  1.00  0.00     0.176 C 
ENDROOT
BRANCH   1   2
ATOM      2  C   UNL     1      25.021  36.163  14.655  1.00  0.00     0.178 C 
ATOM      3  C   UNL     1      26.949  37.353  13.987  1.00  0.00     0.272 C 
ATOM      4  C   UNL     1      26.327  38.486  14.638  1.00  0.00     0.113 C 
ATOM      5  O   UNL     1      26.362  36.137  14.457  1.00  0.00    -0.332 OA
ATOM      6  C   UNL     1      25.655  38.130  15.951  1.00  0.00     0.145 C 
ATOM      7  C   UNL     1      24.497  37.182  15.609  1.00  0.00     0.142 C 
BRANCH   3   8
ATOM      8  O   UNL     1      28.257  37.126  14.075  1.00  0.00    -0.338 OA
BRANCH   8   9
ATOM      9  C   UNL     1      29.145  37.670  14.865  1.00  0.00     0.199 C 
BRANCH   9  10
ATOM     10  C   UNL     1      30.452  37.018  15.210  1.00  0.00     0.179 C 
ATOM     11  C   UNL     1      31.501  35.055  14.508  1.00  0.00     0.282 C 
ATOM     12  O   UNL     1      30.438  35.655  15.128  1.00  0.00    -0.341 OA
ATOM     13  C   UNL     1      31.521  35.466  13.048  1.00  0.00     0.202 C 
ATOM     14  C   UNL     1      31.631  36.954  12.982  1.00  0.00     0.179 C 
ATOM     15  C   UNL     1      31.541  37.624  14.311  1.00  0.00     0.177 C 
BRANCH  11  16
ATOM     16  O   UNL     1      31.242  33.663  14.550  1.00  0.00    -0.341 OA
BRANCH  16  17
ATOM     17  C   UNL     1      30.277  33.404  15.489  1.00  0.00     0.184 C 
ATOM     18  C   UNL     1      30.723  32.388  16.520  1.00  0.00     0.178 C 
ATOM     19  O   UNL     1      30.086  31.187  16.453  1.00  0.00    -0.341 OA
ATOM     20  C   UNL     1      28.704  31.217  16.516  1.00  0.00     0.281 C 
ATOM     21  C   UNL     1      28.959  32.981  14.849  1.00  0.00     0.180 C 
ATOM     22  C   UNL     1      28.079  32.469  15.965  1.00  0.00     0.202 C 
BRANCH  18  23
ATOM     23  C   UNL     1      30.757  32.976  17.923  1.00  0.00     0.191 C 
BRANCH  23  24
ATOM     24  O   UNL     1      30.499  34.324  17.929  1.00  0.00    -0.394 OA
ATOM     25  H   UNL     1      30.312  34.589  16.977  1.00  0.00     0.210 HD
ENDBRANCH  23  24
ENDBRANCH  18  23
BRANCH  20  26
ATOM     26  O   UNL     1      28.226  30.979  17.799  1.00  0.00    -0.350 OA
BRANCH  26  27
ATOM     27  C   UNL     1      27.957  29.675  18.101  1.00  0.00     0.169 C 
BRANCH  27  28
ATOM     28  C   UNL     1      27.376  28.935  16.929  1.00  0.00     0.119 C 
BRANCH  28  29
ATOM     29  N   UNL     1      25.935  28.840  17.091  1.00  0.00    -0.092 NA
ATOM     30  N   UNL     1      25.191  29.509  16.349  1.00  0.00     0.001 N 
ATOM     31  N   UNL     1      24.577  30.216  15.561  1.00  0.00    -0.003 NA
ENDBRANCH  28  29
ENDBRANCH  27  28
ENDBRANCH  26  27
ENDBRANCH  20  26
BRANCH  21  32
ATOM     32  O   UNL     1      28.316  34.077  14.276  1.00  0.00    -0.387 OA
ATOM     33  H   UNL     1      28.069  34.672  15.043  1.00  0.00     0.211 HD
ENDBRANCH  21  32
BRANCH  22  34
ATOM     34  O   UNL     1      26.826  32.116  15.407  1.00  0.00    -0.385 OA
ATOM     35  H   UNL     1      26.652  31.162  15.430  1.00  0.00     0.211 HD
ENDBRANCH  22  34
ENDBRANCH  16  17
ENDBRANCH  11  16
BRANCH  13  36
ATOM     36  O   UNL     1      32.568  34.805  12.430  1.00  0.00    -0.385 OA
ATOM     37  H   UNL     1      32.959  34.185  13.112  1.00  0.00     0.211 HD
ENDBRANCH  13  36
BRANCH  14  38
ATOM     38  O   UNL     1      30.734  37.530  12.072  1.00  0.00    -0.387 OA
ATOM     39  H   UNL     1      31.185  37.765  11.229  1.00  0.00     0.211 HD
ENDBRANCH  14  38
BRANCH  15  40
ATOM     40  O   UNL     1      31.301  38.969  14.175  1.00  0.00    -0.387 OA
ATOM     41  H   UNL     1      30.344  39.175  14.075  1.00  0.00     0.211 HD
ENDBRANCH  15  40
ENDBRANCH   9  10
ENDBRANCH   8   9
ENDBRANCH   3   8
BRANCH   3  42
ATOM     42  C   UNL     1      26.538  37.300  12.529  1.00  0.00     0.364 C 
ATOM     43  O   UNL     1      26.026  38.329  11.965  1.00  0.00    -0.246 OA
BRANCH  42  44
ATOM     44  O   UNL     1      26.668  36.194  11.729  1.00  0.00    -0.477 OA
ATOM     45  H   UNL     1      27.276  36.192  10.919  1.00  0.00     0.296 HD
ENDBRANCH  42  44
ENDBRANCH   3  42
BRANCH   6  46
ATOM     46  O   UNL     1      26.605  37.467  16.728  1.00  0.00    -0.391 OA
ATOM     47  H   UNL     1      27.214  38.102  17.178  1.00  0.00     0.211 HD
ENDBRANCH   6  46
BRANCH   7  48
ATOM     48  N   UNL     1      23.440  37.992  15.037  1.00  0.00    -0.348 N 
ATOM     49  C   UNL     1      22.276  38.279  15.794  1.00  0.00     0.217 C 
ATOM     50  H   UNL     1      23.493  38.389  14.059  1.00  0.00     0.163 HD
ATOM     51  C   UNL     1      21.200  39.124  15.163  1.00  0.00     0.114 C 
ATOM     52  O   UNL     1      22.096  37.860  16.973  1.00  0.00    -0.275 OA
ENDBRANCH   7  48
ENDBRANCH   1   2
BRANCH   1  53
ATOM     53  O   UNL     1      23.117  34.915  15.235  1.00  0.00    -0.388 OA
ATOM     54  H   UNL     1      22.966  35.054  16.198  1.00  0.00     0.211 HD
ENDBRANCH   1  53
BRANCH   1  55
ATOM     55  C   UNL     1      24.571  33.821  13.790  1.00  0.00     0.165 C 
BRANCH  55  56
ATOM     56  O   UNL     1      25.746  33.864  13.089  1.00  0.00    -0.388 OA
ATOM     57  H   UNL     1      26.224  33.017  13.091  1.00  0.00     0.211 HD
ENDBRANCH  55  56
BRANCH  55  58
ATOM     58  C   UNL     1      23.395  33.838  12.874  1.00  0.00     0.154 C 
BRANCH  58  59
ATOM     59  N   UNL     1      23.618  34.864  11.853  1.00  0.00    -0.319 N 
ATOM     60  C   UNL     1      22.910  36.087  11.870  1.00  0.00     0.407 C 
ATOM     61  H   UNL     1      24.314  34.682  11.102  1.00  0.00     0.167 HD
ATOM     62  O   UNL     1      22.073  36.272  12.787  1.00  0.00    -0.225 OA
BRANCH  60  63
ATOM     63  O   UNL     1      23.142  37.049  10.895  1.00  0.00    -0.443 OA
BRANCH  63  64
ATOM     64  C   UNL     1      23.272  36.610   9.543  1.00  0.00     0.294 C 
BRANCH  64  65
ATOM     65  C   UNL     1      24.245  37.423   8.779  1.00  0.00     0.120 A 
ATOM     66  C   UNL     1      25.211  36.968   7.911  1.00  0.00     0.138 A 
ATOM     67  N   UNL     1      24.378  38.771   8.786  1.00  0.00    -0.132 NA
ATOM     68  N   UNL     1      25.864  38.029   7.448  1.00  0.00    -0.252 N 
ATOM     69  N   UNL     1      25.357  39.118   7.980  1.00  0.00    -0.067 NA
BRANCH  68  70
ATOM     70  C   UNL     1      26.979  37.965   6.502  1.00  0.00     0.150 C 
BRANCH  70  71
ATOM     71  C   UNL     1      28.125  37.125   7.075  1.00  0.00     0.022 C 
ATOM     72  C   UNL     1      28.375  36.027   6.064  1.00  0.00     0.011 C 
BRANCH  71  73
ATOM     73  C   UNL     1      29.328  37.996   7.253  1.00  0.00     0.089 C 
BRANCH  73  74
ATOM     74  N   UNL     1      29.270  39.039   8.191  1.00  0.00    -0.299 NA
ATOM     75  C   UNL     1      30.172  40.111   8.147  1.00  0.00     0.106 C 
ATOM     76  C   UNL     1      28.763  38.673   9.475  1.00  0.00     0.106 C 
ATOM     77  C   UNL     1      30.863  40.354   9.488  1.00  0.00     0.132 C 
ATOM     78  C   UNL     1      28.547  39.925  10.307  1.00  0.00     0.132 C 
ATOM     79  N   UNL     1      29.845  40.505  10.527  1.00  0.00    -0.369 N 
BRANCH  79  80
ATOM     80  C   UNL     1      30.163  41.199  11.701  1.00  0.00     0.037 A 
ATOM     81  C   UNL     1      31.447  41.672  11.958  1.00  0.00     0.027 A 
ATOM     82  C   UNL     1      29.224  41.475  12.687  1.00  0.00     0.027 A 
ATOM     83  C   UNL     1      31.783  42.362  13.098  1.00  0.00     0.022 A 
ATOM     84  C   UNL     1      29.558  42.168  13.833  1.00  0.00     0.022 A 
ATOM     85  C   UNL     1      30.839  42.622  14.057  1.00  0.00     0.041 A 
ATOM     86  Cl  UNL     1      31.262  43.492  15.493  1.00  0.00    -0.084 Cl
ENDBRANCH  79  80
ENDBRANCH  73  74
ENDBRANCH  71  73
ENDBRANCH  70  71
ENDBRANCH  68  70
ENDBRANCH  64  65
ENDBRANCH  63  64
ENDBRANCH  60  63
ENDBRANCH  58  59
ENDBRANCH  55  58
ENDBRANCH   1  55
TORSDOF 34
BEGIN_RES LYS A 131
REMARK  4 active torsions:
REMARK  status: ('A' for Active; 'I' for Inactive)
REMARK    1  A    between atoms: CA   and  CB  
REMARK    2  A    between atoms: CB   and  CG  
REMARK    3  A    between atoms: CG   and  CD  
REMARK    4  A    between atoms: CD   and  CE  
ROOT
ATOM      1  CA  LYS A 131      29.867  25.555  16.977  1.00 20.52     0.186 C 
ENDROOT
BRANCH   1   2
ATOM      2  CB  LYS A 131      28.345  25.722  17.026  1.00 20.94     0.034 C 
BRANCH   2   3
ATOM      3  CG  LYS A 131      27.599  24.476  16.574  1.00 22.96     0.005 C 
BRANCH   3   4
ATOM      4  CD  LYS A 131      27.140  23.639  17.735  1.00 24.33     0.041 C 
BRANCH   4   5
ATOM      5  CE  LYS A 131      26.141  24.432  18.572  1.00 26.91     0.338 C 
ATOM      6  NZ  LYS A 131      25.504  23.559  19.585  1.00 27.40     0.618 N 
ENDBRANCH   4   5
ENDBRANCH   3   4
ENDBRANCH   2   3
ENDBRANCH   1   2
END_RES LYS A 131
BEGIN_RES LYS A 135
REMARK  4 active torsions:
REMARK  status: ('A' for Active; 'I' for Inactive)
REMARK    5  A    between atoms: CA   and  CB  
REMARK    6  A    between atoms: CB   and  CG  
REMARK    7  A    between atoms: CG   and  CD  
REMARK    8  A    between atoms: CD   and  CE  
ROOT
ATOM      7  CA  LYS A 135      33.193  34.663   9.290  1.00 25.02     0.186 C 
ENDROOT
BRANCH   7   8
ATOM      8  CB  LYS A 135      32.060  35.360  10.034  1.00 26.63     0.034 C 
BRANCH   8   9
ATOM      9  CG  LYS A 135      30.798  35.493   9.222  1.00 29.45     0.005 C 
BRANCH   9  10
ATOM     10  CD  LYS A 135      30.104  34.146   9.085  1.00 32.00     0.041 C 
BRANCH  10  11
ATOM     11  CE  LYS A 135      28.840  34.111   9.923  1.00 34.25     0.338 C 
ATOM     12  NZ  LYS A 135      27.625  34.097   9.062  1.00 35.99     0.618 N 
ENDBRANCH  10  11
ENDBRANCH   9  10
ENDBRANCH   8   9
ENDBRANCH   7   8
END_RES LYS A 135
