REMARK VINA RESULT:    -4.692      1.831      2.256
REMARK INTER + INTRA:         -25.262
REMARK INTER:                 -11.572
REMARK INTRA:                 -13.690
REMARK UNBOUND:               -11.931
REMARK SMILES CC(=O)N[C@@H]1[C@@H](O)C[C@](OC[C@H]2O[C@@H](O[C@H]3[C@H](O)[C@@H](O)[C@H](OCCN=[N+]=[N-])O[C@@H]3CO)[C@H](O)[C@@H](O)[C@H]2O)(C(=O)O)O[C@H]1C(O)[C@H](O)CNC(=O)OCc1cn(CC(=O)NCC(O)Cn2ccnc2[N+](=O)[O-])nn1
REMARK SMILES IDX 47 1 45 2 43 3 42 4 9 5 8 6 41 7 6 8 5 9 10 10 11 11 12 12
REMARK SMILES IDX 14 13 13 14 32 15 34 16 36 17 15 18 16 19 29 20 28 21 21 22
REMARK SMILES IDX 17 23 19 24 30 25 31 26 22 28 23 29 24 30 25 31 26 32 27 33
REMARK SMILES IDX 18 34 20 36 33 38 35 40 37 42 38 44 39 45 40 46 7 48 4 50
REMARK SMILES IDX 2 51 1 53 3 54 44 55 46 57 48 59 49 60 50 62 51 63 52 64
REMARK SMILES IDX 53 65 54 66 73 67 55 68 72 69 56 70 57 71 58 72 59 73 60 75
REMARK SMILES IDX 61 76 62 77 63 79 64 80 65 81 68 82 66 83 67 84 69 85 70 86
REMARK SMILES IDX 71 87
REMARK H PARENT 31 27 18 35 20 37 33 39 35 41 37 43 40 47 7 49 4 52 44 56
REMARK H PARENT 46 58 48 61 59 74 62 78
REMARK Flexibility Score: inf
ROOT
ATOM      1  C   UNL     1      29.302  28.351  20.606  1.00  0.00     0.154 C 
ENDROOT
BRANCH   1   2
ATOM      2  C   UNL     1      29.233  29.808  20.921  1.00  0.00     0.165 C 
BRANCH   2   3
ATOM      3  C   UNL     1      29.791  30.728  19.901  1.00  0.00     0.176 C 
BRANCH   3   4
ATOM      4  C   UNL     1      28.874  31.441  18.995  1.00  0.00     0.178 C 
ATOM      5  C   UNL     1      27.960  31.556  16.861  1.00  0.00     0.272 C 
ATOM      6  C   UNL     1      26.921  32.316  17.608  1.00  0.00     0.113 C 
ATOM      7  O   UNL     1      28.935  30.980  17.697  1.00  0.00    -0.332 OA
ATOM      8  C   UNL     1      27.451  33.334  18.561  1.00  0.00     0.145 C 
ATOM      9  C   UNL     1      28.882  32.922  19.011  1.00  0.00     0.142 C 
BRANCH   5  10
ATOM     10  O   UNL     1      28.613  32.218  15.863  1.00  0.00    -0.338 OA
BRANCH  10  11
ATOM     11  C   UNL     1      29.797  31.710  15.430  1.00  0.00     0.199 C 
BRANCH  11  12
ATOM     12  C   UNL     1      30.833  32.780  15.143  1.00  0.00     0.179 C 
ATOM     13  C   UNL     1      31.256  34.583  13.728  1.00  0.00     0.282 C 
ATOM     14  O   UNL     1      30.765  33.293  13.897  1.00  0.00    -0.341 OA
ATOM     15  C   UNL     1      32.456  34.846  14.604  1.00  0.00     0.202 C 
ATOM     16  C   UNL     1      32.137  34.618  16.064  1.00  0.00     0.179 C 
ATOM     17  C   UNL     1      30.835  33.851  16.200  1.00  0.00     0.177 C 
BRANCH  13  18
ATOM     18  O   UNL     1      30.339  35.556  13.911  1.00  0.00    -0.341 OA
BRANCH  18  19
ATOM     19  C   UNL     1      29.414  35.852  12.984  1.00  0.00     0.184 C 
ATOM     20  C   UNL     1      29.352  37.273  12.494  1.00  0.00     0.178 C 
ATOM     21  O   UNL     1      28.670  37.236  11.275  1.00  0.00    -0.341 OA
ATOM     22  C   UNL     1      27.325  36.940  11.461  1.00  0.00     0.281 C 
ATOM     23  C   UNL     1      27.983  35.562  13.465  1.00  0.00     0.180 C 
ATOM     24  C   UNL     1      27.106  35.678  12.239  1.00  0.00     0.202 C 
BRANCH  20  25
ATOM     25  C   UNL     1      30.736  37.779  12.212  1.00  0.00     0.191 C 
BRANCH  25  26
ATOM     26  O   UNL     1      31.399  38.160  13.386  1.00  0.00    -0.394 OA
ATOM     27  H   UNL     1      30.685  38.121  14.098  1.00  0.00     0.210 HD
ENDBRANCH  25  26
ENDBRANCH  20  25
BRANCH  22  28
ATOM     28  O   UNL     1      26.766  36.757  10.198  1.00  0.00    -0.350 OA
BRANCH  28  29
ATOM     29  C   UNL     1      26.127  37.915   9.752  1.00  0.00     0.169 C 
BRANCH  29  30
ATOM     30  C   UNL     1      26.420  38.009   8.252  1.00  0.00     0.119 C 
BRANCH  30  31
ATOM     31  N   UNL     1      27.409  39.042   7.997  1.00  0.00    -0.092 NA
ATOM     32  N   UNL     1      28.599  38.670   7.918  1.00  0.00     0.001 N 
ATOM     33  N   UNL     1      29.719  38.344   7.546  1.00  0.00    -0.003 NA
ENDBRANCH  30  31
ENDBRANCH  29  30
ENDBRANCH  28  29
ENDBRANCH  22  28
BRANCH  23  34
ATOM     34  O   UNL     1      27.862  34.256  13.926  1.00  0.00    -0.387 OA
ATOM     35  H   UNL     1      28.273  33.690  13.199  1.00  0.00     0.211 HD
ENDBRANCH  23  34
BRANCH  24  36
ATOM     36  O   UNL     1      25.747  35.586  12.537  1.00  0.00    -0.385 OA
ATOM     37  H   UNL     1      25.623  35.856  13.494  1.00  0.00     0.211 HD
ENDBRANCH  24  36
ENDBRANCH  18  19
ENDBRANCH  13  18
BRANCH  15  38
ATOM     38  O   UNL     1      33.566  34.094  14.198  1.00  0.00    -0.385 OA
ATOM     39  H   UNL     1      34.365  34.624  14.513  1.00  0.00     0.211 HD
ENDBRANCH  15  38
BRANCH  16  40
ATOM     40  O   UNL     1      31.976  35.826  16.737  1.00  0.00    -0.387 OA
ATOM     41  H   UNL     1      31.149  35.836  17.302  1.00  0.00     0.211 HD
ENDBRANCH  16  40
BRANCH  17  42
ATOM     42  O   UNL     1      29.713  34.645  16.207  1.00  0.00    -0.387 OA
ATOM     43  H   UNL     1      28.873  34.129  16.352  1.00  0.00     0.211 HD
ENDBRANCH  17  42
ENDBRANCH  11  12
ENDBRANCH  10  11
ENDBRANCH   5  10
BRANCH   5  44
ATOM     44  C   UNL     1      27.270  30.346  16.278  1.00  0.00     0.364 C 
ATOM     45  O   UNL     1      27.709  29.231  16.616  1.00  0.00    -0.246 OA
BRANCH  44  46
ATOM     46  O   UNL     1      26.205  30.427  15.412  1.00  0.00    -0.477 OA
ATOM     47  H   UNL     1      25.389  31.024  15.636  1.00  0.00     0.296 HD
ENDBRANCH  44  46
ENDBRANCH   5  44
BRANCH   8  48
ATOM     48  O   UNL     1      27.430  34.632  18.166  1.00  0.00    -0.391 OA
ATOM     49  H   UNL     1      27.926  34.852  17.363  1.00  0.00     0.211 HD
ENDBRANCH   8  48
BRANCH   9  50
ATOM     50  N   UNL     1      29.120  33.572  20.244  1.00  0.00    -0.348 N 
ATOM     51  C   UNL     1      29.877  34.797  20.307  1.00  0.00     0.217 C 
ATOM     52  H   UNL     1      28.755  33.204  21.132  1.00  0.00     0.163 HD
ATOM     53  C   UNL     1      30.146  35.492  21.594  1.00  0.00     0.114 C 
ATOM     54  O   UNL     1      30.314  35.270  19.237  1.00  0.00    -0.275 OA
ENDBRANCH   9  50
ENDBRANCH   3   4
BRANCH   3  55
ATOM     55  O   UNL     1      30.778  30.003  19.186  1.00  0.00    -0.388 OA
ATOM     56  H   UNL     1      31.633  30.179  19.612  1.00  0.00     0.211 HD
ENDBRANCH   3  55
ENDBRANCH   2   3
BRANCH   2  57
ATOM     57  O   UNL     1      29.508  30.095  22.236  1.00  0.00    -0.388 OA
ATOM     58  H   UNL     1      28.773  30.470  22.754  1.00  0.00     0.211 HD
ENDBRANCH   2  57
ENDBRANCH   1   2
BRANCH   1  59
ATOM     59  N   UNL     1      28.376  28.014  19.560  1.00  0.00    -0.319 N 
ATOM     60  C   UNL     1      27.043  27.597  19.800  1.00  0.00     0.407 C 
ATOM     61  H   UNL     1      28.674  28.068  18.541  1.00  0.00     0.167 HD
ATOM     62  O   UNL     1      26.630  27.523  20.976  1.00  0.00    -0.225 OA
BRANCH  60  63
ATOM     63  O   UNL     1      26.146  27.257  18.810  1.00  0.00    -0.443 OA
BRANCH  63  64
ATOM     64  C   UNL     1      24.785  27.589  18.892  1.00  0.00     0.294 C 
BRANCH  64  65
ATOM     65  C   UNL     1      24.192  28.215  17.712  1.00  0.00     0.120 A 
ATOM     66  C   UNL     1      23.615  27.610  16.625  1.00  0.00     0.138 A 
ATOM     67  N   UNL     1      24.112  29.532  17.459  1.00  0.00    -0.132 NA
ATOM     68  N   UNL     1      23.207  28.563  15.755  1.00  0.00    -0.243 N 
ATOM     69  N   UNL     1      23.514  29.712  16.270  1.00  0.00    -0.067 NA
BRANCH  68  70
ATOM     70  C   UNL     1      22.524  28.334  14.487  1.00  0.00     0.245 C 
BRANCH  70  71
ATOM     71  C   UNL     1      22.813  29.460  13.574  1.00  0.00     0.241 C 
ATOM     72  O   UNL     1      23.531  29.298  12.531  1.00  0.00    -0.273 OA
ATOM     73  N   UNL     1      22.314  30.779  13.790  1.00  0.00    -0.352 N 
ATOM     74  H   UNL     1      21.726  30.962  14.622  1.00  0.00     0.163 HD
BRANCH  73  75
ATOM     75  C   UNL     1      22.649  31.819  12.836  1.00  0.00     0.151 C 
BRANCH  75  76
ATOM     76  C   UNL     1      23.493  32.898  13.440  1.00  0.00     0.168 C 
BRANCH  76  77
ATOM     77  O   UNL     1      24.634  32.402  14.046  1.00  0.00    -0.388 OA
ATOM     78  H   UNL     1      24.350  31.732  14.712  1.00  0.00     0.211 HD
ENDBRANCH  76  77
BRANCH  76  79
ATOM     79  C   UNL     1      22.629  33.639  14.449  1.00  0.00     0.239 C 
BRANCH  79  80
ATOM     80  N   UNL     1      22.890  35.049  14.440  1.00  0.00    -0.227 N 
ATOM     81  C   UNL     1      22.198  35.960  13.705  1.00  0.00     0.204 A 
ATOM     82  C   UNL     1      23.835  35.764  15.099  1.00  0.00     0.434 A 
ATOM     83  C   UNL     1      22.723  37.210  13.921  1.00  0.00     0.245 A 
ATOM     84  N   UNL     1      23.727  37.069  14.779  1.00  0.00    -0.074 NA
BRANCH  82  85
ATOM     85  N   UNL     1      24.791  35.220  16.007  1.00  0.00    -0.047 N 
ATOM     86  O   UNL     1      25.821  34.643  15.659  1.00  0.00    -0.390 OA
ATOM     87  O   UNL     1      24.542  35.338  17.367  1.00  0.00    -0.390 OA
ENDBRANCH  82  85
ENDBRANCH  79  80
ENDBRANCH  76  79
ENDBRANCH  75  76
ENDBRANCH  73  75
ENDBRANCH  70  71
ENDBRANCH  68  70
ENDBRANCH  64  65
ENDBRANCH  63  64
ENDBRANCH  60  63
ENDBRANCH   1  59
TORSDOF 37
BEGIN_RES LYS A 131
REMARK  4 active torsions:
REMARK  status: ('A' for Active; 'I' for Inactive)
REMARK    1  A    between atoms: CA   and  CB  
REMARK    2  A    between atoms: CB   and  CG  
REMARK    3  A    between atoms: CG   and  CD  
REMARK    4  A    between atoms: CD   and  CE  
ROOT
ATOM      1  CA  LYS A 131      29.867  25.555  16.977  1.00 20.52     0.186 C 
ENDROOT
BRANCH   1   2
ATOM      2  CB  LYS A 131      28.345  25.722  17.026  1.00 20.94     0.034 C 
BRANCH   2   3
ATOM      3  CG  LYS A 131      27.599  24.448  16.660  1.00 22.96     0.005 C 
BRANCH   3   4
ATOM      4  CD  LYS A 131      26.221  24.406  17.261  1.00 24.33     0.041 C 
BRANCH   4   5
ATOM      5  CE  LYS A 131      26.267  23.656  18.588  1.00 26.91     0.338 C 
ATOM      6  NZ  LYS A 131      25.070  23.971  19.404  1.00 27.40     0.618 N 
ENDBRANCH   4   5
ENDBRANCH   3   4
ENDBRANCH   2   3
ENDBRANCH   1   2
END_RES LYS A 131
BEGIN_RES LYS A 135
REMARK  4 active torsions:
REMARK  status: ('A' for Active; 'I' for Inactive)
REMARK    5  A    between atoms: CA   and  CB  
REMARK    6  A    between atoms: CB   and  CG  
REMARK    7  A    between atoms: CG   and  CD  
REMARK    8  A    between atoms: CD   and  CE  
ROOT
ATOM      7  CA  LYS A 135      33.193  34.663   9.290  1.00 25.02     0.186 C 
ENDROOT
BRANCH   7   8
ATOM      8  CB  LYS A 135      32.060  35.360  10.034  1.00 26.63     0.034 C 
BRANCH   8   9
ATOM      9  CG  LYS A 135      30.744  35.321   9.301  1.00 29.45     0.005 C 
BRANCH   9  10
ATOM     10  CD  LYS A 135      29.913  34.130   9.752  1.00 32.00     0.041 C 
BRANCH  10  11
ATOM     11  CE  LYS A 135      28.565  34.127   9.056  1.00 34.25     0.338 C 
ATOM     12  NZ  LYS A 135      28.597  34.959   7.822  1.00 35.99     0.618 N 
ENDBRANCH  10  11
ENDBRANCH   9  10
ENDBRANCH   8   9
ENDBRANCH   7   8
END_RES LYS A 135
