REMARK VINA RESULT:    -5.369      3.987     11.728
REMARK INTER + INTRA:         -25.349
REMARK INTER:                 -13.126
REMARK INTRA:                 -12.223
REMARK UNBOUND:               -11.349
REMARK SMILES CC(=O)N[C@@H]1[C@@H](O)C[C@](OC[C@H]2O[C@@H](O[C@H]3[C@H](O)[C@@H](O)[C@H](OCCN=[N+]=[N-])O[C@@H]3CO)[C@H](O)[C@@H](O)[C@H]2O)(C(=O)O)O[C@H]1C(O)[C@H](O)CNC(=O)OCc1cn(-c2ccc(-c3c4ccc(=O)cc-4oc4cc(O)ccc34)c(C(=O)[O-])c2)nn1
REMARK SMILES IDX 9 1 8 2 6 3 5 4 42 5 41 6 10 7 11 8 12 9 14 10 13 11 32 12
REMARK SMILES IDX 34 13 36 14 15 15 16 16 29 17 28 18 21 19 17 20 19 21 30 22
REMARK SMILES IDX 31 23 22 25 23 26 24 27 25 28 26 29 27 30 18 31 20 33 33 35
REMARK SMILES IDX 35 37 37 39 38 41 39 42 40 43 7 45 43 47 44 48 45 50 46 51
REMARK SMILES IDX 47 53 48 54 49 55 50 57 51 58 52 59 53 60 54 61 82 62 55 63
REMARK SMILES IDX 81 64 56 65 80 66 57 67 76 68 58 69 59 70 77 71 78 72 79 73
REMARK SMILES IDX 60 74 75 75 61 76 74 77 69 78 67 79 62 80 73 81 70 82 68 83
REMARK SMILES IDX 66 84 63 85 71 86 64 87 65 88 72 89 4 91 2 92 1 94 3 95
REMARK H PARENT 31 24 18 32 20 34 33 36 35 38 37 40 40 44 7 46 44 49 46 52
REMARK H PARENT 48 56 72 90 4 93
REMARK Flexibility Score: inf
ROOT
ATOM      1  C   UNL     1      30.846  32.485  20.923  1.00  0.00     0.272 C 
ATOM      2  C   UNL     1      32.108  32.244  21.714  1.00  0.00     0.113 C 
ATOM      3  C   UNL     1      32.267  30.818  22.160  1.00  0.00     0.145 C 
ATOM      4  C   UNL     1      30.928  30.138  22.022  1.00  0.00     0.142 C 
ATOM      5  C   UNL     1      29.900  31.095  22.564  1.00  0.00     0.178 C 
ATOM      6  O   UNL     1      29.699  32.113  21.666  1.00  0.00    -0.332 OA
ENDROOT
BRANCH   1   7
ATOM      7  O   UNL     1      30.792  31.903  19.687  1.00  0.00    -0.338 OA
BRANCH   7   8
ATOM      8  C   UNL     1      30.756  32.770  18.653  1.00  0.00     0.199 C 
BRANCH   8   9
ATOM      9  C   UNL     1      29.655  32.408  17.645  1.00  0.00     0.179 C 
ATOM     10  C   UNL     1      28.782  33.044  15.608  1.00  0.00     0.282 C 
ATOM     11  O   UNL     1      29.387  33.404  16.780  1.00  0.00    -0.341 OA
ATOM     12  C   UNL     1      27.942  31.830  15.673  1.00  0.00     0.202 C 
ATOM     13  C   UNL     1      28.651  30.655  16.305  1.00  0.00     0.179 C 
ATOM     14  C   UNL     1      29.937  31.117  16.970  1.00  0.00     0.177 C 
BRANCH  10  15
ATOM     15  O   UNL     1      29.767  33.075  14.622  1.00  0.00    -0.341 OA
BRANCH  15  16
ATOM     16  C   UNL     1      30.475  34.232  14.589  1.00  0.00     0.184 C 
ATOM     17  C   UNL     1      30.266  35.005  13.324  1.00  0.00     0.178 C 
ATOM     18  O   UNL     1      30.645  36.343  13.506  1.00  0.00    -0.341 OA
ATOM     19  C   UNL     1      31.839  36.437  14.211  1.00  0.00     0.281 C 
ATOM     20  C   UNL     1      31.996  34.007  14.653  1.00  0.00     0.180 C 
ATOM     21  C   UNL     1      32.685  35.223  14.071  1.00  0.00     0.202 C 
BRANCH  17  22
ATOM     22  C   UNL     1      28.822  34.974  12.925  1.00  0.00     0.191 C 
BRANCH  22  23
ATOM     23  O   UNL     1      28.203  36.137  13.386  1.00  0.00    -0.394 OA
ATOM     24  H   UNL     1      28.532  36.293  14.298  1.00  0.00     0.210 HD
ENDBRANCH  22  23
ENDBRANCH  17  22
BRANCH  19  25
ATOM     25  O   UNL     1      31.616  36.761  15.533  1.00  0.00    -0.350 OA
BRANCH  25  26
ATOM     26  C   UNL     1      30.569  37.650  15.733  1.00  0.00     0.169 C 
BRANCH  26  27
ATOM     27  C   UNL     1      31.176  39.041  15.699  1.00  0.00     0.119 C 
BRANCH  27  28
ATOM     28  N   UNL     1      30.449  39.923  14.826  1.00  0.00    -0.092 NA
ATOM     29  N   UNL     1      29.664  39.432  14.005  1.00  0.00     0.001 N 
ATOM     30  N   UNL     1      28.675  39.187  13.313  1.00  0.00    -0.003 NA
ENDBRANCH  27  28
ENDBRANCH  26  27
ENDBRANCH  25  26
ENDBRANCH  19  25
BRANCH  20  31
ATOM     31  O   UNL     1      32.325  33.945  16.004  1.00  0.00    -0.387 OA
ATOM     32  H   UNL     1      32.223  34.800  16.478  1.00  0.00     0.211 HD
ENDBRANCH  20  31
BRANCH  21  33
ATOM     33  O   UNL     1      33.129  35.023  12.763  1.00  0.00    -0.385 OA
ATOM     34  H   UNL     1      33.453  35.926  12.455  1.00  0.00     0.211 HD
ENDBRANCH  21  33
ENDBRANCH  15  16
ENDBRANCH  10  15
BRANCH  12  35
ATOM     35  O   UNL     1      26.745  32.093  16.388  1.00  0.00    -0.385 OA
ATOM     36  H   UNL     1      25.969  31.905  15.779  1.00  0.00     0.211 HD
ENDBRANCH  12  35
BRANCH  13  37
ATOM     37  O   UNL     1      28.850  29.614  15.413  1.00  0.00    -0.387 OA
ATOM     38  H   UNL     1      28.325  29.807  14.602  1.00  0.00     0.211 HD
ENDBRANCH  13  37
BRANCH  14  39
ATOM     39  O   UNL     1      30.921  31.174  15.992  1.00  0.00    -0.387 OA
ATOM     40  H   UNL     1      31.715  30.704  16.383  1.00  0.00     0.211 HD
ENDBRANCH  14  39
ENDBRANCH   8   9
ENDBRANCH   7   8
ENDBRANCH   1   7
BRANCH   1  41
ATOM     41  C   UNL     1      30.718  33.995  20.859  1.00  0.00     0.364 C 
ATOM     42  O   UNL     1      31.693  34.767  20.809  1.00  0.00    -0.246 OA
BRANCH  41  43
ATOM     43  O   UNL     1      29.457  34.583  20.854  1.00  0.00    -0.477 OA
ATOM     44  H   UNL     1      29.335  35.551  20.589  1.00  0.00     0.296 HD
ENDBRANCH  41  43
ENDBRANCH   1  41
BRANCH   3  45
ATOM     45  O   UNL     1      33.285  30.222  21.441  1.00  0.00    -0.391 OA
ATOM     46  H   UNL     1      34.133  30.411  21.912  1.00  0.00     0.211 HD
ENDBRANCH   3  45
BRANCH   5  47
ATOM     47  C   UNL     1      28.546  30.396  22.723  1.00  0.00     0.176 C 
BRANCH  47  48
ATOM     48  O   UNL     1      28.154  29.929  21.446  1.00  0.00    -0.388 OA
ATOM     49  H   UNL     1      27.241  30.171  21.223  1.00  0.00     0.211 HD
ENDBRANCH  47  48
BRANCH  47  50
ATOM     50  C   UNL     1      27.491  31.364  23.146  1.00  0.00     0.165 C 
BRANCH  50  51
ATOM     51  O   UNL     1      26.995  31.011  24.402  1.00  0.00    -0.388 OA
ATOM     52  H   UNL     1      26.865  30.028  24.423  1.00  0.00     0.211 HD
ENDBRANCH  50  51
BRANCH  50  53
ATOM     53  C   UNL     1      26.385  31.579  22.173  1.00  0.00     0.154 C 
BRANCH  53  54
ATOM     54  N   UNL     1      26.612  32.735  21.335  1.00  0.00    -0.319 N 
ATOM     55  C   UNL     1      26.778  32.684  19.931  1.00  0.00     0.407 C 
ATOM     56  H   UNL     1      26.665  33.715  21.749  1.00  0.00     0.167 HD
ATOM     57  O   UNL     1      26.731  31.589  19.338  1.00  0.00    -0.225 OA
BRANCH  55  58
ATOM     58  O   UNL     1      26.997  33.817  19.157  1.00  0.00    -0.443 OA
BRANCH  58  59
ATOM     59  C   UNL     1      26.013  34.850  19.020  1.00  0.00     0.294 C 
BRANCH  59  60
ATOM     60  C   UNL     1      25.407  34.658  17.678  1.00  0.00     0.121 A 
ATOM     61  C   UNL     1      25.675  35.371  16.543  1.00  0.00     0.144 A 
ATOM     62  N   UNL     1      24.469  33.735  17.323  1.00  0.00    -0.131 NA
ATOM     63  N   UNL     1      24.920  34.893  15.532  1.00  0.00    -0.220 N 
ATOM     64  N   UNL     1      24.198  33.898  16.042  1.00  0.00    -0.062 NA
BRANCH  63  65
ATOM     65  C   UNL     1      24.920  35.374  14.196  1.00  0.00     0.067 A 
ATOM     66  C   UNL     1      24.666  36.690  13.894  1.00  0.00     0.039 A 
ATOM     67  C   UNL     1      25.188  34.494  13.177  1.00  0.00     0.029 A 
ATOM     68  C   UNL     1      24.683  37.108  12.583  1.00  0.00     0.007 A 
ATOM     69  C   UNL     1      25.205  34.915  11.865  1.00  0.00     0.012 A 
ATOM     70  C   UNL     1      24.953  36.227  11.538  1.00  0.00    -0.008 A 
BRANCH  68  71
ATOM     71  C   UNL     1      24.417  38.503  12.225  1.00  0.00     0.072 C 
ATOM     72  O   UNL     1      23.265  38.909  11.943  1.00  0.00    -0.545 OA
ATOM     73  O   UNL     1      25.458  39.398  12.196  1.00  0.00    -0.545 OA
ENDBRANCH  68  71
BRANCH  70  74
ATOM     74  C   UNL     1      24.971  36.681  10.160  1.00  0.00     0.004 A 
ATOM     75  C   UNL     1      23.815  36.613   9.423  1.00  0.00     0.026 A 
ATOM     76  C   UNL     1      26.106  37.174   9.568  1.00  0.00     0.026 A 
ATOM     77  C   UNL     1      22.632  36.133   9.933  1.00  0.00     0.016 A 
ATOM     78  C   UNL     1      23.850  37.049   8.103  1.00  0.00     0.139 A 
ATOM     79  C   UNL     1      26.092  37.626   8.160  1.00  0.00     0.139 A 
ATOM     80  C   UNL     1      27.297  37.273  10.241  1.00  0.00     0.016 A 
ATOM     81  C   UNL     1      21.473  36.068   9.182  1.00  0.00     0.047 A 
ATOM     82  C   UNL     1      22.695  36.981   7.363  1.00  0.00     0.093 A 
ATOM     83  O   UNL     1      24.945  37.521   7.541  1.00  0.00    -0.456 OA
ATOM     84  C   UNL     1      27.230  38.119   7.572  1.00  0.00     0.099 A 
ATOM     85  C   UNL     1      28.436  37.772   9.634  1.00  0.00     0.053 A 
ATOM     86  C   UNL     1      21.498  36.498   7.873  1.00  0.00     0.119 A 
ATOM     87  C   UNL     1      28.384  38.185   8.315  1.00  0.00     0.182 A 
ATOM     88  O   UNL     1      29.455  38.630   7.820  1.00  0.00    -0.290 OA
BRANCH  86  89
ATOM     89  O   UNL     1      20.331  36.430   7.127  1.00  0.00    -0.508 OA
ATOM     90  H   UNL     1      20.337  36.910   6.230  1.00  0.00     0.293 HD
ENDBRANCH  86  89
ENDBRANCH  70  74
ENDBRANCH  63  65
ENDBRANCH  59  60
ENDBRANCH  58  59
ENDBRANCH  55  58
ENDBRANCH  53  54
ENDBRANCH  50  53
ENDBRANCH  47  50
ENDBRANCH   5  47
BRANCH   4  91
ATOM     91  N   UNL     1      30.886  28.855  22.691  1.00  0.00    -0.348 N 
ATOM     92  C   UNL     1      30.610  27.704  21.926  1.00  0.00     0.217 C 
ATOM     93  H   UNL     1      31.049  28.738  23.715  1.00  0.00     0.163 HD
ATOM     94  C   UNL     1      30.540  26.340  22.507  1.00  0.00     0.114 C 
ATOM     95  O   UNL     1      30.400  27.780  20.666  1.00  0.00    -0.275 OA
ENDBRANCH   4  91
TORSDOF 33
BEGIN_RES LYS A 131
REMARK  4 active torsions:
REMARK  status: ('A' for Active; 'I' for Inactive)
REMARK    1  A    between atoms: CA   and  CB  
REMARK    2  A    between atoms: CB   and  CG  
REMARK    3  A    between atoms: CG   and  CD  
REMARK    4  A    between atoms: CD   and  CE  
ROOT
ATOM      1  CA  LYS A 131      29.867  25.555  16.977  1.00 20.52     0.186 C 
ENDROOT
BRANCH   1   2
ATOM      2  CB  LYS A 131      28.345  25.722  17.026  1.00 20.94     0.034 C 
BRANCH   2   3
ATOM      3  CG  LYS A 131      27.602  24.399  16.920  1.00 22.96     0.005 C 
BRANCH   3   4
ATOM      4  CD  LYS A 131      26.152  24.533  17.294  1.00 24.33     0.041 C 
BRANCH   4   5
ATOM      5  CE  LYS A 131      25.972  24.181  18.767  1.00 26.91     0.338 C 
ATOM      6  NZ  LYS A 131      25.712  25.403  19.565  1.00 27.40     0.618 N 
ENDBRANCH   4   5
ENDBRANCH   3   4
ENDBRANCH   2   3
ENDBRANCH   1   2
END_RES LYS A 131
BEGIN_RES LYS A 135
REMARK  4 active torsions:
REMARK  status: ('A' for Active; 'I' for Inactive)
REMARK    5  A    between atoms: CA   and  CB  
REMARK    6  A    between atoms: CB   and  CG  
REMARK    7  A    between atoms: CG   and  CD  
REMARK    8  A    between atoms: CD   and  CE  
ROOT
ATOM      7  CA  LYS A 135      33.193  34.663   9.290  1.00 25.02     0.186 C 
ENDROOT
BRANCH   7   8
ATOM      8  CB  LYS A 135      32.060  35.360  10.034  1.00 26.63     0.034 C 
BRANCH   8   9
ATOM      9  CG  LYS A 135      30.712  34.726   9.809  1.00 29.45     0.005 C 
BRANCH   9  10
ATOM     10  CD  LYS A 135      30.295  34.855   8.351  1.00 32.00     0.041 C 
BRANCH  10  11
ATOM     11  CE  LYS A 135      28.839  34.466   8.177  1.00 34.25     0.338 C 
ATOM     12  NZ  LYS A 135      28.290  33.871   9.427  1.00 35.99     0.618 N 
ENDBRANCH  10  11
ENDBRANCH   9  10
ENDBRANCH   8   9
ENDBRANCH   7   8
END_RES LYS A 135
