REMARK VINA RESULT:    -4.262      5.880     10.855
REMARK INTER + INTRA:         -21.915
REMARK INTER:                 -10.432
REMARK INTRA:                 -11.484
REMARK UNBOUND:               -10.427
REMARK SMILES CCN(CC)CCn1cc(COC(=O)NC[C@@H](O)C(O)[C@@H]2O[C@@](OC[C@H]3O[C@@H](O[C@H]4[C@H](O)[C@@H](O)[C@H](OCCN=[N+]=[N-])O[C@@H]4CO)[C@H](O)[C@@H](O)[C@H]3O)(C(=O)O)C[C@H](O)[C@H]2NC(C)=O)nn1
REMARK SMILES IDX 19 1 21 2 23 3 55 4 22 5 56 6 58 7 24 8 25 9 26 10 28 11
REMARK SMILES IDX 27 12 46 13 48 14 50 15 29 16 30 17 43 18 42 19 35 20 31 21
REMARK SMILES IDX 33 22 44 23 45 24 36 26 37 27 38 28 39 29 40 30 41 31 32 32
REMARK SMILES IDX 34 34 47 36 49 38 51 40 52 42 53 43 54 44 57 46 59 48 60 49
REMARK SMILES IDX 61 51 62 52 20 53 17 55 18 56 16 58 15 59 13 60 14 62 12 63
REMARK SMILES IDX 11 64 10 65 9 66 63 67 8 68 64 69 7 70 6 71 3 72 2 73 1 74
REMARK SMILES IDX 4 75 5 76
REMARK H PARENT 45 25 32 33 34 35 47 37 49 39 51 41 54 45 57 47 59 50 20 54
REMARK H PARENT 18 57 15 61
REMARK Flexibility Score: inf
ROOT
ATOM      1  C   UNL     1      30.237  39.770   7.975  1.00  0.00     0.176 C 
ENDROOT
BRANCH   1   2
ATOM      2  C   UNL     1      29.156  39.262   7.059  1.00  0.00     0.178 C 
ATOM      3  C   UNL     1      27.529  39.910   5.564  1.00  0.00     0.272 C 
ATOM      4  C   UNL     1      27.511  38.382   5.400  1.00  0.00     0.113 C 
ATOM      5  O   UNL     1      28.563  40.303   6.385  1.00  0.00    -0.332 OA
ATOM      6  C   UNL     1      27.402  37.644   6.694  1.00  0.00     0.145 C 
ATOM      7  C   UNL     1      28.051  38.518   7.778  1.00  0.00     0.142 C 
BRANCH   3   8
ATOM      8  O   UNL     1      26.278  40.271   6.003  1.00  0.00    -0.338 OA
BRANCH   8   9
ATOM      9  C   UNL     1      26.001  41.615   6.007  1.00  0.00     0.199 C 
BRANCH   9  10
ATOM     10  C   UNL     1      24.580  41.889   6.532  1.00  0.00     0.179 C 
ATOM     11  C   UNL     1      22.985  40.447   7.485  1.00  0.00     0.282 C 
ATOM     12  O   UNL     1      23.933  40.706   6.506  1.00  0.00    -0.341 OA
ATOM     13  C   UNL     1      22.379  41.680   8.026  1.00  0.00     0.202 C 
ATOM     14  C   UNL     1      23.376  42.672   8.556  1.00  0.00     0.179 C 
ATOM     15  C   UNL     1      24.729  42.418   7.927  1.00  0.00     0.177 C 
BRANCH  11  16
ATOM     16  O   UNL     1      23.616  39.586   8.371  1.00  0.00    -0.341 OA
BRANCH  16  17
ATOM     17  C   UNL     1      22.823  38.624   8.890  1.00  0.00     0.184 C 
ATOM     18  C   UNL     1      23.095  38.360  10.349  1.00  0.00     0.178 C 
ATOM     19  O   UNL     1      22.130  37.416  10.806  1.00  0.00    -0.341 OA
ATOM     20  C   UNL     1      22.547  36.161  10.419  1.00  0.00     0.281 C 
ATOM     21  C   UNL     1      22.948  37.283   8.176  1.00  0.00     0.180 C 
ATOM     22  C   UNL     1      23.204  36.143   9.109  1.00  0.00     0.202 C 
BRANCH  18  23
ATOM     23  C   UNL     1      23.142  39.556  11.228  1.00  0.00     0.191 C 
BRANCH  23  24
ATOM     24  O   UNL     1      24.381  40.162  11.064  1.00  0.00    -0.394 OA
ATOM     25  H   UNL     1      24.787  40.476  11.910  1.00  0.00     0.210 HD
ENDBRANCH  23  24
ENDBRANCH  18  23
BRANCH  20  26
ATOM     26  O   UNL     1      21.546  35.208  10.583  1.00  0.00    -0.350 OA
BRANCH  26  27
ATOM     27  C   UNL     1      21.352  34.793  11.866  1.00  0.00     0.169 C 
BRANCH  27  28
ATOM     28  C   UNL     1      22.019  33.463  12.166  1.00  0.00     0.119 C 
BRANCH  28  29
ATOM     29  N   UNL     1      23.204  33.641  12.982  1.00  0.00    -0.092 NA
ATOM     30  N   UNL     1      24.209  34.241  12.582  1.00  0.00     0.001 N 
ATOM     31  N   UNL     1      25.309  34.401  12.048  1.00  0.00    -0.003 NA
ENDBRANCH  28  29
ENDBRANCH  27  28
ENDBRANCH  26  27
ENDBRANCH  20  26
BRANCH  21  32
ATOM     32  O   UNL     1      21.779  37.051   7.478  1.00  0.00    -0.387 OA
ATOM     33  H   UNL     1      21.276  36.268   7.781  1.00  0.00     0.211 HD
ENDBRANCH  21  32
BRANCH  22  34
ATOM     34  O   UNL     1      24.594  35.928   9.284  1.00  0.00    -0.385 OA
ATOM     35  H   UNL     1      24.792  35.065   8.836  1.00  0.00     0.211 HD
ENDBRANCH  22  34
ENDBRANCH  16  17
ENDBRANCH  11  16
BRANCH  13  36
ATOM     36  O   UNL     1      21.682  42.334   6.968  1.00  0.00    -0.385 OA
ATOM     37  H   UNL     1      20.805  41.937   6.829  1.00  0.00     0.211 HD
ENDBRANCH  13  36
BRANCH  14  38
ATOM     38  O   UNL     1      23.452  42.715   9.939  1.00  0.00    -0.387 OA
ATOM     39  H   UNL     1      24.355  42.614  10.280  1.00  0.00     0.211 HD
ENDBRANCH  14  38
BRANCH  15  40
ATOM     40  O   UNL     1      25.384  41.467   8.697  1.00  0.00    -0.387 OA
ATOM     41  H   UNL     1      25.339  41.716   9.665  1.00  0.00     0.211 HD
ENDBRANCH  15  40
ENDBRANCH   9  10
ENDBRANCH   8   9
ENDBRANCH   3   8
BRANCH   3  42
ATOM     42  C   UNL     1      27.781  40.422   4.194  1.00  0.00     0.364 C 
ATOM     43  O   UNL     1      28.777  41.187   3.958  1.00  0.00    -0.246 OA
BRANCH  42  44
ATOM     44  O   UNL     1      26.999  40.133   3.094  1.00  0.00    -0.477 OA
ATOM     45  H   UNL     1      26.069  39.748   3.220  1.00  0.00     0.296 HD
ENDBRANCH  42  44
ENDBRANCH   3  42
BRANCH   6  46
ATOM     46  O   UNL     1      26.137  37.226   7.028  1.00  0.00    -0.391 OA
ATOM     47  H   UNL     1      26.022  37.383   8.000  1.00  0.00     0.211 HD
ENDBRANCH   6  46
BRANCH   7  48
ATOM     48  N   UNL     1      28.479  37.743   8.892  1.00  0.00    -0.348 N 
ATOM     49  C   UNL     1      27.603  37.651  10.035  1.00  0.00     0.217 C 
ATOM     50  H   UNL     1      29.373  37.224   8.965  1.00  0.00     0.163 HD
ATOM     51  C   UNL     1      27.984  36.861  11.233  1.00  0.00     0.114 C 
ATOM     52  O   UNL     1      26.488  38.236  10.056  1.00  0.00    -0.275 OA
ENDBRANCH   7  48
ENDBRANCH   1   2
BRANCH   1  53
ATOM     53  O   UNL     1      31.273  38.844   7.983  1.00  0.00    -0.388 OA
ATOM     54  H   UNL     1      31.005  38.055   8.551  1.00  0.00     0.211 HD
ENDBRANCH   1  53
BRANCH   1  55
ATOM     55  C   UNL     1      30.738  41.062   7.383  1.00  0.00     0.165 C 
BRANCH  55  56
ATOM     56  O   UNL     1      31.460  40.782   6.217  1.00  0.00    -0.388 OA
ATOM     57  H   UNL     1      32.100  41.520   6.069  1.00  0.00     0.211 HD
ENDBRANCH  55  56
BRANCH  55  58
ATOM     58  C   UNL     1      31.560  41.905   8.286  1.00  0.00     0.154 C 
BRANCH  58  59
ATOM     59  N   UNL     1      31.720  41.379   9.598  1.00  0.00    -0.319 N 
ATOM     60  C   UNL     1      30.883  41.868  10.658  1.00  0.00     0.407 C 
ATOM     61  H   UNL     1      32.419  40.668   9.813  1.00  0.00     0.167 HD
ATOM     62  O   UNL     1      30.025  42.748  10.445  1.00  0.00    -0.225 OA
BRANCH  60  63
ATOM     63  O   UNL     1      31.053  41.337  11.926  1.00  0.00    -0.443 OA
BRANCH  63  64
ATOM     64  C   UNL     1      30.229  40.226  12.316  1.00  0.00     0.294 C 
BRANCH  64  65
ATOM     65  C   UNL     1      31.012  39.000  12.111  1.00  0.00     0.120 A 
ATOM     66  C   UNL     1      31.121  37.981  13.063  1.00  0.00     0.138 A 
ATOM     67  N   UNL     1      31.739  38.590  11.075  1.00  0.00    -0.132 NA
ATOM     68  N   UNL     1      31.902  37.007  12.564  1.00  0.00    -0.251 N 
ATOM     69  N   UNL     1      32.261  37.397  11.369  1.00  0.00    -0.067 NA
BRANCH  68  70
ATOM     70  C   UNL     1      32.284  35.765  13.208  1.00  0.00     0.161 C 
BRANCH  70  71
ATOM     71  C   UNL     1      31.142  34.787  13.034  1.00  0.00     0.108 C 
BRANCH  71  72
ATOM     72  N   UNL     1      30.795  34.095  14.241  1.00  0.00    -0.302 NA
BRANCH  72  73
ATOM     73  C   UNL     1      29.766  34.773  14.982  1.00  0.00     0.081 C 
ATOM     74  C   UNL     1      28.425  34.489  14.315  1.00  0.00     0.021 C 
ENDBRANCH  72  73
BRANCH  72  75
ATOM     75  C   UNL     1      31.930  33.743  15.037  1.00  0.00     0.081 C 
ATOM     76  C   UNL     1      31.695  34.076  16.496  1.00  0.00     0.021 C 
ENDBRANCH  72  75
ENDBRANCH  71  72
ENDBRANCH  70  71
ENDBRANCH  68  70
ENDBRANCH  64  65
ENDBRANCH  63  64
ENDBRANCH  60  63
ENDBRANCH  58  59
ENDBRANCH  55  58
ENDBRANCH   1  55
TORSDOF 34
BEGIN_RES LYS A 131
REMARK  4 active torsions:
REMARK  status: ('A' for Active; 'I' for Inactive)
REMARK    1  A    between atoms: CA   and  CB  
REMARK    2  A    between atoms: CB   and  CG  
REMARK    3  A    between atoms: CG   and  CD  
REMARK    4  A    between atoms: CD   and  CE  
ROOT
ATOM      1  CA  LYS A 131      29.867  25.555  16.977  1.00 20.52     0.186 C 
ENDROOT
BRANCH   1   2
ATOM      2  CB  LYS A 131      28.345  25.722  17.026  1.00 20.94     0.034 C 
BRANCH   2   3
ATOM      3  CG  LYS A 131      27.602  24.399  16.927  1.00 22.96     0.005 C 
BRANCH   3   4
ATOM      4  CD  LYS A 131      26.152  24.533  17.303  1.00 24.33     0.041 C 
BRANCH   4   5
ATOM      5  CE  LYS A 131      25.636  23.197  17.827  1.00 26.91     0.338 C 
ATOM      6  NZ  LYS A 131      25.506  23.234  19.303  1.00 27.40     0.618 N 
ENDBRANCH   4   5
ENDBRANCH   3   4
ENDBRANCH   2   3
ENDBRANCH   1   2
END_RES LYS A 131
BEGIN_RES LYS A 135
REMARK  4 active torsions:
REMARK  status: ('A' for Active; 'I' for Inactive)
REMARK    5  A    between atoms: CA   and  CB  
REMARK    6  A    between atoms: CB   and  CG  
REMARK    7  A    between atoms: CG   and  CD  
REMARK    8  A    between atoms: CD   and  CE  
ROOT
ATOM      7  CA  LYS A 135      33.193  34.663   9.290  1.00 25.02     0.186 C 
ENDROOT
BRANCH   7   8
ATOM      8  CB  LYS A 135      32.060  35.360  10.034  1.00 26.63     0.034 C 
BRANCH   8   9
ATOM      9  CG  LYS A 135      30.792  35.476   9.228  1.00 29.45     0.005 C 
BRANCH   9  10
ATOM     10  CD  LYS A 135      30.140  34.113   9.055  1.00 32.00     0.041 C 
BRANCH  10  11
ATOM     11  CE  LYS A 135      28.703  34.264   8.594  1.00 34.25     0.338 C 
ATOM     12  NZ  LYS A 135      27.756  33.706   9.599  1.00 35.99     0.618 N 
ENDBRANCH  10  11
ENDBRANCH   9  10
ENDBRANCH   8   9
ENDBRANCH   7   8
END_RES LYS A 135
