REMARK VINA RESULT:    -5.562      2.980      7.820
REMARK INTER + INTRA:         -25.852
REMARK INTER:                 -13.251
REMARK INTRA:                 -12.601
REMARK UNBOUND:               -11.349
REMARK SMILES CC(=O)N[C@@H]1[C@@H](O)C[C@](OC[C@H]2O[C@@H](O[C@H]3[C@H](O)[C@@H](O)[C@H](OCCN=[N+]=[N-])O[C@@H]3CO)[C@H](O)[C@@H](O)[C@H]2O)(C(=O)O)O[C@H]1C(O)[C@H](O)CNC(=O)OCc1cn(-c2ccc(-c3c4ccc(=O)cc-4oc4cc(O)ccc34)c(C(=O)[O-])c2)nn1
REMARK SMILES IDX 9 1 8 2 6 3 5 4 42 5 41 6 10 7 11 8 12 9 14 10 13 11 32 12
REMARK SMILES IDX 34 13 36 14 15 15 16 16 29 17 28 18 21 19 17 20 19 21 30 22
REMARK SMILES IDX 31 23 22 25 23 26 24 27 25 28 26 29 27 30 18 31 20 33 33 35
REMARK SMILES IDX 35 37 37 39 38 41 39 42 40 43 7 45 43 47 44 48 45 50 46 51
REMARK SMILES IDX 47 53 48 54 49 55 50 57 51 58 52 59 53 60 54 61 82 62 55 63
REMARK SMILES IDX 81 64 56 65 80 66 57 67 76 68 58 69 59 70 77 71 78 72 79 73
REMARK SMILES IDX 60 74 75 75 61 76 74 77 69 78 67 79 62 80 73 81 70 82 68 83
REMARK SMILES IDX 66 84 63 85 71 86 64 87 65 88 72 89 4 91 2 92 1 94 3 95
REMARK H PARENT 31 24 18 32 20 34 33 36 35 38 37 40 40 44 7 46 44 49 46 52
REMARK H PARENT 48 56 72 90 4 93
REMARK Flexibility Score: inf
ROOT
ATOM      1  C   UNL     1      30.444  35.061  14.118  1.00  0.00     0.272 C 
ATOM      2  C   UNL     1      29.641  34.508  12.967  1.00  0.00     0.113 C 
ATOM      3  C   UNL     1      28.237  34.130  13.349  1.00  0.00     0.145 C 
ATOM      4  C   UNL     1      28.173  34.047  14.853  1.00  0.00     0.142 C 
ATOM      5  C   UNL     1      29.410  33.312  15.298  1.00  0.00     0.178 C 
ATOM      6  O   UNL     1      30.502  34.137  15.191  1.00  0.00    -0.332 OA
ENDROOT
BRANCH   1   7
ATOM      7  O   UNL     1      30.052  36.281  14.593  1.00  0.00    -0.338 OA
BRANCH   7   8
ATOM      8  C   UNL     1      30.565  37.339  13.929  1.00  0.00     0.199 C 
BRANCH   8   9
ATOM      9  C   UNL     1      29.469  38.325  13.497  1.00  0.00     0.179 C 
ATOM     10  C   UNL     1      27.795  38.604  11.936  1.00  0.00     0.282 C 
ATOM     11  O   UNL     1      29.031  38.105  12.243  1.00  0.00    -0.341 OA
ATOM     12  C   UNL     1      27.385  39.801  12.700  1.00  0.00     0.202 C 
ATOM     13  C   UNL     1      27.550  39.633  14.192  1.00  0.00     0.179 C 
ATOM     14  C   UNL     1      28.369  38.387  14.490  1.00  0.00     0.177 C 
BRANCH  10  15
ATOM     15  O   UNL     1      26.914  37.523  11.938  1.00  0.00    -0.341 OA
BRANCH  15  16
ATOM     16  C   UNL     1      25.965  37.588  10.971  1.00  0.00     0.184 C 
ATOM     17  C   UNL     1      24.659  36.993  11.399  1.00  0.00     0.178 C 
ATOM     18  O   UNL     1      23.623  37.455  10.575  1.00  0.00    -0.341 OA
ATOM     19  C   UNL     1      24.004  37.455   9.238  1.00  0.00     0.281 C 
ATOM     20  C   UNL     1      26.346  36.803   9.702  1.00  0.00     0.180 C 
ATOM     21  C   UNL     1      25.078  36.468   8.947  1.00  0.00     0.202 C 
BRANCH  17  22
ATOM     22  C   UNL     1      24.347  37.379  12.812  1.00  0.00     0.191 C 
BRANCH  22  23
ATOM     23  O   UNL     1      24.894  36.423  13.670  1.00  0.00    -0.394 OA
ATOM     24  H   UNL     1      25.717  36.096  13.245  1.00  0.00     0.210 HD
ENDBRANCH  22  23
ENDBRANCH  17  22
BRANCH  19  25
ATOM     25  O   UNL     1      24.340  38.723   8.813  1.00  0.00    -0.350 OA
BRANCH  25  26
ATOM     26  C   UNL     1      23.890  39.034   7.536  1.00  0.00     0.169 C 
BRANCH  26  27
ATOM     27  C   UNL     1      23.019  40.269   7.678  1.00  0.00     0.119 C 
BRANCH  27  28
ATOM     28  N   UNL     1      22.122  40.167   8.798  1.00  0.00    -0.092 NA
ATOM     29  N   UNL     1      21.125  39.441   8.696  1.00  0.00     0.001 N 
ATOM     30  N   UNL     1      20.243  38.607   8.902  1.00  0.00    -0.003 NA
ENDBRANCH  27  28
ENDBRANCH  26  27
ENDBRANCH  25  26
ENDBRANCH  19  25
BRANCH  20  31
ATOM     31  O   UNL     1      27.087  37.677   8.911  1.00  0.00    -0.387 OA
ATOM     32  H   UNL     1      26.654  38.545   8.765  1.00  0.00     0.211 HD
ENDBRANCH  20  31
BRANCH  21  33
ATOM     33  O   UNL     1      24.663  35.149   9.137  1.00  0.00    -0.385 OA
ATOM     34  H   UNL     1      25.050  34.638   8.360  1.00  0.00     0.211 HD
ENDBRANCH  21  33
ENDBRANCH  15  16
ENDBRANCH  10  15
BRANCH  12  35
ATOM     35  O   UNL     1      28.118  40.938  12.273  1.00  0.00    -0.385 OA
ATOM     36  H   UNL     1      28.185  41.575  13.045  1.00  0.00     0.211 HD
ENDBRANCH  12  35
BRANCH  13  37
ATOM     37  O   UNL     1      26.340  39.655  14.865  1.00  0.00    -0.387 OA
ATOM     38  H   UNL     1      26.034  40.591  14.906  1.00  0.00     0.211 HD
ENDBRANCH  13  37
BRANCH  14  39
ATOM     39  O   UNL     1      27.506  37.300  14.472  1.00  0.00    -0.387 OA
ATOM     40  H   UNL     1      27.213  37.175  15.422  1.00  0.00     0.211 HD
ENDBRANCH  14  39
ENDBRANCH   8   9
ENDBRANCH   7   8
ENDBRANCH   1   7
BRANCH   1  41
ATOM     41  C   UNL     1      31.876  35.067  13.616  1.00  0.00     0.364 C 
ATOM     42  O   UNL     1      32.864  35.216  14.356  1.00  0.00    -0.246 OA
BRANCH  41  43
ATOM     43  O   UNL     1      32.133  34.898  12.258  1.00  0.00    -0.477 OA
ATOM     44  H   UNL     1      32.257  35.695  11.649  1.00  0.00     0.296 HD
ENDBRANCH  41  43
ENDBRANCH   1  41
BRANCH   3  45
ATOM     45  O   UNL     1      27.350  35.030  12.791  1.00  0.00    -0.391 OA
ATOM     46  H   UNL     1      26.581  35.113  13.408  1.00  0.00     0.211 HD
ENDBRANCH   3  45
BRANCH   5  47
ATOM     47  C   UNL     1      29.308  32.934  16.779  1.00  0.00     0.176 C 
BRANCH  47  48
ATOM     48  O   UNL     1      29.460  34.122  17.534  1.00  0.00    -0.388 OA
ATOM     49  H   UNL     1      30.354  34.222  17.898  1.00  0.00     0.211 HD
ENDBRANCH  47  48
BRANCH  47  50
ATOM     50  C   UNL     1      30.438  32.046  17.184  1.00  0.00     0.165 C 
BRANCH  50  51
ATOM     51  O   UNL     1      30.585  31.011  16.259  1.00  0.00    -0.388 OA
ATOM     52  H   UNL     1      29.901  31.122  15.550  1.00  0.00     0.211 HD
ENDBRANCH  50  51
BRANCH  50  53
ATOM     53  C   UNL     1      30.379  31.519  18.574  1.00  0.00     0.154 C 
BRANCH  53  54
ATOM     54  N   UNL     1      29.574  30.322  18.671  1.00  0.00    -0.319 N 
ATOM     55  C   UNL     1      28.283  30.271  19.247  1.00  0.00     0.407 C 
ATOM     56  H   UNL     1      29.927  29.388  18.299  1.00  0.00     0.167 HD
ATOM     57  O   UNL     1      27.767  31.306  19.712  1.00  0.00    -0.225 OA
BRANCH  55  58
ATOM     58  O   UNL     1      27.539  29.100  19.325  1.00  0.00    -0.443 OA
BRANCH  58  59
ATOM     59  C   UNL     1      27.411  28.202  18.217  1.00  0.00     0.294 C 
BRANCH  59  60
ATOM     60  C   UNL     1      26.906  29.021  17.086  1.00  0.00     0.121 A 
ATOM     61  C   UNL     1      25.609  29.140  16.668  1.00  0.00     0.144 A 
ATOM     62  N   UNL     1      27.639  29.810  16.250  1.00  0.00    -0.131 NA
ATOM     63  N   UNL     1      25.560  29.976  15.610  1.00  0.00    -0.220 N 
ATOM     64  N   UNL     1      26.812  30.365  15.383  1.00  0.00    -0.062 NA
BRANCH  63  65
ATOM     65  C   UNL     1      24.389  30.351  14.902  1.00  0.00     0.067 A 
ATOM     66  C   UNL     1      23.209  30.643  15.544  1.00  0.00     0.039 A 
ATOM     67  C   UNL     1      24.441  30.428  13.533  1.00  0.00     0.029 A 
ATOM     68  C   UNL     1      22.102  31.006  14.813  1.00  0.00     0.007 A 
ATOM     69  C   UNL     1      23.330  30.792  12.802  1.00  0.00     0.012 A 
ATOM     70  C   UNL     1      22.139  31.089  13.423  1.00  0.00    -0.008 A 
BRANCH  68  71
ATOM     71  C   UNL     1      20.830  31.324  15.465  1.00  0.00     0.072 C 
ATOM     72  O   UNL     1      20.542  32.489  15.828  1.00  0.00    -0.545 OA
ATOM     73  O   UNL     1      19.920  30.319  15.687  1.00  0.00    -0.545 OA
ENDBRANCH  68  71
BRANCH  70  74
ATOM     74  C   UNL     1      20.964  31.476  12.663  1.00  0.00     0.004 A 
ATOM     75  C   UNL     1      20.767  32.804  12.376  1.00  0.00     0.026 A 
ATOM     76  C   UNL     1      20.043  30.560  12.223  1.00  0.00     0.026 A 
ATOM     77  C   UNL     1      21.637  33.791  12.776  1.00  0.00     0.016 A 
ATOM     78  C   UNL     1      19.636  33.159  11.650  1.00  0.00     0.139 A 
ATOM     79  C   UNL     1      18.855  30.987  11.453  1.00  0.00     0.139 A 
ATOM     80  C   UNL     1      20.173  29.217  12.471  1.00  0.00     0.016 A 
ATOM     81  C   UNL     1      21.429  35.126  12.482  1.00  0.00     0.047 A 
ATOM     82  C   UNL     1      19.436  34.487  11.362  1.00  0.00     0.093 A 
ATOM     83  O   UNL     1      18.755  32.272  11.231  1.00  0.00    -0.456 OA
ATOM     84  C   UNL     1      17.937  30.067  11.016  1.00  0.00     0.099 A 
ATOM     85  C   UNL     1      19.238  28.301  12.023  1.00  0.00     0.053 A 
ATOM     86  C   UNL     1      20.311  35.487  11.763  1.00  0.00     0.119 A 
ATOM     87  C   UNL     1      18.140  28.739  11.306  1.00  0.00     0.182 A 
ATOM     88  O   UNL     1      17.324  27.856  10.926  1.00  0.00    -0.290 OA
BRANCH  86  89
ATOM     89  O   UNL     1      20.110  36.828  11.471  1.00  0.00    -0.508 OA
ATOM     90  H   UNL     1      19.842  37.426  12.249  1.00  0.00     0.293 HD
ENDBRANCH  86  89
ENDBRANCH  70  74
ENDBRANCH  63  65
ENDBRANCH  59  60
ENDBRANCH  58  59
ENDBRANCH  55  58
ENDBRANCH  53  54
ENDBRANCH  50  53
ENDBRANCH  47  50
ENDBRANCH   5  47
BRANCH   4  91
ATOM     91  N   UNL     1      26.961  33.411  15.324  1.00  0.00    -0.348 N 
ATOM     92  C   UNL     1      26.006  34.196  16.000  1.00  0.00     0.217 C 
ATOM     93  H   UNL     1      26.758  32.397  15.188  1.00  0.00     0.163 HD
ATOM     94  C   UNL     1      24.730  33.649  16.526  1.00  0.00     0.114 C 
ATOM     95  O   UNL     1      26.195  35.445  16.199  1.00  0.00    -0.275 OA
ENDBRANCH   4  91
TORSDOF 33
BEGIN_RES LYS A 131
REMARK  4 active torsions:
REMARK  status: ('A' for Active; 'I' for Inactive)
REMARK    1  A    between atoms: CA   and  CB  
REMARK    2  A    between atoms: CB   and  CG  
REMARK    3  A    between atoms: CG   and  CD  
REMARK    4  A    between atoms: CD   and  CE  
ROOT
ATOM      1  CA  LYS A 131      29.867  25.555  16.977  1.00 20.52     0.186 C 
ENDROOT
BRANCH   1   2
ATOM      2  CB  LYS A 131      28.345  25.722  17.026  1.00 20.94     0.034 C 
BRANCH   2   3
ATOM      3  CG  LYS A 131      27.601  24.401  16.900  1.00 22.96     0.005 C 
BRANCH   3   4
ATOM      4  CD  LYS A 131      26.508  24.267  17.924  1.00 24.33     0.041 C 
BRANCH   4   5
ATOM      5  CE  LYS A 131      25.152  24.408  17.241  1.00 26.91     0.338 C 
ATOM      6  NZ  LYS A 131      24.434  23.111  17.240  1.00 27.40     0.618 N 
ENDBRANCH   4   5
ENDBRANCH   3   4
ENDBRANCH   2   3
ENDBRANCH   1   2
END_RES LYS A 131
BEGIN_RES LYS A 135
REMARK  4 active torsions:
REMARK  status: ('A' for Active; 'I' for Inactive)
REMARK    5  A    between atoms: CA   and  CB  
REMARK    6  A    between atoms: CB   and  CG  
REMARK    7  A    between atoms: CG   and  CD  
REMARK    8  A    between atoms: CD   and  CE  
ROOT
ATOM      7  CA  LYS A 135      33.193  34.663   9.290  1.00 25.02     0.186 C 
ENDROOT
BRANCH   7   8
ATOM      8  CB  LYS A 135      32.060  35.360  10.034  1.00 26.63     0.034 C 
BRANCH   8   9
ATOM      9  CG  LYS A 135      30.818  35.549   9.201  1.00 29.45     0.005 C 
BRANCH   9  10
ATOM     10  CD  LYS A 135      30.031  34.250   9.109  1.00 32.00     0.041 C 
BRANCH  10  11
ATOM     11  CE  LYS A 135      28.747  34.460   8.331  1.00 34.25     0.338 C 
ATOM     12  NZ  LYS A 135      28.967  35.363   7.167  1.00 35.99     0.618 N 
ENDBRANCH  10  11
ENDBRANCH   9  10
ENDBRANCH   8   9
ENDBRANCH   7   8
END_RES LYS A 135
