REMARK VINA RESULT:    -5.016      2.316      4.551
REMARK INTER + INTRA:         -22.051
REMARK INTER:                  -7.793
REMARK INTRA:                 -14.258
REMARK UNBOUND:                -9.116
REMARK SMILES CC(=O)N[C@@H]1[C@@H](O)C[C@](OC[C@H]2O[C@@H](O[C@H]3[C@H](O)[C@@H](O)[C@H](OCCN=[N+]=[N-])O[C@@H]3CO)[C@H](O)[C@@H](O)[C@H]2O)(C(=O)O)O[C@H]1C(O)[C@H](O)CNC(=O)OCc1cn(CCC2OCCO2)nn1
REMARK SMILES IDX 9 1 8 2 6 3 5 4 42 5 41 6 10 7 11 8 12 9 14 10 13 11 32 12
REMARK SMILES IDX 34 13 36 14 15 15 16 16 29 17 28 18 21 19 17 20 19 21 30 22
REMARK SMILES IDX 31 23 22 25 23 26 24 27 25 28 26 29 27 30 18 31 20 33 33 35
REMARK SMILES IDX 35 37 37 39 38 41 39 42 40 43 7 45 43 47 44 48 45 50 46 51
REMARK SMILES IDX 47 53 48 54 49 55 50 57 51 58 52 59 53 60 54 61 64 62 55 63
REMARK SMILES IDX 63 64 56 65 57 66 58 67 59 68 62 69 60 70 61 71 4 72 2 73
REMARK SMILES IDX 1 75 3 76
REMARK H PARENT 31 24 18 32 20 34 33 36 35 38 37 40 40 44 7 46 44 49 46 52
REMARK H PARENT 48 56 4 74
REMARK Flexibility Score: inf
ROOT
ATOM      1  C   UNL     1      29.405  31.481  19.306  1.00  0.00     0.272 C 
ATOM      2  C   UNL     1      30.739  30.688  19.557  1.00  0.00     0.113 C 
ATOM      3  C   UNL     1      30.778  30.127  20.915  1.00  0.00     0.145 C 
ATOM      4  C   UNL     1      29.593  29.204  21.121  1.00  0.00     0.142 C 
ATOM      5  C   UNL     1      28.470  29.507  20.188  1.00  0.00     0.178 C 
ATOM      6  O   UNL     1      28.321  30.786  19.781  1.00  0.00    -0.332 OA
ENDROOT
BRANCH   1   7
ATOM      7  O   UNL     1      29.366  31.564  17.976  1.00  0.00    -0.338 OA
BRANCH   7   8
ATOM      8  C   UNL     1      30.357  31.582  17.113  1.00  0.00     0.199 C 
BRANCH   8   9
ATOM      9  C   UNL     1      30.465  32.627  16.049  1.00  0.00     0.179 C 
ATOM     10  C   UNL     1      29.156  33.737  14.458  1.00  0.00     0.282 C 
ATOM     11  O   UNL     1      29.344  32.625  15.253  1.00  0.00    -0.341 OA
ATOM     12  C   UNL     1      30.319  34.650  14.336  1.00  0.00     0.202 C 
ATOM     13  C   UNL     1      30.983  34.972  15.647  1.00  0.00     0.179 C 
ATOM     14  C   UNL     1      30.486  34.034  16.696  1.00  0.00     0.177 C 
BRANCH  10  15
ATOM     15  O   UNL     1      27.952  34.339  14.825  1.00  0.00    -0.341 OA
BRANCH  15  16
ATOM     16  C   UNL     1      26.837  33.550  14.579  1.00  0.00     0.184 C 
ATOM     17  C   UNL     1      25.798  34.200  13.717  1.00  0.00     0.178 C 
ATOM     18  O   UNL     1      24.785  33.265  13.491  1.00  0.00    -0.341 OA
ATOM     19  C   UNL     1      24.063  32.949  14.633  1.00  0.00     0.281 C 
ATOM     20  C   UNL     1      26.114  33.269  15.927  1.00  0.00     0.180 C 
ATOM     21  C   UNL     1      25.038  32.250  15.576  1.00  0.00     0.202 C 
BRANCH  17  22
ATOM     22  C   UNL     1      26.391  34.496  12.351  1.00  0.00     0.191 C 
BRANCH  22  23
ATOM     23  O   UNL     1      26.901  35.815  12.446  1.00  0.00    -0.394 OA
ATOM     24  H   UNL     1      26.424  36.357  13.109  1.00  0.00     0.210 HD
ENDBRANCH  22  23
ENDBRANCH  17  22
BRANCH  19  25
ATOM     25  O   UNL     1      23.032  32.121  14.289  1.00  0.00    -0.350 OA
BRANCH  25  26
ATOM     26  C   UNL     1      23.133  31.504  13.075  1.00  0.00     0.169 C 
BRANCH  26  27
ATOM     27  C   UNL     1      23.494  30.036  13.135  1.00  0.00     0.119 C 
BRANCH  27  28
ATOM     28  N   UNL     1      22.908  29.424  14.314  1.00  0.00    -0.092 NA
ATOM     29  N   UNL     1      23.577  29.052  15.275  1.00  0.00     0.001 N 
ATOM     30  N   UNL     1      24.144  28.803  16.335  1.00  0.00    -0.003 NA
ENDBRANCH  27  28
ENDBRANCH  26  27
ENDBRANCH  25  26
ENDBRANCH  19  25
BRANCH  20  31
ATOM     31  O   UNL     1      27.021  32.722  16.802  1.00  0.00    -0.387 OA
ATOM     32  H   UNL     1      26.584  31.966  17.282  1.00  0.00     0.211 HD
ENDBRANCH  20  31
BRANCH  21  33
ATOM     33  O   UNL     1      24.435  31.864  16.755  1.00  0.00    -0.385 OA
ATOM     34  H   UNL     1      23.493  32.168  16.736  1.00  0.00     0.211 HD
ENDBRANCH  21  33
ENDBRANCH  15  16
ENDBRANCH  10  15
BRANCH  12  35
ATOM     35  O   UNL     1      31.251  34.097  13.423  1.00  0.00    -0.385 OA
ATOM     36  H   UNL     1      31.880  33.574  13.987  1.00  0.00     0.211 HD
ENDBRANCH  12  35
BRANCH  13  37
ATOM     37  O   UNL     1      30.823  36.313  15.998  1.00  0.00    -0.387 OA
ATOM     38  H   UNL     1      30.279  36.343  16.829  1.00  0.00     0.211 HD
ENDBRANCH  13  37
BRANCH  14  39
ATOM     39  O   UNL     1      29.222  34.325  17.165  1.00  0.00    -0.387 OA
ATOM     40  H   UNL     1      29.055  35.290  17.304  1.00  0.00     0.211 HD
ENDBRANCH  14  39
ENDBRANCH   8   9
ENDBRANCH   7   8
ENDBRANCH   1   7
BRANCH   1  41
ATOM     41  C   UNL     1      29.573  32.673  20.137  1.00  0.00     0.364 C 
ATOM     42  O   UNL     1      30.621  33.422  19.964  1.00  0.00    -0.246 OA
BRANCH  41  43
ATOM     43  O   UNL     1      28.743  33.154  21.124  1.00  0.00    -0.477 OA
ATOM     44  H   UNL     1      27.741  33.103  21.008  1.00  0.00     0.296 HD
ENDBRANCH  41  43
ENDBRANCH   1  41
BRANCH   3  45
ATOM     45  O   UNL     1      31.987  29.378  21.005  1.00  0.00    -0.391 OA
ATOM     46  H   UNL     1      32.706  30.047  21.227  1.00  0.00     0.211 HD
ENDBRANCH   3  45
BRANCH   5  47
ATOM     47  C   UNL     1      28.414  28.482  19.096  1.00  0.00     0.176 C 
BRANCH  47  48
ATOM     48  O   UNL     1      28.376  27.166  19.580  1.00  0.00    -0.388 OA
ATOM     49  H   UNL     1      29.077  26.604  19.137  1.00  0.00     0.211 HD
ENDBRANCH  47  48
BRANCH  47  50
ATOM     50  C   UNL     1      27.068  28.608  18.327  1.00  0.00     0.165 C 
BRANCH  50  51
ATOM     51  O   UNL     1      27.213  29.569  17.355  1.00  0.00    -0.388 OA
ATOM     52  H   UNL     1      27.062  30.480  17.666  1.00  0.00     0.211 HD
ENDBRANCH  50  51
BRANCH  50  53
ATOM     53  C   UNL     1      25.990  28.790  19.316  1.00  0.00     0.154 C 
BRANCH  53  54
ATOM     54  N   UNL     1      25.304  30.032  19.150  1.00  0.00    -0.319 N 
ATOM     55  C   UNL     1      24.072  30.342  19.724  1.00  0.00     0.407 C 
ATOM     56  H   UNL     1      25.776  30.754  18.550  1.00  0.00     0.167 HD
ATOM     57  O   UNL     1      23.465  29.522  20.432  1.00  0.00    -0.225 OA
BRANCH  55  58
ATOM     58  O   UNL     1      23.432  31.577  19.550  1.00  0.00    -0.443 OA
BRANCH  58  59
ATOM     59  C   UNL     1      23.678  32.657  20.433  1.00  0.00     0.294 C 
BRANCH  59  60
ATOM     60  C   UNL     1      24.797  33.519  19.985  1.00  0.00     0.120 A 
ATOM     61  C   UNL     1      24.807  34.916  20.051  1.00  0.00     0.138 A 
ATOM     62  N   UNL     1      25.982  33.194  19.447  1.00  0.00    -0.132 NA
ATOM     63  N   UNL     1      25.988  35.375  19.555  1.00  0.00    -0.252 N 
ATOM     64  N   UNL     1      26.674  34.314  19.199  1.00  0.00    -0.067 NA
BRANCH  63  65
ATOM     65  C   UNL     1      26.314  36.792  19.490  1.00  0.00     0.151 C 
BRANCH  65  66
ATOM     66  C   UNL     1      27.777  36.984  19.111  1.00  0.00     0.086 C 
BRANCH  66  67
ATOM     67  C   UNL     1      27.917  37.811  17.865  1.00  0.00     0.251 C 
ATOM     68  O   UNL     1      27.999  36.966  16.758  1.00  0.00    -0.350 OA
ATOM     69  O   UNL     1      26.835  38.635  17.625  1.00  0.00    -0.350 OA
ATOM     70  C   UNL     1      27.700  37.780  15.671  1.00  0.00     0.192 C 
ATOM     71  C   UNL     1      27.109  39.033  16.295  1.00  0.00     0.192 C 
ENDBRANCH  66  67
ENDBRANCH  65  66
ENDBRANCH  63  65
ENDBRANCH  59  60
ENDBRANCH  58  59
ENDBRANCH  55  58
ENDBRANCH  53  54
ENDBRANCH  50  53
ENDBRANCH  47  50
ENDBRANCH   5  47
BRANCH   4  72
ATOM     72  N   UNL     1      29.185  29.196  22.524  1.00  0.00    -0.348 N 
ATOM     73  C   UNL     1      28.819  28.037  23.215  1.00  0.00     0.217 C 
ATOM     74  H   UNL     1      29.178  30.137  23.016  1.00  0.00     0.163 HD
ATOM     75  C   UNL     1      28.413  28.110  24.656  1.00  0.00     0.114 C 
ATOM     76  O   UNL     1      28.846  26.946  22.582  1.00  0.00    -0.275 OA
ENDBRANCH   4  72
TORSDOF 32
BEGIN_RES LYS A 131
REMARK  4 active torsions:
REMARK  status: ('A' for Active; 'I' for Inactive)
REMARK    1  A    between atoms: CA   and  CB  
REMARK    2  A    between atoms: CB   and  CG  
REMARK    3  A    between atoms: CG   and  CD  
REMARK    4  A    between atoms: CD   and  CE  
ROOT
ATOM      1  CA  LYS A 131      29.867  25.555  16.977  1.00 20.52     0.186 C 
ENDROOT
BRANCH   1   2
ATOM      2  CB  LYS A 131      28.345  25.722  17.026  1.00 20.94     0.034 C 
BRANCH   2   3
ATOM      3  CG  LYS A 131      27.601  24.401  16.902  1.00 22.96     0.005 C 
BRANCH   3   4
ATOM      4  CD  LYS A 131      26.158  24.523  17.306  1.00 24.33     0.041 C 
BRANCH   4   5
ATOM      5  CE  LYS A 131      26.059  24.577  18.827  1.00 26.91     0.338 C 
ATOM      6  NZ  LYS A 131      25.214  23.468  19.332  1.00 27.40     0.618 N 
ENDBRANCH   4   5
ENDBRANCH   3   4
ENDBRANCH   2   3
ENDBRANCH   1   2
END_RES LYS A 131
BEGIN_RES LYS A 135
REMARK  4 active torsions:
REMARK  status: ('A' for Active; 'I' for Inactive)
REMARK    5  A    between atoms: CA   and  CB  
REMARK    6  A    between atoms: CB   and  CG  
REMARK    7  A    between atoms: CG   and  CD  
REMARK    8  A    between atoms: CD   and  CE  
ROOT
ATOM      7  CA  LYS A 135      33.193  34.663   9.290  1.00 25.02     0.186 C 
ENDROOT
BRANCH   7   8
ATOM      8  CB  LYS A 135      32.060  35.360  10.034  1.00 26.63     0.034 C 
BRANCH   8   9
ATOM      9  CG  LYS A 135      30.707  34.745   9.784  1.00 29.45     0.005 C 
BRANCH   9  10
ATOM     10  CD  LYS A 135      30.486  34.521   8.296  1.00 32.00     0.041 C 
BRANCH  10  11
ATOM     11  CE  LYS A 135      29.067  34.888   7.907  1.00 34.25     0.338 C 
ATOM     12  NZ  LYS A 135      28.245  35.200   9.109  1.00 35.99     0.618 N 
ENDBRANCH  10  11
ENDBRANCH   9  10
ENDBRANCH   8   9
ENDBRANCH   7   8
END_RES LYS A 135
