REMARK VINA RESULT:    -4.396      2.709      7.179
REMARK INTER + INTRA:         -21.485
REMARK INTER:                  -9.818
REMARK INTRA:                 -11.667
REMARK UNBOUND:               -10.664
REMARK SMILES CC(=O)N[C@@H]1[C@@H](O)C[C@](OC[C@H]2O[C@@H](O[C@H]3[C@H](O)[C@@H](O)[C@H](OCCN=[N+]=[N-])O[C@@H]3CO)[C@H](O)[C@@H](O)[C@H]2O)(C(=O)O)O[C@H]1C(O)[C@H](O)CNC(=O)OCc1cn(-c2ccc(Br)cc2)nn1
REMARK SMILES IDX 9 1 8 2 6 3 5 4 42 5 41 6 10 7 11 8 12 9 14 10 13 11 32 12
REMARK SMILES IDX 34 13 36 14 15 15 16 16 29 17 28 18 21 19 17 20 19 21 30 22
REMARK SMILES IDX 31 23 22 25 23 26 24 27 25 28 26 29 27 30 18 31 20 33 33 35
REMARK SMILES IDX 35 37 37 39 38 41 39 42 40 43 7 45 43 47 44 48 45 50 46 51
REMARK SMILES IDX 47 53 48 54 49 55 50 57 51 58 52 59 53 60 54 61 64 62 55 63
REMARK SMILES IDX 63 64 56 65 57 66 62 67 58 68 61 69 59 70 60 71 4 72 2 73
REMARK SMILES IDX 1 75 3 76
REMARK H PARENT 31 24 18 32 20 34 33 36 35 38 37 40 40 44 7 46 44 49 46 52
REMARK H PARENT 48 56 4 74
REMARK Flexibility Score: inf
ROOT
ATOM      1  C   UNL     1      28.592  35.736  17.589  1.00  0.00     0.272 C 
ATOM      2  C   UNL     1      28.905  37.150  17.026  1.00  0.00     0.113 C 
ATOM      3  C   UNL     1      30.247  37.103  16.396  1.00  0.00     0.145 C 
ATOM      4  C   UNL     1      30.190  36.012  15.307  1.00  0.00     0.142 C 
ATOM      5  C   UNL     1      30.048  34.717  16.072  1.00  0.00     0.178 C 
ATOM      6  O   UNL     1      28.802  34.763  16.656  1.00  0.00    -0.332 OA
ENDROOT
BRANCH   1   7
ATOM      7  O   UNL     1      27.220  35.816  17.848  1.00  0.00    -0.338 OA
BRANCH   7   8
ATOM      8  C   UNL     1      26.482  36.504  16.934  1.00  0.00     0.199 C 
BRANCH   8   9
ATOM      9  C   UNL     1      25.106  35.811  16.865  1.00  0.00     0.179 C 
ATOM     10  C   UNL     1      23.784  34.800  15.242  1.00  0.00     0.282 C 
ATOM     11  O   UNL     1      24.593  35.850  15.601  1.00  0.00    -0.341 OA
ATOM     12  C   UNL     1      23.149  34.098  16.373  1.00  0.00     0.202 C 
ATOM     13  C   UNL     1      24.054  33.704  17.496  1.00  0.00     0.179 C 
ATOM     14  C   UNL     1      25.371  34.392  17.344  1.00  0.00     0.177 C 
BRANCH  10  15
ATOM     15  O   UNL     1      24.522  34.017  14.355  1.00  0.00    -0.341 OA
BRANCH  15  16
ATOM     16  C   UNL     1      24.921  34.730  13.240  1.00  0.00     0.184 C 
ATOM     17  C   UNL     1      24.323  34.185  11.982  1.00  0.00     0.178 C 
ATOM     18  O   UNL     1      24.613  35.009  10.932  1.00  0.00    -0.341 OA
ATOM     19  C   UNL     1      25.634  35.900  11.059  1.00  0.00     0.281 C 
ATOM     20  C   UNL     1      26.441  34.605  13.040  1.00  0.00     0.180 C 
ATOM     21  C   UNL     1      26.843  35.410  11.823  1.00  0.00     0.202 C 
BRANCH  17  22
ATOM     22  C   UNL     1      22.815  34.123  12.127  1.00  0.00     0.191 C 
BRANCH  22  23
ATOM     23  O   UNL     1      22.196  34.491  10.956  1.00  0.00    -0.394 OA
ATOM     24  H   UNL     1      22.843  34.765  10.283  1.00  0.00     0.210 HD
ENDBRANCH  22  23
ENDBRANCH  17  22
BRANCH  19  25
ATOM     25  O   UNL     1      25.217  37.154  11.493  1.00  0.00    -0.350 OA
BRANCH  25  26
ATOM     26  C   UNL     1      26.236  38.078  11.617  1.00  0.00     0.169 C 
BRANCH  26  27
ATOM     27  C   UNL     1      25.805  39.410  12.135  1.00  0.00     0.119 C 
BRANCH  27  28
ATOM     28  N   UNL     1      24.759  39.238  13.128  1.00  0.00    -0.092 NA
ATOM     29  N   UNL     1      24.889  39.845  14.193  1.00  0.00     0.001 N 
ATOM     30  N   UNL     1      24.874  40.515  15.248  1.00  0.00    -0.003 NA
ENDBRANCH  27  28
ENDBRANCH  26  27
ENDBRANCH  25  26
ENDBRANCH  19  25
BRANCH  20  31
ATOM     31  O   UNL     1      27.109  34.969  14.195  1.00  0.00    -0.387 OA
ATOM     32  H   UNL     1      28.052  34.653  14.187  1.00  0.00     0.211 HD
ENDBRANCH  20  31
BRANCH  21  33
ATOM     33  O   UNL     1      27.711  34.751  10.981  1.00  0.00    -0.385 OA
ATOM     34  H   UNL     1      28.490  35.334  10.818  1.00  0.00     0.211 HD
ENDBRANCH  21  33
ENDBRANCH  15  16
ENDBRANCH  10  15
BRANCH  12  35
ATOM     35  O   UNL     1      22.104  34.942  16.841  1.00  0.00    -0.385 OA
ATOM     36  H   UNL     1      22.414  35.893  16.816  1.00  0.00     0.211 HD
ENDBRANCH  12  35
BRANCH  13  37
ATOM     37  O   UNL     1      24.273  32.305  17.490  1.00  0.00    -0.387 OA
ATOM     38  H   UNL     1      23.729  31.953  18.239  1.00  0.00     0.211 HD
ENDBRANCH  13  37
BRANCH  14  39
ATOM     39  O   UNL     1      26.233  33.711  16.487  1.00  0.00    -0.387 OA
ATOM     40  H   UNL     1      25.961  32.764  16.394  1.00  0.00     0.211 HD
ENDBRANCH  14  39
ENDBRANCH   8   9
ENDBRANCH   7   8
ENDBRANCH   1   7
BRANCH   1  41
ATOM     41  C   UNL     1      29.312  35.626  18.856  1.00  0.00     0.364 C 
ATOM     42  O   UNL     1      29.895  36.589  19.410  1.00  0.00    -0.246 OA
BRANCH  41  43
ATOM     43  O   UNL     1      29.378  34.416  19.520  1.00  0.00    -0.477 OA
ATOM     44  H   UNL     1      30.245  33.909  19.692  1.00  0.00     0.296 HD
ENDBRANCH  41  43
ENDBRANCH   1  41
BRANCH   3  45
ATOM     45  O   UNL     1      30.547  38.276  15.718  1.00  0.00    -0.391 OA
ATOM     46  H   UNL     1      30.875  38.945  16.354  1.00  0.00     0.211 HD
ENDBRANCH   3  45
BRANCH   5  47
ATOM     47  C   UNL     1      30.109  33.482  15.241  1.00  0.00     0.176 C 
BRANCH  47  48
ATOM     48  O   UNL     1      28.778  32.975  15.231  1.00  0.00    -0.388 OA
ATOM     49  H   UNL     1      28.774  32.130  14.713  1.00  0.00     0.211 HD
ENDBRANCH  47  48
BRANCH  47  50
ATOM     50  C   UNL     1      30.914  32.345  15.853  1.00  0.00     0.165 C 
BRANCH  50  51
ATOM     51  O   UNL     1      30.241  31.182  15.385  1.00  0.00    -0.388 OA
ATOM     52  H   UNL     1      29.322  31.445  15.063  1.00  0.00     0.211 HD
ENDBRANCH  50  51
BRANCH  50  53
ATOM     53  C   UNL     1      30.806  32.324  17.338  1.00  0.00     0.154 C 
BRANCH  53  54
ATOM     54  N   UNL     1      29.546  31.816  17.778  1.00  0.00    -0.319 N 
ATOM     55  C   UNL     1      29.370  30.822  18.791  1.00  0.00     0.407 C 
ATOM     56  H   UNL     1      28.637  32.177  17.343  1.00  0.00     0.167 HD
ATOM     57  O   UNL     1      30.386  30.342  19.345  1.00  0.00    -0.225 OA
BRANCH  55  58
ATOM     58  O   UNL     1      28.124  30.384  19.175  1.00  0.00    -0.443 OA
BRANCH  58  59
ATOM     59  C   UNL     1      27.518  29.306  18.510  1.00  0.00     0.294 C 
BRANCH  59  60
ATOM     60  C   UNL     1      26.832  29.816  17.302  1.00  0.00     0.121 A 
ATOM     61  C   UNL     1      25.662  29.263  16.767  1.00  0.00     0.144 A 
ATOM     62  N   UNL     1      27.133  30.839  16.488  1.00  0.00    -0.131 NA
ATOM     63  N   UNL     1      25.317  29.964  15.674  1.00  0.00    -0.220 N 
ATOM     64  N   UNL     1      26.225  30.908  15.532  1.00  0.00    -0.062 NA
BRANCH  63  65
ATOM     65  C   UNL     1      24.176  29.668  14.879  1.00  0.00     0.066 A 
ATOM     66  C   UNL     1      23.137  28.885  15.267  1.00  0.00     0.029 A 
ATOM     67  C   UNL     1      24.145  30.247  13.614  1.00  0.00     0.029 A 
ATOM     68  C   UNL     1      22.082  28.685  14.401  1.00  0.00     0.018 A 
ATOM     69  C   UNL     1      23.085  30.038  12.761  1.00  0.00     0.018 A 
ATOM     70  C   UNL     1      22.025  29.244  13.148  1.00  0.00     0.018 A 
ATOM     71  Br  UNL     1      20.545  28.945  11.982  1.00  0.00    -0.051 Br
ENDBRANCH  63  65
ENDBRANCH  59  60
ENDBRANCH  58  59
ENDBRANCH  55  58
ENDBRANCH  53  54
ENDBRANCH  50  53
ENDBRANCH  47  50
ENDBRANCH   5  47
BRANCH   4  72
ATOM     72  N   UNL     1      31.395  36.141  14.545  1.00  0.00    -0.348 N 
ATOM     73  C   UNL     1      31.417  36.008  13.130  1.00  0.00     0.217 C 
ATOM     74  H   UNL     1      32.287  36.336  15.032  1.00  0.00     0.163 HD
ATOM     75  C   UNL     1      32.648  36.133  12.315  1.00  0.00     0.114 C 
ATOM     76  O   UNL     1      30.332  35.766  12.506  1.00  0.00    -0.275 OA
ENDBRANCH   4  72
TORSDOF 30
BEGIN_RES LYS A 131
REMARK  4 active torsions:
REMARK  status: ('A' for Active; 'I' for Inactive)
REMARK    1  A    between atoms: CA   and  CB  
REMARK    2  A    between atoms: CB   and  CG  
REMARK    3  A    between atoms: CG   and  CD  
REMARK    4  A    between atoms: CD   and  CE  
ROOT
ATOM      1  CA  LYS A 131      29.867  25.555  16.977  1.00 20.52     0.186 C 
ENDROOT
BRANCH   1   2
ATOM      2  CB  LYS A 131      28.345  25.722  17.026  1.00 20.94     0.034 C 
BRANCH   2   3
ATOM      3  CG  LYS A 131      27.602  24.399  16.922  1.00 22.96     0.005 C 
BRANCH   3   4
ATOM      4  CD  LYS A 131      26.149  24.536  17.284  1.00 24.33     0.041 C 
BRANCH   4   5
ATOM      5  CE  LYS A 131      25.962  25.745  18.194  1.00 26.91     0.338 C 
ATOM      6  NZ  LYS A 131      24.530  26.119  18.274  1.00 27.40     0.618 N 
ENDBRANCH   4   5
ENDBRANCH   3   4
ENDBRANCH   2   3
ENDBRANCH   1   2
END_RES LYS A 131
BEGIN_RES LYS A 135
REMARK  4 active torsions:
REMARK  status: ('A' for Active; 'I' for Inactive)
REMARK    5  A    between atoms: CA   and  CB  
REMARK    6  A    between atoms: CB   and  CG  
REMARK    7  A    between atoms: CG   and  CD  
REMARK    8  A    between atoms: CD   and  CE  
ROOT
ATOM      7  CA  LYS A 135      33.193  34.663   9.290  1.00 25.02     0.186 C 
ENDROOT
BRANCH   7   8
ATOM      8  CB  LYS A 135      32.060  35.360  10.034  1.00 26.63     0.034 C 
BRANCH   8   9
ATOM      9  CG  LYS A 135      30.913  35.762   9.144  1.00 29.45     0.005 C 
BRANCH   9  10
ATOM     10  CD  LYS A 135      30.342  34.551   8.423  1.00 32.00     0.041 C 
BRANCH  10  11
ATOM     11  CE  LYS A 135      29.169  34.954   7.550  1.00 34.25     0.338 C 
ATOM     12  NZ  LYS A 135      28.590  36.251   7.996  1.00 35.99     0.618 N 
ENDBRANCH  10  11
ENDBRANCH   9  10
ENDBRANCH   8   9
ENDBRANCH   7   8
END_RES LYS A 135
