REMARK VINA RESULT:    -3.675      3.186      8.215
REMARK INTER + INTRA:         -23.570
REMARK INTER:                 -12.322
REMARK INTRA:                 -11.249
REMARK UNBOUND:               -13.881
REMARK SMILES CCOC(=O)c1cccc(-n2cc(COC(=O)NC[C@@H](O)C(O)[C@@H]3O[C@@](OC[C@H]4O[C@@H](O[C@H]5[C@H](O)[C@@H](O)[C@H](OCCN=[N+]=[N-])O[C@@H]5CO)[C@H](O)[C@@H](O)[C@H]4O)(C(=O)O)C[C@H](O)[C@H]3NC(C)=O)nn2)c1
REMARK SMILES IDX 22 1 24 2 26 3 58 4 25 5 59 6 61 7 27 8 28 9 29 10 31 11
REMARK SMILES IDX 30 12 49 13 51 14 53 15 32 16 33 17 46 18 45 19 38 20 34 21
REMARK SMILES IDX 36 22 47 23 48 24 39 26 40 27 41 28 42 29 43 30 44 31 35 32
REMARK SMILES IDX 37 34 50 36 52 38 54 40 55 42 56 43 57 44 60 46 62 48 63 49
REMARK SMILES IDX 64 51 65 52 23 53 20 55 21 56 19 58 18 59 16 60 17 62 15 63
REMARK SMILES IDX 14 64 13 65 12 66 66 67 11 68 67 69 10 70 68 71 9 72 6 73
REMARK SMILES IDX 8 74 7 75 4 76 5 77 3 78 2 79 1 80
REMARK H PARENT 48 25 35 33 37 35 50 37 52 39 54 41 57 45 60 47 62 50 23 54
REMARK H PARENT 21 57 18 61
REMARK Flexibility Score: inf
ROOT
ATOM      1  C   UNL     1      22.814  36.705   8.153  1.00  0.00     0.176 C 
ENDROOT
BRANCH   1   2
ATOM      2  C   UNL     1      22.362  36.516   9.540  1.00  0.00     0.178 C 
ATOM      3  C   UNL     1      23.371  36.672  11.672  1.00  0.00     0.272 C 
ATOM      4  C   UNL     1      21.963  36.324  12.031  1.00  0.00     0.113 C 
ATOM      5  O   UNL     1      23.481  36.200  10.314  1.00  0.00    -0.332 OA
ATOM      6  C   UNL     1      21.437  35.099  11.301  1.00  0.00     0.145 C 
ATOM      7  C   UNL     1      21.321  35.482   9.788  1.00  0.00     0.142 C 
BRANCH   3   8
ATOM      8  O   UNL     1      24.247  35.912  12.382  1.00  0.00    -0.338 OA
BRANCH   8   9
ATOM      9  C   UNL     1      24.344  35.831  13.686  1.00  0.00     0.199 C 
BRANCH   9  10
ATOM     10  C   UNL     1      24.107  34.658  14.536  1.00  0.00     0.179 C 
ATOM     11  C   UNL     1      22.671  32.848  14.908  1.00  0.00     0.282 C 
ATOM     12  O   UNL     1      22.849  34.177  14.456  1.00  0.00    -0.341 OA
ATOM     13  C   UNL     1      23.829  32.397  15.743  1.00  0.00     0.202 C 
ATOM     14  C   UNL     1      25.149  32.525  15.054  1.00  0.00     0.179 C 
ATOM     15  C   UNL     1      25.054  33.549  13.975  1.00  0.00     0.177 C 
BRANCH  11  16
ATOM     16  O   UNL     1      22.411  32.121  13.784  1.00  0.00    -0.341 OA
BRANCH  16  17
ATOM     17  C   UNL     1      21.304  31.346  13.732  1.00  0.00     0.184 C 
ATOM     18  C   UNL     1      21.549  30.227  12.754  1.00  0.00     0.178 C 
ATOM     19  O   UNL     1      20.459  29.357  12.693  1.00  0.00    -0.341 OA
ATOM     20  C   UNL     1      19.385  30.060  12.079  1.00  0.00     0.281 C 
ATOM     21  C   UNL     1      20.070  32.110  13.224  1.00  0.00     0.180 C 
ATOM     22  C   UNL     1      18.950  31.079  13.096  1.00  0.00     0.202 C 
BRANCH  18  23
ATOM     23  C   UNL     1      22.765  29.432  13.133  1.00  0.00     0.191 C 
BRANCH  23  24
ATOM     24  O   UNL     1      23.940  30.090  12.683  1.00  0.00    -0.394 OA
ATOM     25  H   UNL     1      23.813  30.422  11.758  1.00  0.00     0.210 HD
ENDBRANCH  23  24
ENDBRANCH  18  23
BRANCH  20  26
ATOM     26  O   UNL     1      18.427  29.148  11.743  1.00  0.00    -0.350 OA
BRANCH  26  27
ATOM     27  C   UNL     1      18.082  29.210  10.401  1.00  0.00     0.169 C 
BRANCH  27  28
ATOM     28  C   UNL     1      16.632  29.509  10.165  1.00  0.00     0.119 C 
BRANCH  28  29
ATOM     29  N   UNL     1      16.440  30.965  10.154  1.00  0.00    -0.092 NA
ATOM     30  N   UNL     1      17.027  31.612   9.276  1.00  0.00     0.001 N 
ATOM     31  N   UNL     1      17.343  32.356   8.326  1.00  0.00    -0.003 NA
ENDBRANCH  28  29
ENDBRANCH  27  28
ENDBRANCH  26  27
ENDBRANCH  20  26
BRANCH  21  32
ATOM     32  O   UNL     1      19.621  33.021  14.168  1.00  0.00    -0.387 OA
ATOM     33  H   UNL     1      19.534  33.894  13.716  1.00  0.00     0.211 HD
ENDBRANCH  21  32
BRANCH  22  34
ATOM     34  O   UNL     1      17.750  31.691  12.747  1.00  0.00    -0.385 OA
ATOM     35  H   UNL     1      17.693  31.914  11.769  1.00  0.00     0.211 HD
ENDBRANCH  22  34
ENDBRANCH  16  17
ENDBRANCH  11  16
BRANCH  13  36
ATOM     36  O   UNL     1      23.798  33.078  16.976  1.00  0.00    -0.385 OA
ATOM     37  H   UNL     1      23.413  32.528  17.696  1.00  0.00     0.211 HD
ENDBRANCH  13  36
BRANCH  14  38
ATOM     38  O   UNL     1      25.702  31.320  14.685  1.00  0.00    -0.387 OA
ATOM     39  H   UNL     1      26.549  31.523  14.206  1.00  0.00     0.211 HD
ENDBRANCH  14  38
BRANCH  15  40
ATOM     40  O   UNL     1      24.606  33.046  12.795  1.00  0.00    -0.387 OA
ATOM     41  H   UNL     1      24.982  33.571  12.045  1.00  0.00     0.211 HD
ENDBRANCH  15  40
ENDBRANCH   9  10
ENDBRANCH   8   9
ENDBRANCH   3   8
BRANCH   3  42
ATOM     42  C   UNL     1      23.698  38.090  11.653  1.00  0.00     0.364 C 
ATOM     43  O   UNL     1      24.758  38.526  11.176  1.00  0.00    -0.246 OA
BRANCH  42  44
ATOM     44  O   UNL     1      22.811  39.028  12.183  1.00  0.00    -0.477 OA
ATOM     45  H   UNL     1      21.826  39.014  12.022  1.00  0.00     0.296 HD
ENDBRANCH  42  44
ENDBRANCH   3  42
BRANCH   6  46
ATOM     46  O   UNL     1      22.385  34.110  11.369  1.00  0.00    -0.391 OA
ATOM     47  H   UNL     1      21.947  33.245  11.558  1.00  0.00     0.211 HD
ENDBRANCH   6  46
BRANCH   7  48
ATOM     48  N   UNL     1      19.973  35.970   9.607  1.00  0.00    -0.348 N 
ATOM     49  C   UNL     1      19.141  35.619   8.494  1.00  0.00     0.217 C 
ATOM     50  H   UNL     1      19.514  36.627  10.307  1.00  0.00     0.163 HD
ATOM     51  C   UNL     1      17.757  36.141   8.340  1.00  0.00     0.114 C 
ATOM     52  O   UNL     1      19.578  34.851   7.614  1.00  0.00    -0.275 OA
ENDBRANCH   7  48
ENDBRANCH   1   2
BRANCH   1  53
ATOM     53  O   UNL     1      21.838  36.872   7.207  1.00  0.00    -0.388 OA
ATOM     54  H   UNL     1      21.785  37.796   6.871  1.00  0.00     0.211 HD
ENDBRANCH   1  53
BRANCH   1  55
ATOM     55  C   UNL     1      23.961  37.658   7.933  1.00  0.00     0.165 C 
BRANCH  55  56
ATOM     56  O   UNL     1      23.627  38.615   6.969  1.00  0.00    -0.388 OA
ATOM     57  H   UNL     1      23.951  38.330   6.076  1.00  0.00     0.211 HD
ENDBRANCH  55  56
BRANCH  55  58
ATOM     58  C   UNL     1      25.295  37.003   7.738  1.00  0.00     0.154 C 
BRANCH  58  59
ATOM     59  N   UNL     1      26.189  37.243   8.847  1.00  0.00    -0.319 N 
ATOM     60  C   UNL     1      27.326  38.071   8.712  1.00  0.00     0.407 C 
ATOM     61  H   UNL     1      26.004  36.795   9.797  1.00  0.00     0.167 HD
ATOM     62  O   UNL     1      27.664  38.668   7.665  1.00  0.00    -0.225 OA
BRANCH  60  63
ATOM     63  O   UNL     1      28.190  38.271   9.806  1.00  0.00    -0.443 OA
BRANCH  63  64
ATOM     64  C   UNL     1      27.836  38.097  11.144  1.00  0.00     0.294 C 
BRANCH  64  65
ATOM     65  C   UNL     1      28.116  36.775  11.718  1.00  0.00     0.121 A 
ATOM     66  C   UNL     1      29.132  36.469  12.618  1.00  0.00     0.144 A 
ATOM     67  N   UNL     1      27.467  35.638  11.494  1.00  0.00    -0.131 NA
ATOM     68  N   UNL     1      29.050  35.168  12.891  1.00  0.00    -0.220 N 
ATOM     69  N   UNL     1      28.042  34.673  12.210  1.00  0.00    -0.062 NA
BRANCH  68  70
ATOM     70  C   UNL     1      29.898  34.455  13.766  1.00  0.00     0.067 A 
ATOM     71  C   UNL     1      29.455  33.331  14.458  1.00  0.00     0.044 A 
ATOM     72  C   UNL     1      31.201  34.824  13.969  1.00  0.00     0.028 A 
ATOM     73  C   UNL     1      30.243  32.601  15.306  1.00  0.00     0.062 A 
ATOM     74  C   UNL     1      32.032  34.111  14.820  1.00  0.00     0.003 A 
ATOM     75  C   UNL     1      31.560  33.005  15.489  1.00  0.00     0.016 A 
BRANCH  73  76
ATOM     76  C   UNL     1      29.717  31.443  15.997  1.00  0.00     0.338 C 
ATOM     77  O   UNL     1      28.717  30.856  15.539  1.00  0.00    -0.246 OA
BRANCH  76  78
ATOM     78  O   UNL     1      30.317  30.994  17.146  1.00  0.00    -0.462 OA
BRANCH  78  79
ATOM     79  C   UNL     1      30.002  31.460  18.437  1.00  0.00     0.230 C 
ATOM     80  C   UNL     1      29.110  30.462  19.143  1.00  0.00     0.049 C 
ENDBRANCH  78  79
ENDBRANCH  76  78
ENDBRANCH  73  76
ENDBRANCH  68  70
ENDBRANCH  64  65
ENDBRANCH  63  64
ENDBRANCH  60  63
ENDBRANCH  58  59
ENDBRANCH  55  58
ENDBRANCH   1  55
TORSDOF 33
BEGIN_RES LYS A 131
REMARK  4 active torsions:
REMARK  status: ('A' for Active; 'I' for Inactive)
REMARK    1  A    between atoms: CA   and  CB  
REMARK    2  A    between atoms: CB   and  CG  
REMARK    3  A    between atoms: CG   and  CD  
REMARK    4  A    between atoms: CD   and  CE  
ROOT
ATOM      1  CA  LYS A 131      29.867  25.555  16.977  1.00 20.52     0.186 C 
ENDROOT
BRANCH   1   2
ATOM      2  CB  LYS A 131      28.345  25.722  17.026  1.00 20.94     0.034 C 
BRANCH   2   3
ATOM      3  CG  LYS A 131      27.602  24.398  16.937  1.00 22.96     0.005 C 
BRANCH   3   4
ATOM      4  CD  LYS A 131      26.612  24.227  18.055  1.00 24.33     0.041 C 
BRANCH   4   5
ATOM      5  CE  LYS A 131      25.204  24.126  17.478  1.00 26.91     0.338 C 
ATOM      6  NZ  LYS A 131      24.774  22.709  17.405  1.00 27.40     0.618 N 
ENDBRANCH   4   5
ENDBRANCH   3   4
ENDBRANCH   2   3
ENDBRANCH   1   2
END_RES LYS A 131
BEGIN_RES LYS A 135
REMARK  4 active torsions:
REMARK  status: ('A' for Active; 'I' for Inactive)
REMARK    5  A    between atoms: CA   and  CB  
REMARK    6  A    between atoms: CB   and  CG  
REMARK    7  A    between atoms: CG   and  CD  
REMARK    8  A    between atoms: CD   and  CE  
ROOT
ATOM      7  CA  LYS A 135      33.193  34.663   9.290  1.00 25.02     0.186 C 
ENDROOT
BRANCH   7   8
ATOM      8  CB  LYS A 135      32.060  35.360  10.034  1.00 26.63     0.034 C 
BRANCH   8   9
ATOM      9  CG  LYS A 135      30.709  34.735   9.796  1.00 29.45     0.005 C 
BRANCH   9  10
ATOM     10  CD  LYS A 135      30.291  34.898   8.343  1.00 32.00     0.041 C 
BRANCH  10  11
ATOM     11  CE  LYS A 135      28.789  34.737   8.200  1.00 34.25     0.338 C 
ATOM     12  NZ  LYS A 135      28.321  35.227   6.874  1.00 35.99     0.618 N 
ENDBRANCH  10  11
ENDBRANCH   9  10
ENDBRANCH   8   9
ENDBRANCH   7   8
END_RES LYS A 135
