REMARK VINA RESULT:    -3.507      2.452      7.296
REMARK INTER + INTRA:         -23.127
REMARK INTER:                 -10.872
REMARK INTRA:                 -12.255
REMARK UNBOUND:               -13.881
REMARK SMILES CCOC(=O)c1cccc(-n2cc(COC(=O)NC[C@@H](O)C(O)[C@@H]3O[C@@](OC[C@H]4O[C@@H](O[C@H]5[C@H](O)[C@@H](O)[C@H](OCCN=[N+]=[N-])O[C@@H]5CO)[C@H](O)[C@@H](O)[C@H]4O)(C(=O)O)C[C@H](O)[C@H]3NC(C)=O)nn2)c1
REMARK SMILES IDX 22 1 24 2 26 3 58 4 25 5 59 6 61 7 27 8 28 9 29 10 31 11
REMARK SMILES IDX 30 12 49 13 51 14 53 15 32 16 33 17 46 18 45 19 38 20 34 21
REMARK SMILES IDX 36 22 47 23 48 24 39 26 40 27 41 28 42 29 43 30 44 31 35 32
REMARK SMILES IDX 37 34 50 36 52 38 54 40 55 42 56 43 57 44 60 46 62 48 63 49
REMARK SMILES IDX 64 51 65 52 23 53 20 55 21 56 19 58 18 59 16 60 17 62 15 63
REMARK SMILES IDX 14 64 13 65 12 66 66 67 11 68 67 69 10 70 68 71 9 72 6 73
REMARK SMILES IDX 8 74 7 75 4 76 5 77 3 78 2 79 1 80
REMARK H PARENT 48 25 35 33 37 35 50 37 52 39 54 41 57 45 60 47 62 50 23 54
REMARK H PARENT 21 57 18 61
REMARK Flexibility Score: inf
ROOT
ATOM      1  C   UNL     1      25.182  32.194  18.700  1.00  0.00     0.176 C 
ENDROOT
BRANCH   1   2
ATOM      2  C   UNL     1      25.944  31.413  17.714  1.00  0.00     0.178 C 
ATOM      3  C   UNL     1      28.130  31.511  16.820  1.00  0.00     0.272 C 
ATOM      4  C   UNL     1      27.576  30.308  16.127  1.00  0.00     0.113 C 
ATOM      5  O   UNL     1      26.944  32.239  17.195  1.00  0.00    -0.332 OA
ATOM      6  C   UNL     1      26.242  30.564  15.443  1.00  0.00     0.145 C 
ATOM      7  C   UNL     1      25.191  30.825  16.573  1.00  0.00     0.142 C 
BRANCH   3   8
ATOM      8  O   UNL     1      28.775  32.317  15.935  1.00  0.00    -0.338 OA
BRANCH   8   9
ATOM      9  C   UNL     1      29.919  32.081  15.341  1.00  0.00     0.199 C 
BRANCH   9  10
ATOM     10  C   UNL     1      30.997  33.035  15.051  1.00  0.00     0.179 C 
ATOM     11  C   UNL     1      31.530  34.991  13.883  1.00  0.00     0.282 C 
ATOM     12  O   UNL     1      30.758  33.809  13.972  1.00  0.00    -0.341 OA
ATOM     13  C   UNL     1      32.721  34.934  14.789  1.00  0.00     0.202 C 
ATOM     14  C   UNL     1      32.372  34.662  16.217  1.00  0.00     0.179 C 
ATOM     15  C   UNL     1      31.047  33.985  16.290  1.00  0.00     0.177 C 
BRANCH  11  16
ATOM     16  O   UNL     1      30.649  36.010  14.098  1.00  0.00    -0.341 OA
BRANCH  16  17
ATOM     17  C   UNL     1      29.683  36.260  13.186  1.00  0.00     0.184 C 
ATOM     18  C   UNL     1      29.917  37.630  12.605  1.00  0.00     0.178 C 
ATOM     19  O   UNL     1      28.981  37.931  11.615  1.00  0.00    -0.341 OA
ATOM     20  C   UNL     1      27.720  38.089  12.254  1.00  0.00     0.281 C 
ATOM     21  C   UNL     1      28.275  36.282  13.805  1.00  0.00     0.180 C 
ATOM     22  C   UNL     1      27.323  36.705  12.690  1.00  0.00     0.202 C 
BRANCH  18  23
ATOM     23  C   UNL     1      31.289  37.737  12.004  1.00  0.00     0.191 C 
BRANCH  23  24
ATOM     24  O   UNL     1      31.693  39.096  11.945  1.00  0.00    -0.394 OA
ATOM     25  H   UNL     1      31.293  39.606  12.695  1.00  0.00     0.210 HD
ENDBRANCH  23  24
ENDBRANCH  18  23
BRANCH  20  26
ATOM     26  O   UNL     1      26.868  38.669  11.359  1.00  0.00    -0.350 OA
BRANCH  26  27
ATOM     27  C   UNL     1      27.165  38.331  10.047  1.00  0.00     0.169 C 
BRANCH  27  28
ATOM     28  C   UNL     1      26.084  37.542   9.369  1.00  0.00     0.119 C 
BRANCH  28  29
ATOM     29  N   UNL     1      24.911  37.485  10.250  1.00  0.00    -0.092 NA
ATOM     30  N   UNL     1      24.200  36.472  10.190  1.00  0.00     0.001 N 
ATOM     31  N   UNL     1      23.543  35.438  10.421  1.00  0.00    -0.003 NA
ENDBRANCH  28  29
ENDBRANCH  27  28
ENDBRANCH  26  27
ENDBRANCH  20  26
BRANCH  21  32
ATOM     32  O   UNL     1      27.868  35.007  14.168  1.00  0.00    -0.387 OA
ATOM     33  H   UNL     1      28.682  34.481  14.357  1.00  0.00     0.211 HD
ENDBRANCH  21  32
BRANCH  22  34
ATOM     34  O   UNL     1      26.000  36.648  13.118  1.00  0.00    -0.385 OA
ATOM     35  H   UNL     1      25.913  36.457  14.100  1.00  0.00     0.211 HD
ENDBRANCH  22  34
ENDBRANCH  16  17
ENDBRANCH  11  16
BRANCH  13  36
ATOM     36  O   UNL     1      33.644  34.002  14.275  1.00  0.00    -0.385 OA
ATOM     37  H   UNL     1      34.250  33.657  14.969  1.00  0.00     0.211 HD
ENDBRANCH  13  36
BRANCH  14  38
ATOM     38  O   UNL     1      32.531  35.751  17.044  1.00  0.00    -0.387 OA
ATOM     39  H   UNL     1      32.231  36.551  16.534  1.00  0.00     0.211 HD
ENDBRANCH  14  38
BRANCH  15  40
ATOM     40  O   UNL     1      30.000  34.852  16.310  1.00  0.00    -0.387 OA
ATOM     41  H   UNL     1      30.165  35.587  15.668  1.00  0.00     0.211 HD
ENDBRANCH  15  40
ENDBRANCH   9  10
ENDBRANCH   8   9
ENDBRANCH   3   8
BRANCH   3  42
ATOM     42  C   UNL     1      28.876  31.260  18.045  1.00  0.00     0.364 C 
ATOM     43  O   UNL     1      29.270  32.173  18.787  1.00  0.00    -0.246 OA
BRANCH  42  44
ATOM     44  O   UNL     1      29.180  29.954  18.433  1.00  0.00    -0.477 OA
ATOM     45  H   UNL     1      30.002  29.703  18.942  1.00  0.00     0.296 HD
ENDBRANCH  42  44
ENDBRANCH   3  42
BRANCH   6  46
ATOM     46  O   UNL     1      26.334  31.736  14.734  1.00  0.00    -0.391 OA
ATOM     47  H   UNL     1      26.604  32.467  15.340  1.00  0.00     0.211 HD
ENDBRANCH   6  46
BRANCH   7  48
ATOM     48  N   UNL     1      24.607  29.538  16.872  1.00  0.00    -0.348 N 
ATOM     49  C   UNL     1      23.222  29.226  16.678  1.00  0.00     0.217 C 
ATOM     50  H   UNL     1      25.187  28.734  17.259  1.00  0.00     0.163 HD
ATOM     51  C   UNL     1      22.655  27.889  16.998  1.00  0.00     0.114 C 
ATOM     52  O   UNL     1      22.451  30.096  16.225  1.00  0.00    -0.275 OA
ENDBRANCH   7  48
ENDBRANCH   1   2
BRANCH   1  53
ATOM     53  O   UNL     1      24.171  31.541  19.352  1.00  0.00    -0.388 OA
ATOM     54  H   UNL     1      24.045  31.858  20.277  1.00  0.00     0.211 HD
ENDBRANCH   1  53
BRANCH   1  55
ATOM     55  C   UNL     1      25.975  33.062  19.644  1.00  0.00     0.165 C 
BRANCH  55  56
ATOM     56  O   UNL     1      25.853  32.598  20.958  1.00  0.00    -0.388 OA
ATOM     57  H   UNL     1      25.765  31.610  20.966  1.00  0.00     0.211 HD
ENDBRANCH  55  56
BRANCH  55  58
ATOM     58  C   UNL     1      25.764  34.535  19.472  1.00  0.00     0.154 C 
BRANCH  58  59
ATOM     59  N   UNL     1      25.191  34.860  18.185  1.00  0.00    -0.319 N 
ATOM     60  C   UNL     1      25.973  35.419  17.150  1.00  0.00     0.407 C 
ATOM     61  H   UNL     1      24.157  34.679  17.994  1.00  0.00     0.167 HD
ATOM     62  O   UNL     1      27.195  35.676  17.226  1.00  0.00    -0.225 OA
BRANCH  60  63
ATOM     63  O   UNL     1      25.381  35.742  15.913  1.00  0.00    -0.443 OA
BRANCH  63  64
ATOM     64  C   UNL     1      24.120  35.317  15.497  1.00  0.00     0.294 C 
BRANCH  64  65
ATOM     65  C   UNL     1      24.100  34.240  14.499  1.00  0.00     0.121 A 
ATOM     66  C   UNL     1      23.223  33.161  14.474  1.00  0.00     0.144 A 
ATOM     67  N   UNL     1      24.899  34.091  13.449  1.00  0.00    -0.131 NA
ATOM     68  N   UNL     1      23.534  32.413  13.415  1.00  0.00    -0.220 N 
ATOM     69  N   UNL     1      24.546  32.982  12.801  1.00  0.00    -0.062 NA
BRANCH  68  70
ATOM     70  C   UNL     1      22.881  31.224  13.027  1.00  0.00     0.067 A 
ATOM     71  C   UNL     1      21.503  31.176  12.837  1.00  0.00     0.044 A 
ATOM     72  C   UNL     1      23.570  30.060  12.807  1.00  0.00     0.028 A 
ATOM     73  C   UNL     1      20.827  30.050  12.450  1.00  0.00     0.062 A 
ATOM     74  C   UNL     1      22.922  28.899  12.414  1.00  0.00     0.003 A 
ATOM     75  C   UNL     1      21.559  28.887  12.235  1.00  0.00     0.016 A 
BRANCH  73  76
ATOM     76  C   UNL     1      19.391  30.069  12.273  1.00  0.00     0.338 C 
ATOM     77  O   UNL     1      18.895  30.735  11.343  1.00  0.00    -0.246 OA
BRANCH  76  78
ATOM     78  O   UNL     1      18.582  29.357  13.121  1.00  0.00    -0.462 OA
BRANCH  78  79
ATOM     79  C   UNL     1      18.595  29.489  14.524  1.00  0.00     0.230 C 
ATOM     80  C   UNL     1      19.246  28.275  15.150  1.00  0.00     0.049 C 
ENDBRANCH  78  79
ENDBRANCH  76  78
ENDBRANCH  73  76
ENDBRANCH  68  70
ENDBRANCH  64  65
ENDBRANCH  63  64
ENDBRANCH  60  63
ENDBRANCH  58  59
ENDBRANCH  55  58
ENDBRANCH   1  55
TORSDOF 33
BEGIN_RES LYS A 131
REMARK  4 active torsions:
REMARK  status: ('A' for Active; 'I' for Inactive)
REMARK    1  A    between atoms: CA   and  CB  
REMARK    2  A    between atoms: CB   and  CG  
REMARK    3  A    between atoms: CG   and  CD  
REMARK    4  A    between atoms: CD   and  CE  
ROOT
ATOM      1  CA  LYS A 131      29.867  25.555  16.977  1.00 20.52     0.186 C 
ENDROOT
BRANCH   1   2
ATOM      2  CB  LYS A 131      28.345  25.722  17.026  1.00 20.94     0.034 C 
BRANCH   2   3
ATOM      3  CG  LYS A 131      27.602  24.400  16.914  1.00 22.96     0.005 C 
BRANCH   3   4
ATOM      4  CD  LYS A 131      26.173  24.513  17.370  1.00 24.33     0.041 C 
BRANCH   4   5
ATOM      5  CE  LYS A 131      25.849  23.363  18.317  1.00 26.91     0.338 C 
ATOM      6  NZ  LYS A 131      25.033  22.336  17.627  1.00 27.40     0.618 N 
ENDBRANCH   4   5
ENDBRANCH   3   4
ENDBRANCH   2   3
ENDBRANCH   1   2
END_RES LYS A 131
BEGIN_RES LYS A 135
REMARK  4 active torsions:
REMARK  status: ('A' for Active; 'I' for Inactive)
REMARK    5  A    between atoms: CA   and  CB  
REMARK    6  A    between atoms: CB   and  CG  
REMARK    7  A    between atoms: CG   and  CD  
REMARK    8  A    between atoms: CD   and  CE  
ROOT
ATOM      7  CA  LYS A 135      33.193  34.663   9.290  1.00 25.02     0.186 C 
ENDROOT
BRANCH   7   8
ATOM      8  CB  LYS A 135      32.060  35.360  10.034  1.00 26.63     0.034 C 
BRANCH   8   9
ATOM      9  CG  LYS A 135      30.787  35.462   9.234  1.00 29.45     0.005 C 
BRANCH   9  10
ATOM     10  CD  LYS A 135      29.959  34.194   9.380  1.00 32.00     0.041 C 
BRANCH  10  11
ATOM     11  CE  LYS A 135      28.660  34.487  10.108  1.00 34.25     0.338 C 
ATOM     12  NZ  LYS A 135      27.519  33.765   9.480  1.00 35.99     0.618 N 
ENDBRANCH  10  11
ENDBRANCH   9  10
ENDBRANCH   8   9
ENDBRANCH   7   8
END_RES LYS A 135
