REMARK VINA RESULT:    -3.555      2.663      9.244
REMARK INTER + INTRA:         -20.753
REMARK INTER:                  -9.206
REMARK INTRA:                 -11.547
REMARK UNBOUND:               -11.690
REMARK SMILES CC(=O)N[C@@H]1[C@@H](O)C[C@](OC[C@H]2O[C@@H](O[C@H]3[C@H](O)[C@@H](O)[C@H](OCCN=[N+]=[N-])O[C@@H]3CO)[C@H](O)[C@@H](O)[C@H]2O)(C(=O)O)O[C@H]1C(O)[C@H](O)CNC(=O)OCc1cn(CCO)nn1
REMARK SMILES IDX 9 1 8 2 6 3 5 4 42 5 41 6 10 7 11 8 12 9 14 10 13 11 32 12
REMARK SMILES IDX 34 13 36 14 15 15 16 16 29 17 28 18 21 19 17 20 19 21 30 22
REMARK SMILES IDX 31 23 22 25 23 26 24 27 25 28 26 29 27 30 18 31 20 33 33 35
REMARK SMILES IDX 35 37 37 39 38 41 39 42 40 43 7 45 43 47 44 48 45 50 46 51
REMARK SMILES IDX 47 53 48 54 49 55 50 57 51 58 52 59 53 60 54 61 60 62 55 63
REMARK SMILES IDX 59 64 56 65 57 66 58 67 4 69 2 70 1 72 3 73
REMARK H PARENT 31 24 18 32 20 34 33 36 35 38 37 40 40 44 7 46 44 49 46 52
REMARK H PARENT 48 56 58 68 4 71
REMARK Flexibility Score: inf
ROOT
ATOM      1  C   UNL     1      28.563  32.626  16.137  1.00  0.00     0.272 C 
ATOM      2  C   UNL     1      27.143  32.349  15.763  1.00  0.00     0.113 C 
ATOM      3  C   UNL     1      26.434  31.661  16.897  1.00  0.00     0.145 C 
ATOM      4  C   UNL     1      26.585  32.584  18.107  1.00  0.00     0.142 C 
ATOM      5  C   UNL     1      28.072  32.600  18.438  1.00  0.00     0.178 C 
ATOM      6  O   UNL     1      28.644  33.274  17.334  1.00  0.00    -0.332 OA
ENDROOT
BRANCH   1   7
ATOM      7  O   UNL     1      29.194  33.438  15.168  1.00  0.00    -0.338 OA
BRANCH   7   8
ATOM      8  C   UNL     1      28.382  34.279  14.482  1.00  0.00     0.199 C 
BRANCH   8   9
ATOM      9  C   UNL     1      29.096  35.602  14.163  1.00  0.00     0.179 C 
ATOM     10  C   UNL     1      30.532  37.188  15.062  1.00  0.00     0.282 C 
ATOM     11  O   UNL     1      29.711  36.086  15.298  1.00  0.00    -0.341 OA
ATOM     12  C   UNL     1      31.683  36.856  14.150  1.00  0.00     0.202 C 
ATOM     13  C   UNL     1      31.452  35.632  13.300  1.00  0.00     0.179 C 
ATOM     14  C   UNL     1      29.990  35.512  12.973  1.00  0.00     0.177 C 
BRANCH  10  15
ATOM     15  O   UNL     1      31.009  37.570  16.257  1.00  0.00    -0.341 OA
BRANCH  15  16
ATOM     16  C   UNL     1      32.218  37.178  16.687  1.00  0.00     0.184 C 
ATOM     17  C   UNL     1      32.391  36.214  17.774  1.00  0.00     0.178 C 
ATOM     18  O   UNL     1      33.504  36.527  18.534  1.00  0.00    -0.341 OA
ATOM     19  C   UNL     1      34.628  36.929  17.885  1.00  0.00     0.281 C 
ATOM     20  C   UNL     1      32.917  38.485  17.145  1.00  0.00     0.180 C 
ATOM     21  C   UNL     1      34.395  38.184  17.029  1.00  0.00     0.202 C 
BRANCH  17  22
ATOM     22  C   UNL     1      32.561  34.776  17.293  1.00  0.00     0.191 C 
BRANCH  22  23
ATOM     23  O   UNL     1      31.397  34.288  16.696  1.00  0.00    -0.394 OA
ATOM     24  H   UNL     1      31.525  33.339  16.508  1.00  0.00     0.210 HD
ENDBRANCH  22  23
ENDBRANCH  17  22
BRANCH  19  25
ATOM     25  O   UNL     1      35.328  35.977  17.201  1.00  0.00    -0.350 OA
BRANCH  25  26
ATOM     26  C   UNL     1      36.493  36.363  16.611  1.00  0.00     0.169 C 
BRANCH  26  27
ATOM     27  C   UNL     1      37.485  35.250  16.586  1.00  0.00     0.119 C 
BRANCH  27  28
ATOM     28  N   UNL     1      38.184  35.255  15.290  1.00  0.00    -0.092 NA
ATOM     29  N   UNL     1      38.052  34.213  14.623  1.00  0.00     0.001 N 
ATOM     30  N   UNL     1      37.568  33.549  13.689  1.00  0.00    -0.003 NA
ENDBRANCH  27  28
ENDBRANCH  26  27
ENDBRANCH  25  26
ENDBRANCH  19  25
BRANCH  20  31
ATOM     31  O   UNL     1      32.516  39.549  16.380  1.00  0.00    -0.387 OA
ATOM     32  H   UNL     1      32.511  39.345  15.410  1.00  0.00     0.211 HD
ENDBRANCH  20  31
BRANCH  21  33
ATOM     33  O   UNL     1      35.153  39.256  17.416  1.00  0.00    -0.385 OA
ATOM     34  H   UNL     1      36.035  39.287  16.969  1.00  0.00     0.211 HD
ENDBRANCH  21  33
ENDBRANCH  15  16
ENDBRANCH  10  15
BRANCH  12  35
ATOM     35  O   UNL     1      31.831  37.921  13.246  1.00  0.00    -0.385 OA
ATOM     36  H   UNL     1      32.471  37.735  12.531  1.00  0.00     0.211 HD
ENDBRANCH  12  35
BRANCH  13  37
ATOM     37  O   UNL     1      31.970  34.531  13.930  1.00  0.00    -0.387 OA
ATOM     38  H   UNL     1      32.325  33.853  13.273  1.00  0.00     0.211 HD
ENDBRANCH  13  37
BRANCH  14  39
ATOM     39  O   UNL     1      29.800  34.234  12.401  1.00  0.00    -0.387 OA
ATOM     40  H   UNL     1      30.069  33.522  13.033  1.00  0.00     0.211 HD
ENDBRANCH  14  39
ENDBRANCH   8   9
ENDBRANCH   7   8
ENDBRANCH   1   7
BRANCH   1  41
ATOM     41  C   UNL     1      29.322  31.357  16.093  1.00  0.00     0.364 C 
ATOM     42  O   UNL     1      28.929  30.354  15.470  1.00  0.00    -0.246 OA
BRANCH  41  43
ATOM     43  O   UNL     1      30.530  31.234  16.757  1.00  0.00    -0.477 OA
ATOM     44  H   UNL     1      30.594  31.067  17.776  1.00  0.00     0.296 HD
ENDBRANCH  41  43
ENDBRANCH   1  41
BRANCH   3  45
ATOM     45  O   UNL     1      25.048  31.580  16.639  1.00  0.00    -0.391 OA
ATOM     46  H   UNL     1      24.766  30.627  16.705  1.00  0.00     0.211 HD
ENDBRANCH   3  45
BRANCH   5  47
ATOM     47  C   UNL     1      28.303  33.518  19.595  1.00  0.00     0.176 C 
BRANCH  47  48
ATOM     48  O   UNL     1      27.864  32.959  20.796  1.00  0.00    -0.388 OA
ATOM     49  H   UNL     1      27.616  32.002  20.693  1.00  0.00     0.211 HD
ENDBRANCH  47  48
BRANCH  47  50
ATOM     50  C   UNL     1      29.639  34.126  19.768  1.00  0.00     0.165 C 
BRANCH  50  51
ATOM     51  O   UNL     1      30.524  33.075  19.268  1.00  0.00    -0.388 OA
ATOM     52  H   UNL     1      30.678  33.239  18.309  1.00  0.00     0.211 HD
ENDBRANCH  50  51
BRANCH  50  53
ATOM     53  C   UNL     1      30.101  34.223  21.212  1.00  0.00     0.154 C 
BRANCH  53  54
ATOM     54  N   UNL     1      30.928  33.136  21.627  1.00  0.00    -0.319 N 
ATOM     55  C   UNL     1      30.539  32.296  22.702  1.00  0.00     0.407 C 
ATOM     56  H   UNL     1      31.856  32.931  21.159  1.00  0.00     0.167 HD
ATOM     57  O   UNL     1      29.427  32.579  23.262  1.00  0.00    -0.225 OA
BRANCH  55  58
ATOM     58  O   UNL     1      31.237  31.221  23.182  1.00  0.00    -0.443 OA
BRANCH  58  59
ATOM     59  C   UNL     1      31.542  30.150  22.309  1.00  0.00     0.294 C 
BRANCH  59  60
ATOM     60  C   UNL     1      30.562  29.993  21.232  1.00  0.00     0.120 A 
ATOM     61  C   UNL     1      29.306  29.456  21.370  1.00  0.00     0.138 A 
ATOM     62  N   UNL     1      30.671  30.324  19.936  1.00  0.00    -0.132 NA
ATOM     63  N   UNL     1      28.685  29.469  20.174  1.00  0.00    -0.250 N 
ATOM     64  N   UNL     1      29.527  30.000  19.318  1.00  0.00    -0.067 NA
BRANCH  63  65
ATOM     65  C   UNL     1      27.324  28.979  19.912  1.00  0.00     0.174 C 
BRANCH  65  66
ATOM     66  C   UNL     1      27.402  27.930  18.831  1.00  0.00     0.179 C 
BRANCH  66  67
ATOM     67  O   UNL     1      27.725  28.586  17.631  1.00  0.00    -0.394 OA
ATOM     68  H   UNL     1      28.665  28.824  17.561  1.00  0.00     0.210 HD
ENDBRANCH  66  67
ENDBRANCH  65  66
ENDBRANCH  63  65
ENDBRANCH  59  60
ENDBRANCH  58  59
ENDBRANCH  55  58
ENDBRANCH  53  54
ENDBRANCH  50  53
ENDBRANCH  47  50
ENDBRANCH   5  47
BRANCH   4  69
ATOM     69  N   UNL     1      25.702  32.280  19.162  1.00  0.00    -0.348 N 
ATOM     70  C   UNL     1      24.466  32.921  19.414  1.00  0.00     0.217 C 
ATOM     71  H   UNL     1      25.945  31.503  19.829  1.00  0.00     0.163 HD
ATOM     72  C   UNL     1      23.642  32.499  20.564  1.00  0.00     0.114 C 
ATOM     73  O   UNL     1      24.063  33.837  18.681  1.00  0.00    -0.275 OA
ENDBRANCH   4  69
TORSDOF 32
BEGIN_RES LYS A 131
REMARK  4 active torsions:
REMARK  status: ('A' for Active; 'I' for Inactive)
REMARK    1  A    between atoms: CA   and  CB  
REMARK    2  A    between atoms: CB   and  CG  
REMARK    3  A    between atoms: CG   and  CD  
REMARK    4  A    between atoms: CD   and  CE  
ROOT
ATOM      1  CA  LYS A 131      29.867  25.555  16.977  1.00 20.52     0.186 C 
ENDROOT
BRANCH   1   2
ATOM      2  CB  LYS A 131      28.345  25.722  17.026  1.00 20.94     0.034 C 
BRANCH   2   3
ATOM      3  CG  LYS A 131      27.599  24.432  16.722  1.00 22.96     0.005 C 
BRANCH   3   4
ATOM      4  CD  LYS A 131      26.934  23.861  17.944  1.00 24.33     0.041 C 
BRANCH   4   5
ATOM      5  CE  LYS A 131      25.587  23.260  17.556  1.00 26.91     0.338 C 
ATOM      6  NZ  LYS A 131      24.478  24.125  18.023  1.00 27.40     0.618 N 
ENDBRANCH   4   5
ENDBRANCH   3   4
ENDBRANCH   2   3
ENDBRANCH   1   2
END_RES LYS A 131
BEGIN_RES LYS A 135
REMARK  4 active torsions:
REMARK  status: ('A' for Active; 'I' for Inactive)
REMARK    5  A    between atoms: CA   and  CB  
REMARK    6  A    between atoms: CB   and  CG  
REMARK    7  A    between atoms: CG   and  CD  
REMARK    8  A    between atoms: CD   and  CE  
ROOT
ATOM      7  CA  LYS A 135      33.193  34.663   9.290  1.00 25.02     0.186 C 
ENDROOT
BRANCH   7   8
ATOM      8  CB  LYS A 135      32.060  35.360  10.034  1.00 26.63     0.034 C 
BRANCH   8   9
ATOM      9  CG  LYS A 135      30.797  35.491   9.223  1.00 29.45     0.005 C 
BRANCH   9  10
ATOM     10  CD  LYS A 135      30.226  34.120   8.894  1.00 32.00     0.041 C 
BRANCH  10  11
ATOM     11  CE  LYS A 135      28.717  34.119   9.052  1.00 34.25     0.338 C 
ATOM     12  NZ  LYS A 135      28.062  34.879   7.952  1.00 35.99     0.618 N 
ENDBRANCH  10  11
ENDBRANCH   9  10
ENDBRANCH   8   9
ENDBRANCH   7   8
END_RES LYS A 135
