REMARK VINA RESULT:    -4.480      2.496      6.696
REMARK INTER + INTRA:         -23.141
REMARK INTER:                 -10.619
REMARK INTRA:                 -12.522
REMARK UNBOUND:               -11.851
REMARK SMILES CC(=O)N[C@@H]1[C@@H](O)C[C@](OC[C@H]2O[C@@H](O[C@H]3[C@H](O)[C@@H](O)[C@H](OCCN=[N+]=[N-])O[C@@H]3CO)[C@H](O)[C@@H](O)[C@H]2O)(C(=O)O)O[C@H]1C(O)[C@H](O)CNC(=O)OCc1cn(Cc2ccccc2)nn1
REMARK SMILES IDX 9 1 8 2 6 3 5 4 42 5 41 6 10 7 11 8 12 9 14 10 13 11 32 12
REMARK SMILES IDX 34 13 36 14 15 15 16 16 29 17 28 18 21 19 17 20 19 21 30 22
REMARK SMILES IDX 31 23 22 25 23 26 24 27 25 28 26 29 27 30 18 31 20 33 33 35
REMARK SMILES IDX 35 37 37 39 38 41 39 42 40 43 7 45 43 47 44 48 45 50 46 51
REMARK SMILES IDX 47 53 48 54 49 55 50 57 51 58 52 59 53 60 54 61 64 62 55 63
REMARK SMILES IDX 63 64 56 65 57 66 58 67 62 68 59 69 61 70 60 71 4 72 2 73
REMARK SMILES IDX 1 75 3 76
REMARK H PARENT 31 24 18 32 20 34 33 36 35 38 37 40 40 44 7 46 44 49 46 52
REMARK H PARENT 48 56 4 74
REMARK Flexibility Score: inf
ROOT
ATOM      1  C   UNL     1      29.892  32.987  18.652  1.00  0.00     0.272 C 
ATOM      2  C   UNL     1      29.875  31.527  18.915  1.00  0.00     0.113 C 
ATOM      3  C   UNL     1      28.675  30.926  18.290  1.00  0.00     0.145 C 
ATOM      4  C   UNL     1      27.719  31.948  17.655  1.00  0.00     0.142 C 
ATOM      5  C   UNL     1      27.561  33.134  18.509  1.00  0.00     0.178 C 
ATOM      6  O   UNL     1      28.716  33.516  19.216  1.00  0.00    -0.332 OA
ENDROOT
BRANCH   1   7
ATOM      7  O   UNL     1      30.034  33.369  17.334  1.00  0.00    -0.338 OA
BRANCH   7   8
ATOM      8  C   UNL     1      31.169  32.790  16.790  1.00  0.00     0.199 C 
BRANCH   8   9
ATOM      9  C   UNL     1      31.785  33.641  15.703  1.00  0.00     0.179 C 
ATOM     10  C   UNL     1      31.127  34.933  13.875  1.00  0.00     0.282 C 
ATOM     11  O   UNL     1      30.983  33.741  14.589  1.00  0.00    -0.341 OA
ATOM     12  C   UNL     1      32.532  35.402  13.800  1.00  0.00     0.202 C 
ATOM     13  C   UNL     1      33.059  35.699  15.168  1.00  0.00     0.179 C 
ATOM     14  C   UNL     1      32.245  34.980  16.217  1.00  0.00     0.177 C 
BRANCH  10  15
ATOM     15  O   UNL     1      30.302  35.924  14.381  1.00  0.00    -0.341 OA
BRANCH  15  16
ATOM     16  C   UNL     1      29.183  36.176  13.597  1.00  0.00     0.184 C 
ATOM     17  C   UNL     1      29.073  37.624  13.295  1.00  0.00     0.178 C 
ATOM     18  O   UNL     1      27.894  37.807  12.542  1.00  0.00    -0.341 OA
ATOM     19  C   UNL     1      26.847  37.749  13.483  1.00  0.00     0.281 C 
ATOM     20  C   UNL     1      27.989  35.784  14.483  1.00  0.00     0.180 C 
ATOM     21  C   UNL     1      26.692  36.317  13.971  1.00  0.00     0.202 C 
BRANCH  17  22
ATOM     22  C   UNL     1      30.265  38.145  12.499  1.00  0.00     0.191 C 
BRANCH  22  23
ATOM     23  O   UNL     1      31.224  38.577  13.441  1.00  0.00    -0.394 OA
ATOM     24  H   UNL     1      31.334  37.872  14.122  1.00  0.00     0.210 HD
ENDBRANCH  22  23
ENDBRANCH  17  22
BRANCH  19  25
ATOM     25  O   UNL     1      25.684  38.174  12.890  1.00  0.00    -0.350 OA
BRANCH  25  26
ATOM     26  C   UNL     1      25.823  38.161  11.516  1.00  0.00     0.169 C 
BRANCH  26  27
ATOM     27  C   UNL     1      24.891  37.235  10.794  1.00  0.00     0.119 C 
BRANCH  27  28
ATOM     28  N   UNL     1      25.739  36.280  10.065  1.00  0.00    -0.092 NA
ATOM     29  N   UNL     1      26.175  35.325  10.707  1.00  0.00     0.001 N 
ATOM     30  N   UNL     1      26.620  34.208  11.004  1.00  0.00    -0.003 NA
ENDBRANCH  27  28
ENDBRANCH  26  27
ENDBRANCH  25  26
ENDBRANCH  19  25
BRANCH  20  31
ATOM     31  O   UNL     1      27.951  34.376  14.424  1.00  0.00    -0.387 OA
ATOM     32  H   UNL     1      28.862  33.977  14.446  1.00  0.00     0.211 HD
ENDBRANCH  20  31
BRANCH  21  33
ATOM     33  O   UNL     1      25.756  36.327  15.005  1.00  0.00    -0.385 OA
ATOM     34  H   UNL     1      25.718  35.463  15.496  1.00  0.00     0.211 HD
ENDBRANCH  21  33
ENDBRANCH  15  16
ENDBRANCH  10  15
BRANCH  12  35
ATOM     35  O   UNL     1      33.361  34.500  13.110  1.00  0.00    -0.385 OA
ATOM     36  H   UNL     1      32.958  33.605  13.243  1.00  0.00     0.211 HD
ENDBRANCH  12  35
BRANCH  13  37
ATOM     37  O   UNL     1      33.018  37.072  15.378  1.00  0.00    -0.387 OA
ATOM     38  H   UNL     1      33.348  37.586  14.592  1.00  0.00     0.211 HD
ENDBRANCH  13  37
BRANCH  14  39
ATOM     39  O   UNL     1      31.272  35.749  16.794  1.00  0.00    -0.387 OA
ATOM     40  H   UNL     1      31.279  36.706  16.592  1.00  0.00     0.211 HD
ENDBRANCH  14  39
ENDBRANCH   8   9
ENDBRANCH   7   8
ENDBRANCH   1   7
BRANCH   1  41
ATOM     41  C   UNL     1      30.965  33.693  19.434  1.00  0.00     0.364 C 
ATOM     42  O   UNL     1      30.988  34.924  19.460  1.00  0.00    -0.246 OA
BRANCH  41  43
ATOM     43  O   UNL     1      31.910  32.960  20.117  1.00  0.00    -0.477 OA
ATOM     44  H   UNL     1      31.839  32.770  21.118  1.00  0.00     0.296 HD
ENDBRANCH  41  43
ENDBRANCH   1  41
BRANCH   3  45
ATOM     45  O   UNL     1      28.959  29.997  17.271  1.00  0.00    -0.391 OA
ATOM     46  H   UNL     1      29.277  30.408  16.454  1.00  0.00     0.211 HD
ENDBRANCH   3  45
BRANCH   5  47
ATOM     47  C   UNL     1      27.015  34.379  17.946  1.00  0.00     0.176 C 
BRANCH  47  48
ATOM     48  O   UNL     1      26.153  34.225  16.883  1.00  0.00    -0.388 OA
ATOM     49  H   UNL     1      25.448  34.906  16.815  1.00  0.00     0.211 HD
ENDBRANCH  47  48
BRANCH  47  50
ATOM     50  C   UNL     1      26.459  35.404  18.892  1.00  0.00     0.165 C 
BRANCH  50  51
ATOM     51  O   UNL     1      27.390  36.251  19.408  1.00  0.00    -0.388 OA
ATOM     52  H   UNL     1      27.837  36.819  18.751  1.00  0.00     0.211 HD
ENDBRANCH  50  51
BRANCH  50  53
ATOM     53  C   UNL     1      25.440  34.831  19.832  1.00  0.00     0.154 C 
BRANCH  53  54
ATOM     54  N   UNL     1      24.229  34.379  19.199  1.00  0.00    -0.319 N 
ATOM     55  C   UNL     1      23.765  33.024  19.197  1.00  0.00     0.407 C 
ATOM     56  H   UNL     1      23.582  35.045  18.679  1.00  0.00     0.167 HD
ATOM     57  O   UNL     1      24.441  32.142  19.773  1.00  0.00    -0.225 OA
BRANCH  55  58
ATOM     58  O   UNL     1      22.587  32.664  18.570  1.00  0.00    -0.443 OA
BRANCH  58  59
ATOM     59  C   UNL     1      21.878  33.624  17.825  1.00  0.00     0.294 C 
BRANCH  59  60
ATOM     60  C   UNL     1      22.436  33.768  16.463  1.00  0.00     0.120 A 
ATOM     61  C   UNL     1      21.881  33.170  15.324  1.00  0.00     0.138 A 
ATOM     62  N   UNL     1      23.503  34.439  16.015  1.00  0.00    -0.132 NA
ATOM     63  N   UNL     1      22.629  33.506  14.261  1.00  0.00    -0.248 N 
ATOM     64  N   UNL     1      23.595  34.264  14.689  1.00  0.00    -0.067 NA
BRANCH  63  65
ATOM     65  C   UNL     1      22.377  33.090  12.899  1.00  0.00     0.181 C 
BRANCH  65  66
ATOM     66  C   UNL     1      22.568  31.623  12.790  1.00  0.00    -0.026 A 
ATOM     67  C   UNL     1      21.523  30.768  12.484  1.00  0.00     0.005 A 
ATOM     68  C   UNL     1      23.834  31.099  13.000  1.00  0.00     0.005 A 
ATOM     69  C   UNL     1      21.752  29.406  12.393  1.00  0.00     0.000 A 
ATOM     70  C   UNL     1      24.050  29.737  12.906  1.00  0.00     0.000 A 
ATOM     71  C   UNL     1      23.009  28.898  12.603  1.00  0.00     0.000 A 
ENDBRANCH  65  66
ENDBRANCH  63  65
ENDBRANCH  59  60
ENDBRANCH  58  59
ENDBRANCH  55  58
ENDBRANCH  53  54
ENDBRANCH  50  53
ENDBRANCH  47  50
ENDBRANCH   5  47
BRANCH   4  72
ATOM     72  N   UNL     1      26.463  31.172  17.625  1.00  0.00    -0.348 N 
ATOM     73  C   UNL     1      25.899  30.658  16.436  1.00  0.00     0.217 C 
ATOM     74  H   UNL     1      25.960  30.992  18.522  1.00  0.00     0.163 HD
ATOM     75  C   UNL     1      24.623  29.881  16.437  1.00  0.00     0.114 C 
ATOM     76  O   UNL     1      26.496  30.866  15.352  1.00  0.00    -0.275 OA
ENDBRANCH   4  72
TORSDOF 31
BEGIN_RES LYS A 131
REMARK  4 active torsions:
REMARK  status: ('A' for Active; 'I' for Inactive)
REMARK    1  A    between atoms: CA   and  CB  
REMARK    2  A    between atoms: CB   and  CG  
REMARK    3  A    between atoms: CG   and  CD  
REMARK    4  A    between atoms: CD   and  CE  
ROOT
ATOM      1  CA  LYS A 131      29.867  25.555  16.977  1.00 20.52     0.186 C 
ENDROOT
BRANCH   1   2
ATOM      2  CB  LYS A 131      28.345  25.722  17.026  1.00 20.94     0.034 C 
BRANCH   2   3
ATOM      3  CG  LYS A 131      27.599  24.476  16.574  1.00 22.96     0.005 C 
BRANCH   3   4
ATOM      4  CD  LYS A 131      27.213  23.596  17.731  1.00 24.33     0.041 C 
BRANCH   4   5
ATOM      5  CE  LYS A 131      25.699  23.406  17.742  1.00 26.91     0.338 C 
ATOM      6  NZ  LYS A 131      25.039  24.450  16.923  1.00 27.40     0.618 N 
ENDBRANCH   4   5
ENDBRANCH   3   4
ENDBRANCH   2   3
ENDBRANCH   1   2
END_RES LYS A 131
BEGIN_RES LYS A 135
REMARK  4 active torsions:
REMARK  status: ('A' for Active; 'I' for Inactive)
REMARK    5  A    between atoms: CA   and  CB  
REMARK    6  A    between atoms: CB   and  CG  
REMARK    7  A    between atoms: CG   and  CD  
REMARK    8  A    between atoms: CD   and  CE  
ROOT
ATOM      7  CA  LYS A 135      33.193  34.663   9.290  1.00 25.02     0.186 C 
ENDROOT
BRANCH   7   8
ATOM      8  CB  LYS A 135      32.060  35.360  10.034  1.00 26.63     0.034 C 
BRANCH   8   9
ATOM      9  CG  LYS A 135      30.734  34.655   9.909  1.00 29.45     0.005 C 
BRANCH   9  10
ATOM     10  CD  LYS A 135      30.346  34.497   8.447  1.00 32.00     0.041 C 
BRANCH  10  11
ATOM     11  CE  LYS A 135      28.837  34.497   8.293  1.00 34.25     0.338 C 
ATOM     12  NZ  LYS A 135      28.415  35.354   7.151  1.00 35.99     0.618 N 
ENDBRANCH  10  11
ENDBRANCH   9  10
ENDBRANCH   8   9
ENDBRANCH   7   8
END_RES LYS A 135
