REMARK VINA RESULT:    -4.975      3.682     10.437
REMARK INTER + INTRA:         -22.710
REMARK INTER:                 -12.246
REMARK INTRA:                 -10.464
REMARK UNBOUND:               -10.464
REMARK SMILES CC(=O)N[C@@H]1[C@@H](O)C[C@](OC[C@H]2O[C@@H](O[C@H]3[C@H](O)[C@@H](O)[C@H](OCCN=[N+]=[N-])O[C@@H]3CO)[C@H](O)[C@@H](O)[C@H]2O)(C(=O)O)O[C@H]1C(O)[C@H](O)CNC(=O)OCc1cn(-c2c3ccccc3nc3ccccc23)nn1
REMARK SMILES IDX 9 1 8 2 6 3 5 4 42 5 41 6 10 7 11 8 12 9 14 10 13 11 32 12
REMARK SMILES IDX 34 13 36 14 15 15 16 16 29 17 28 18 21 19 17 20 19 21 30 22
REMARK SMILES IDX 31 23 22 25 23 26 24 27 25 28 26 29 27 30 18 31 20 33 33 35
REMARK SMILES IDX 35 37 37 39 38 41 39 42 40 43 7 45 43 47 44 48 45 50 46 51
REMARK SMILES IDX 47 53 48 54 49 55 50 57 51 58 52 59 53 60 54 61 71 62 55 63
REMARK SMILES IDX 70 64 56 65 57 66 69 67 58 68 62 69 64 70 68 71 59 72 61 73
REMARK SMILES IDX 63 74 65 75 67 76 60 77 66 78 4 79 2 80 1 82 3 83
REMARK H PARENT 31 24 18 32 20 34 33 36 35 38 37 40 40 44 7 46 44 49 46 52
REMARK H PARENT 48 56 4 81
REMARK Flexibility Score: inf
ROOT
ATOM      1  C   UNL     1      24.212  37.487   8.752  1.00  0.00     0.272 C 
ATOM      2  C   UNL     1      22.993  36.655   8.117  1.00  0.00     0.113 C 
ATOM      3  C   UNL     1      22.724  35.605   9.132  1.00  0.00     0.145 C 
ATOM      4  C   UNL     1      22.462  36.126  10.530  1.00  0.00     0.142 C 
ATOM      5  C   UNL     1      23.098  37.418  10.829  1.00  0.00     0.178 C 
ATOM      6  O   UNL     1      23.657  38.094   9.798  1.00  0.00    -0.332 OA
ENDROOT
BRANCH   1   7
ATOM      7  O   UNL     1      24.397  38.411   7.721  1.00  0.00    -0.338 OA
BRANCH   7   8
ATOM      8  C   UNL     1      23.642  39.533   7.759  1.00  0.00     0.199 C 
BRANCH   8   9
ATOM      9  C   UNL     1      24.370  40.804   7.543  1.00  0.00     0.179 C 
ATOM     10  C   UNL     1      26.259  42.066   8.079  1.00  0.00     0.282 C 
ATOM     11  O   UNL     1      25.503  40.895   8.304  1.00  0.00    -0.341 OA
ATOM     12  C   UNL     1      25.588  43.070   7.239  1.00  0.00     0.202 C 
ATOM     13  C   UNL     1      25.087  42.483   5.939  1.00  0.00     0.179 C 
ATOM     14  C   UNL     1      24.688  41.050   6.066  1.00  0.00     0.177 C 
BRANCH  10  15
ATOM     15  O   UNL     1      27.526  41.723   7.628  1.00  0.00    -0.341 OA
BRANCH  15  16
ATOM     16  C   UNL     1      28.182  40.817   8.494  1.00  0.00     0.184 C 
ATOM     17  C   UNL     1      29.402  41.443   9.041  1.00  0.00     0.178 C 
ATOM     18  O   UNL     1      30.354  40.506   9.523  1.00  0.00    -0.341 OA
ATOM     19  C   UNL     1      30.778  39.772   8.421  1.00  0.00     0.281 C 
ATOM     20  C   UNL     1      28.516  39.623   7.586  1.00  0.00     0.180 C 
ATOM     21  C   UNL     1      29.632  38.786   8.146  1.00  0.00     0.202 C 
BRANCH  17  22
ATOM     22  C   UNL     1      29.085  42.361  10.212  1.00  0.00     0.191 C 
BRANCH  22  23
ATOM     23  O   UNL     1      29.556  41.898  11.413  1.00  0.00    -0.394 OA
ATOM     24  H   UNL     1      30.489  42.212  11.536  1.00  0.00     0.210 HD
ENDBRANCH  22  23
ENDBRANCH  17  22
BRANCH  19  25
ATOM     25  O   UNL     1      31.950  39.143   8.756  1.00  0.00    -0.350 OA
BRANCH  25  26
ATOM     26  C   UNL     1      33.092  39.729   8.220  1.00  0.00     0.169 C 
BRANCH  26  27
ATOM     27  C   UNL     1      33.012  39.863   6.714  1.00  0.00     0.119 C 
BRANCH  27  28
ATOM     28  N   UNL     1      34.268  39.355   6.174  1.00  0.00    -0.092 NA
ATOM     29  N   UNL     1      34.456  39.314   4.953  1.00  0.00     0.001 N 
ATOM     30  N   UNL     1      34.724  39.313   3.750  1.00  0.00    -0.003 NA
ENDBRANCH  27  28
ENDBRANCH  26  27
ENDBRANCH  25  26
ENDBRANCH  19  25
BRANCH  20  31
ATOM     31  O   UNL     1      27.368  38.890   7.332  1.00  0.00    -0.387 OA
ATOM     32  H   UNL     1      27.395  38.414   6.466  1.00  0.00     0.211 HD
ENDBRANCH  20  31
BRANCH  21  33
ATOM     33  O   UNL     1      30.004  37.838   7.220  1.00  0.00    -0.385 OA
ATOM     34  H   UNL     1      29.263  37.161   7.176  1.00  0.00     0.211 HD
ENDBRANCH  21  33
ENDBRANCH  15  16
ENDBRANCH  10  15
BRANCH  12  35
ATOM     35  O   UNL     1      24.573  43.725   7.952  1.00  0.00    -0.385 OA
ATOM     36  H   UNL     1      25.049  44.357   8.570  1.00  0.00     0.211 HD
ENDBRANCH  12  35
BRANCH  13  37
ATOM     37  O   UNL     1      26.102  42.654   4.978  1.00  0.00    -0.387 OA
ATOM     38  H   UNL     1      26.965  42.618   5.501  1.00  0.00     0.211 HD
ENDBRANCH  13  37
BRANCH  14  39
ATOM     39  O   UNL     1      25.633  40.170   5.578  1.00  0.00    -0.387 OA
ATOM     40  H   UNL     1      25.273  39.553   4.891  1.00  0.00     0.211 HD
ENDBRANCH  14  39
ENDBRANCH   8   9
ENDBRANCH   7   8
ENDBRANCH   1   7
BRANCH   1  41
ATOM     41  C   UNL     1      25.243  36.509   8.852  1.00  0.00     0.364 C 
ATOM     42  O   UNL     1      25.913  36.155   7.828  1.00  0.00    -0.246 OA
BRANCH  41  43
ATOM     43  O   UNL     1      25.640  35.846  10.019  1.00  0.00    -0.477 OA
ATOM     44  H   UNL     1      26.551  36.052  10.409  1.00  0.00     0.296 HD
ENDBRANCH  41  43
ENDBRANCH   1  41
BRANCH   3  45
ATOM     45  O   UNL     1      21.603  34.874   8.668  1.00  0.00    -0.391 OA
ATOM     46  H   UNL     1      21.725  33.917   8.902  1.00  0.00     0.211 HD
ENDBRANCH   3  45
BRANCH   5  47
ATOM     47  C   UNL     1      22.090  38.420  11.457  1.00  0.00     0.176 C 
BRANCH  47  48
ATOM     48  O   UNL     1      21.283  37.789  12.357  1.00  0.00    -0.388 OA
ATOM     49  H   UNL     1      21.036  36.846  12.102  1.00  0.00     0.211 HD
ENDBRANCH  47  48
BRANCH  47  50
ATOM     50  C   UNL     1      22.680  39.712  11.797  1.00  0.00     0.165 C 
BRANCH  50  51
ATOM     51  O   UNL     1      22.973  40.575  10.738  1.00  0.00    -0.388 OA
ATOM     52  H   UNL     1      23.322  40.085   9.952  1.00  0.00     0.211 HD
ENDBRANCH  50  51
BRANCH  50  53
ATOM     53  C   UNL     1      23.645  39.791  12.915  1.00  0.00     0.154 C 
BRANCH  53  54
ATOM     54  N   UNL     1      24.105  38.612  13.547  1.00  0.00    -0.319 N 
ATOM     55  C   UNL     1      23.794  38.212  14.864  1.00  0.00     0.407 C 
ATOM     56  H   UNL     1      24.752  37.950  12.974  1.00  0.00     0.167 HD
ATOM     57  O   UNL     1      23.093  38.861  15.654  1.00  0.00    -0.225 OA
BRANCH  55  58
ATOM     58  O   UNL     1      24.285  36.995  15.378  1.00  0.00    -0.443 OA
BRANCH  58  59
ATOM     59  C   UNL     1      24.106  35.753  14.718  1.00  0.00     0.294 C 
BRANCH  59  60
ATOM     60  C   UNL     1      25.382  35.356  14.056  1.00  0.00     0.121 A 
ATOM     61  C   UNL     1      26.669  35.495  14.528  1.00  0.00     0.144 A 
ATOM     62  N   UNL     1      25.513  34.792  12.847  1.00  0.00    -0.131 NA
ATOM     63  N   UNL     1      27.552  35.022  13.619  1.00  0.00    -0.219 N 
ATOM     64  N   UNL     1      26.815  34.601  12.604  1.00  0.00    -0.062 NA
BRANCH  63  65
ATOM     65  C   UNL     1      28.985  34.996  13.746  1.00  0.00     0.085 A 
ATOM     66  C   UNL     1      29.600  33.982  14.465  1.00  0.00     0.027 A 
ATOM     67  C   UNL     1      29.787  35.957  13.176  1.00  0.00     0.027 A 
ATOM     68  C   UNL     1      28.851  32.989  15.059  1.00  0.00     0.012 A 
ATOM     69  C   UNL     1      30.982  33.915  14.621  1.00  0.00     0.073 A 
ATOM     70  C   UNL     1      31.149  35.854  13.353  1.00  0.00     0.073 A 
ATOM     71  C   UNL     1      29.250  36.982  12.454  1.00  0.00     0.012 A 
ATOM     72  C   UNL     1      29.461  31.980  15.772  1.00  0.00     0.001 A 
ATOM     73  C   UNL     1      31.588  32.905  15.335  1.00  0.00     0.029 A 
ATOM     74  N   UNL     1      31.734  34.867  14.054  1.00  0.00    -0.248 NA
ATOM     75  C   UNL     1      31.986  36.799  12.797  1.00  0.00     0.029 A 
ATOM     76  C   UNL     1      30.116  37.918  11.904  1.00  0.00     0.001 A 
ATOM     77  C   UNL     1      30.843  31.915  15.928  1.00  0.00     0.002 A 
ATOM     78  C   UNL     1      31.484  37.854  12.057  1.00  0.00     0.002 A 
ENDBRANCH  63  65
ENDBRANCH  59  60
ENDBRANCH  58  59
ENDBRANCH  55  58
ENDBRANCH  53  54
ENDBRANCH  50  53
ENDBRANCH  47  50
ENDBRANCH   5  47
BRANCH   4  79
ATOM     79  N   UNL     1      22.768  35.083  11.483  1.00  0.00    -0.348 N 
ATOM     80  C   UNL     1      21.819  34.140  11.979  1.00  0.00     0.217 C 
ATOM     81  H   UNL     1      23.735  34.977  11.869  1.00  0.00     0.163 HD
ATOM     82  C   UNL     1      22.261  33.106  12.975  1.00  0.00     0.114 C 
ATOM     83  O   UNL     1      20.653  34.215  11.561  1.00  0.00    -0.275 OA
ENDBRANCH   4  79
TORSDOF 30
BEGIN_RES LYS A 131
REMARK  4 active torsions:
REMARK  status: ('A' for Active; 'I' for Inactive)
REMARK    1  A    between atoms: CA   and  CB  
REMARK    2  A    between atoms: CB   and  CG  
REMARK    3  A    between atoms: CG   and  CD  
REMARK    4  A    between atoms: CD   and  CE  
ROOT
ATOM      1  CA  LYS A 131      29.867  25.555  16.977  1.00 20.52     0.186 C 
ENDROOT
BRANCH   1   2
ATOM      2  CB  LYS A 131      28.345  25.722  17.026  1.00 20.94     0.034 C 
BRANCH   2   3
ATOM      3  CG  LYS A 131      27.602  24.399  16.926  1.00 22.96     0.005 C 
BRANCH   3   4
ATOM      4  CD  LYS A 131      26.150  24.535  17.291  1.00 24.33     0.041 C 
BRANCH   4   5
ATOM      5  CE  LYS A 131      25.594  23.172  17.689  1.00 26.91     0.338 C 
ATOM      6  NZ  LYS A 131      25.431  23.087  19.160  1.00 27.40     0.618 N 
ENDBRANCH   4   5
ENDBRANCH   3   4
ENDBRANCH   2   3
ENDBRANCH   1   2
END_RES LYS A 131
BEGIN_RES LYS A 135
REMARK  4 active torsions:
REMARK  status: ('A' for Active; 'I' for Inactive)
REMARK    5  A    between atoms: CA   and  CB  
REMARK    6  A    between atoms: CB   and  CG  
REMARK    7  A    between atoms: CG   and  CD  
REMARK    8  A    between atoms: CD   and  CE  
ROOT
ATOM      7  CA  LYS A 135      33.193  34.663   9.290  1.00 25.02     0.186 C 
ENDROOT
BRANCH   7   8
ATOM      8  CB  LYS A 135      32.060  35.360  10.034  1.00 26.63     0.034 C 
BRANCH   8   9
ATOM      9  CG  LYS A 135      30.732  34.661   9.901  1.00 29.45     0.005 C 
BRANCH   9  10
ATOM     10  CD  LYS A 135      30.340  34.527   8.437  1.00 32.00     0.041 C 
BRANCH  10  11
ATOM     11  CE  LYS A 135      28.831  34.523   8.288  1.00 34.25     0.338 C 
ATOM     12  NZ  LYS A 135      28.183  33.783   9.406  1.00 35.99     0.618 N 
ENDBRANCH  10  11
ENDBRANCH   9  10
ENDBRANCH   8   9
ENDBRANCH   7   8
END_RES LYS A 135
