REMARK VINA RESULT:    -4.036      4.040      8.010
REMARK INTER + INTRA:         -22.581
REMARK INTER:                 -12.440
REMARK INTRA:                 -10.141
REMARK UNBOUND:               -11.702
REMARK SMILES CC(=O)N[C@@H]1[C@@H](O)C[C@](OC[C@H]2O[C@@H](O[C@H]3[C@H](O)[C@@H](O)[C@H](OCCN=[N+]=[N-])O[C@@H]3CO)[C@H](O)[C@@H](O)[C@H]2O)(C(=O)O)O[C@H]1C(O)[C@H](O)CNC(=O)OCc1cn([C@@H](CC(=O)O)C(=O)O)nn1
REMARK SMILES IDX 43 1 42 2 9 3 8 4 41 5 6 6 5 7 10 8 11 9 12 10 14 11 13 12
REMARK SMILES IDX 32 13 34 14 36 15 15 16 16 17 29 18 28 19 21 20 17 21 19 22
REMARK SMILES IDX 30 23 31 24 22 26 23 27 24 28 25 29 26 30 27 31 18 32 20 34
REMARK SMILES IDX 33 36 35 38 37 40 38 42 39 43 40 44 7 46 4 48 2 49 1 51 3 52
REMARK SMILES IDX 44 53 45 55 46 56 47 58 48 59 49 60 50 62 51 63 52 64 53 65
REMARK SMILES IDX 54 66 65 67 55 68 64 69 56 70 57 71 58 72 59 73 60 74 61 76
REMARK SMILES IDX 62 77 63 78
REMARK H PARENT 31 25 18 33 20 35 33 37 35 39 37 41 40 45 7 47 4 50 44 54
REMARK H PARENT 46 57 48 61 60 75 63 79
REMARK Flexibility Score: inf
ROOT
ATOM      1  C   UNL     1      30.498  35.028  15.481  1.00  0.00     0.176 C 
ENDROOT
BRANCH   1   2
ATOM      2  C   UNL     1      30.282  36.494  15.151  1.00  0.00     0.178 C 
ATOM      3  C   UNL     1      28.880  37.885  13.874  1.00  0.00     0.272 C 
ATOM      4  C   UNL     1      30.094  38.776  14.172  1.00  0.00     0.113 C 
ATOM      5  O   UNL     1      29.276  36.578  14.239  1.00  0.00    -0.332 OA
ATOM      6  C   UNL     1      31.291  38.033  13.597  1.00  0.00     0.145 C 
ATOM      7  C   UNL     1      31.634  37.017  14.699  1.00  0.00     0.142 C 
BRANCH   3   8
ATOM      8  O   UNL     1      28.539  37.958  12.672  1.00  0.00    -0.338 OA
BRANCH   8   9
ATOM      9  C   UNL     1      28.194  38.039  11.479  1.00  0.00     0.199 C 
BRANCH   9  10
ATOM     10  C   UNL     1      26.733  38.377  11.183  1.00  0.00     0.179 C 
ATOM     11  C   UNL     1      26.494  37.707   8.994  1.00  0.00     0.282 C 
ATOM     12  O   UNL     1      26.459  38.724   9.904  1.00  0.00    -0.341 OA
ATOM     13  C   UNL     1      25.605  36.581   9.354  1.00  0.00     0.202 C 
ATOM     14  C   UNL     1      24.773  37.060  10.554  1.00  0.00     0.179 C 
ATOM     15  C   UNL     1      25.787  37.299  11.656  1.00  0.00     0.177 C 
BRANCH  11  16
ATOM     16  O   UNL     1      27.746  37.377   8.502  1.00  0.00    -0.341 OA
BRANCH  16  17
ATOM     17  C   UNL     1      28.148  38.155   7.441  1.00  0.00     0.184 C 
ATOM     18  C   UNL     1      28.919  37.380   6.434  1.00  0.00     0.178 C 
ATOM     19  O   UNL     1      29.266  38.168   5.344  1.00  0.00    -0.341 OA
ATOM     20  C   UNL     1      29.607  39.482   5.679  1.00  0.00     0.281 C 
ATOM     21  C   UNL     1      29.036  39.246   8.034  1.00  0.00     0.180 C 
ATOM     22  C   UNL     1      30.167  39.526   7.097  1.00  0.00     0.202 C 
BRANCH  18  23
ATOM     23  C   UNL     1      27.992  36.299   5.881  1.00  0.00     0.191 C 
BRANCH  23  24
ATOM     24  O   UNL     1      26.742  36.884   5.594  1.00  0.00    -0.394 OA
ATOM     25  H   UNL     1      26.247  36.180   5.081  1.00  0.00     0.210 HD
ENDBRANCH  23  24
ENDBRANCH  18  23
BRANCH  20  26
ATOM     26  O   UNL     1      28.443  40.228   5.668  1.00  0.00    -0.350 OA
BRANCH  26  27
ATOM     27  C   UNL     1      27.743  40.259   4.502  1.00  0.00     0.169 C 
BRANCH  27  28
ATOM     28  C   UNL     1      26.906  41.499   4.411  1.00  0.00     0.119 C 
BRANCH  28  29
ATOM     29  N   UNL     1      25.518  41.132   4.699  1.00  0.00    -0.092 NA
ATOM     30  N   UNL     1      25.249  40.756   5.858  1.00  0.00     0.001 N 
ATOM     31  N   UNL     1      24.767  40.004   6.725  1.00  0.00    -0.003 NA
ENDBRANCH  28  29
ENDBRANCH  27  28
ENDBRANCH  26  27
ENDBRANCH  20  26
BRANCH  21  32
ATOM     32  O   UNL     1      28.292  40.403   8.231  1.00  0.00    -0.387 OA
ATOM     33  H   UNL     1      28.892  41.160   8.493  1.00  0.00     0.211 HD
ENDBRANCH  21  32
BRANCH  22  34
ATOM     34  O   UNL     1      31.244  38.646   7.229  1.00  0.00    -0.385 OA
ATOM     35  H   UNL     1      31.625  38.575   6.298  1.00  0.00     0.211 HD
ENDBRANCH  22  34
ENDBRANCH  16  17
ENDBRANCH  11  16
BRANCH  13  36
ATOM     36  O   UNL     1      24.675  36.259   8.363  1.00  0.00    -0.385 OA
ATOM     37  H   UNL     1      23.775  36.226   8.800  1.00  0.00     0.211 HD
ENDBRANCH  13  36
BRANCH  14  38
ATOM     38  O   UNL     1      23.809  36.158  10.930  1.00  0.00    -0.387 OA
ATOM     39  H   UNL     1      22.919  36.370  10.531  1.00  0.00     0.211 HD
ENDBRANCH  14  38
BRANCH  15  40
ATOM     40  O   UNL     1      26.435  36.119  11.942  1.00  0.00    -0.387 OA
ATOM     41  H   UNL     1      25.872  35.437  12.348  1.00  0.00     0.211 HD
ENDBRANCH  15  40
ENDBRANCH   9  10
ENDBRANCH   8   9
ENDBRANCH   3   8
BRANCH   3  42
ATOM     42  C   UNL     1      27.843  38.339  14.897  1.00  0.00     0.364 C 
ATOM     43  O   UNL     1      26.740  37.777  14.948  1.00  0.00    -0.246 OA
BRANCH  42  44
ATOM     44  O   UNL     1      28.111  39.372  15.775  1.00  0.00    -0.477 OA
ATOM     45  H   UNL     1      27.560  40.241  15.789  1.00  0.00     0.296 HD
ENDBRANCH  42  44
ENDBRANCH   3  42
BRANCH   6  46
ATOM     46  O   UNL     1      30.876  37.214  12.525  1.00  0.00    -0.391 OA
ATOM     47  H   UNL     1      30.512  37.723  11.782  1.00  0.00     0.211 HD
ENDBRANCH   6  46
BRANCH   7  48
ATOM     48  N   UNL     1      32.334  37.758  15.721  1.00  0.00    -0.348 N 
ATOM     49  C   UNL     1      33.445  37.170  16.399  1.00  0.00     0.217 C 
ATOM     50  H   UNL     1      32.067  38.729  16.004  1.00  0.00     0.163 HD
ATOM     51  C   UNL     1      34.129  37.992  17.454  1.00  0.00     0.114 C 
ATOM     52  O   UNL     1      33.848  36.007  16.134  1.00  0.00    -0.275 OA
ENDBRANCH   7  48
ENDBRANCH   1   2
BRANCH   1  53
ATOM     53  O   UNL     1      30.984  34.858  16.772  1.00  0.00    -0.388 OA
ATOM     54  H   UNL     1      30.255  34.907  17.453  1.00  0.00     0.211 HD
ENDBRANCH   1  53
BRANCH   1  55
ATOM     55  C   UNL     1      31.310  34.260  14.507  1.00  0.00     0.165 C 
BRANCH  55  56
ATOM     56  O   UNL     1      30.805  34.173  13.228  1.00  0.00    -0.388 OA
ATOM     57  H   UNL     1      30.820  35.027  12.721  1.00  0.00     0.211 HD
ENDBRANCH  55  56
BRANCH  55  58
ATOM     58  C   UNL     1      31.764  32.960  15.076  1.00  0.00     0.154 C 
BRANCH  58  59
ATOM     59  N   UNL     1      30.819  31.887  15.041  1.00  0.00    -0.319 N 
ATOM     60  C   UNL     1      30.247  31.422  16.249  1.00  0.00     0.407 C 
ATOM     61  H   UNL     1      30.541  31.445  14.155  1.00  0.00     0.167 HD
ATOM     62  O   UNL     1      30.595  32.001  17.337  1.00  0.00    -0.225 OA
BRANCH  60  63
ATOM     63  O   UNL     1      29.340  30.385  16.376  1.00  0.00    -0.443 OA
BRANCH  63  64
ATOM     64  C   UNL     1      28.411  30.385  17.472  1.00  0.00     0.294 C 
BRANCH  64  65
ATOM     65  C   UNL     1      27.178  31.088  17.047  1.00  0.00     0.120 A 
ATOM     66  C   UNL     1      26.548  31.112  15.822  1.00  0.00     0.139 A 
ATOM     67  N   UNL     1      26.413  31.905  17.845  1.00  0.00    -0.132 NA
ATOM     68  N   UNL     1      25.450  31.919  15.906  1.00  0.00    -0.237 N 
ATOM     69  N   UNL     1      25.421  32.361  17.130  1.00  0.00    -0.066 NA
BRANCH  68  70
ATOM     70  C   UNL     1      24.527  32.224  14.838  1.00  0.00     0.229 C 
BRANCH  70  71
ATOM     71  C   UNL     1      25.263  33.052  13.799  1.00  0.00     0.161 C 
BRANCH  71  72
ATOM     72  C   UNL     1      25.507  34.427  14.275  1.00  0.00     0.306 C 
ATOM     73  O   UNL     1      24.567  35.254  14.381  1.00  0.00    -0.252 OA
BRANCH  72  74
ATOM     74  O   UNL     1      26.779  34.832  14.614  1.00  0.00    -0.481 OA
ATOM     75  H   UNL     1      27.136  34.605  15.550  1.00  0.00     0.296 HD
ENDBRANCH  72  74
ENDBRANCH  71  72
ENDBRANCH  70  71
BRANCH  70  76
ATOM     76  C   UNL     1      24.067  30.965  14.226  1.00  0.00     0.329 C 
ATOM     77  O   UNL     1      23.251  30.249  14.852  1.00  0.00    -0.250 OA
BRANCH  76  78
ATOM     78  O   UNL     1      24.494  30.527  12.980  1.00  0.00    -0.480 OA
ATOM     79  H   UNL     1      24.610  29.528  12.834  1.00  0.00     0.296 HD
ENDBRANCH  76  78
ENDBRANCH  70  76
ENDBRANCH  68  70
ENDBRANCH  64  65
ENDBRANCH  63  64
ENDBRANCH  60  63
ENDBRANCH  58  59
ENDBRANCH  55  58
ENDBRANCH   1  55
TORSDOF 35
BEGIN_RES LYS A 131
REMARK  4 active torsions:
REMARK  status: ('A' for Active; 'I' for Inactive)
REMARK    1  A    between atoms: CA   and  CB  
REMARK    2  A    between atoms: CB   and  CG  
REMARK    3  A    between atoms: CG   and  CD  
REMARK    4  A    between atoms: CD   and  CE  
ROOT
ATOM      1  CA  LYS A 131      29.867  25.555  16.977  1.00 20.52     0.186 C 
ENDROOT
BRANCH   1   2
ATOM      2  CB  LYS A 131      28.345  25.722  17.026  1.00 20.94     0.034 C 
BRANCH   2   3
ATOM      3  CG  LYS A 131      27.602  24.398  16.929  1.00 22.96     0.005 C 
BRANCH   3   4
ATOM      4  CD  LYS A 131      26.635  24.207  18.064  1.00 24.33     0.041 C 
BRANCH   4   5
ATOM      5  CE  LYS A 131      26.415  25.539  18.775  1.00 26.91     0.338 C 
ATOM      6  NZ  LYS A 131      25.464  25.375  19.900  1.00 27.40     0.618 N 
ENDBRANCH   4   5
ENDBRANCH   3   4
ENDBRANCH   2   3
ENDBRANCH   1   2
END_RES LYS A 131
BEGIN_RES LYS A 135
REMARK  4 active torsions:
REMARK  status: ('A' for Active; 'I' for Inactive)
REMARK    5  A    between atoms: CA   and  CB  
REMARK    6  A    between atoms: CB   and  CG  
REMARK    7  A    between atoms: CG   and  CD  
REMARK    8  A    between atoms: CD   and  CE  
ROOT
ATOM      7  CA  LYS A 135      33.193  34.663   9.290  1.00 25.02     0.186 C 
ENDROOT
BRANCH   7   8
ATOM      8  CB  LYS A 135      32.060  35.360  10.034  1.00 26.63     0.034 C 
BRANCH   8   9
ATOM      9  CG  LYS A 135      30.879  35.691   9.159  1.00 29.45     0.005 C 
BRANCH   9  10
ATOM     10  CD  LYS A 135      30.407  34.458   8.405  1.00 32.00     0.041 C 
BRANCH  10  11
ATOM     11  CE  LYS A 135      28.994  34.089   8.817  1.00 34.25     0.338 C 
ATOM     12  NZ  LYS A 135      28.730  34.477  10.231  1.00 35.99     0.618 N 
ENDBRANCH  10  11
ENDBRANCH   9  10
ENDBRANCH   8   9
ENDBRANCH   7   8
END_RES LYS A 135
