REMARK VINA RESULT:    -5.249      4.465      9.631
REMARK INTER + INTRA:         -23.439
REMARK INTER:                 -10.866
REMARK INTRA:                 -12.573
REMARK UNBOUND:                -9.598
REMARK SMILES CC(=O)N[C@@H]1[C@@H](O)C[C@](OC[C@H]2O[C@@H](O[C@H]3[C@H](O)[C@@H](O)[C@H](OCCN=[N+]=[N-])O[C@@H]3CO)[C@H](O)[C@@H](O)[C@H]2O)(C(=O)O)O[C@H]1C(O)[C@H](O)CNC(=O)OCc1cn(Cc2ccccc2OC(C)=O)nn1
REMARK SMILES IDX 43 1 42 2 9 3 8 4 41 5 6 6 5 7 10 8 11 9 12 10 14 11 13 12
REMARK SMILES IDX 32 13 34 14 36 15 15 16 16 17 29 18 28 19 21 20 17 21 19 22
REMARK SMILES IDX 30 23 31 24 22 26 23 27 24 28 25 29 26 30 27 31 18 32 20 34
REMARK SMILES IDX 33 36 35 38 37 40 38 42 39 43 40 44 7 46 4 48 2 49 1 51 3 52
REMARK SMILES IDX 44 53 45 55 46 56 47 58 48 59 49 60 50 62 51 63 52 64 53 65
REMARK SMILES IDX 54 66 68 67 55 68 67 69 56 70 57 71 62 72 58 73 61 74 59 75
REMARK SMILES IDX 60 76 63 77 64 78 66 79 65 80
REMARK H PARENT 31 25 18 33 20 35 33 37 35 39 37 41 40 45 7 47 4 50 44 54
REMARK H PARENT 46 57 48 61
REMARK Flexibility Score: inf
ROOT
ATOM      1  C   UNL     1      25.628  35.904  14.421  1.00  0.00     0.176 C 
ENDROOT
BRANCH   1   2
ATOM      2  C   UNL     1      25.737  36.417  12.993  1.00  0.00     0.178 C 
ATOM      3  C   UNL     1      24.485  36.601  11.034  1.00  0.00     0.272 C 
ATOM      4  C   UNL     1      25.899  36.828  10.510  1.00  0.00     0.113 C 
ATOM      5  O   UNL     1      24.577  36.064  12.341  1.00  0.00    -0.332 OA
ATOM      6  C   UNL     1      26.705  35.609  10.924  1.00  0.00     0.145 C 
ATOM      7  C   UNL     1      26.941  35.699  12.383  1.00  0.00     0.142 C 
BRANCH   3   8
ATOM      8  O   UNL     1      23.780  35.690  10.307  1.00  0.00    -0.338 OA
BRANCH   8   9
ATOM      9  C   UNL     1      23.397  36.014   9.044  1.00  0.00     0.199 C 
BRANCH   9  10
ATOM     10  C   UNL     1      21.936  35.567   8.870  1.00  0.00     0.179 C 
ATOM     11  C   UNL     1      19.983  35.298  10.053  1.00  0.00     0.282 C 
ATOM     12  O   UNL     1      21.325  35.808  10.105  1.00  0.00    -0.341 OA
ATOM     13  C   UNL     1      19.235  36.271   9.212  1.00  0.00     0.202 C 
ATOM     14  C   UNL     1      19.808  36.137   7.790  1.00  0.00     0.179 C 
ATOM     15  C   UNL     1      21.286  36.335   7.765  1.00  0.00     0.177 C 
BRANCH  11  16
ATOM     16  O   UNL     1      19.622  35.181  11.373  1.00  0.00    -0.341 OA
BRANCH  16  17
ATOM     17  C   UNL     1      20.187  34.032  11.957  1.00  0.00     0.184 C 
ATOM     18  C   UNL     1      19.190  33.083  12.511  1.00  0.00     0.178 C 
ATOM     19  O   UNL     1      19.526  32.618  13.786  1.00  0.00    -0.341 OA
ATOM     20  C   UNL     1      20.847  32.209  13.912  1.00  0.00     0.281 C 
ATOM     21  C   UNL     1      20.972  34.541  13.223  1.00  0.00     0.180 C 
ATOM     22  C   UNL     1      21.809  33.367  13.652  1.00  0.00     0.202 C 
BRANCH  18  23
ATOM     23  C   UNL     1      18.763  31.971  11.605  1.00  0.00     0.191 C 
BRANCH  23  24
ATOM     24  O   UNL     1      18.146  30.981  12.356  1.00  0.00    -0.394 OA
ATOM     25  H   UNL     1      18.802  30.522  12.921  1.00  0.00     0.210 HD
ENDBRANCH  23  24
ENDBRANCH  18  23
BRANCH  20  26
ATOM     26  O   UNL     1      21.148  31.222  13.042  1.00  0.00    -0.350 OA
BRANCH  26  27
ATOM     27  C   UNL     1      21.806  30.116  13.434  1.00  0.00     0.169 C 
BRANCH  27  28
ATOM     28  C   UNL     1      23.073  29.752  12.746  1.00  0.00     0.119 C 
BRANCH  28  29
ATOM     29  N   UNL     1      24.197  30.340  13.391  1.00  0.00    -0.092 NA
ATOM     30  N   UNL     1      24.645  31.421  13.081  1.00  0.00     0.001 N 
ATOM     31  N   UNL     1      24.841  32.620  12.861  1.00  0.00    -0.003 NA
ENDBRANCH  28  29
ENDBRANCH  27  28
ENDBRANCH  26  27
ENDBRANCH  20  26
BRANCH  21  32
ATOM     32  O   UNL     1      21.697  35.659  12.891  1.00  0.00    -0.387 OA
ATOM     33  H   UNL     1      22.285  35.931  13.666  1.00  0.00     0.211 HD
ENDBRANCH  21  32
BRANCH  22  34
ATOM     34  O   UNL     1      22.615  33.655  14.731  1.00  0.00    -0.385 OA
ATOM     35  H   UNL     1      22.212  34.442  15.197  1.00  0.00     0.211 HD
ENDBRANCH  22  34
ENDBRANCH  16  17
ENDBRANCH  11  16
BRANCH  13  36
ATOM     36  O   UNL     1      17.888  35.977   9.082  1.00  0.00    -0.385 OA
ATOM     37  H   UNL     1      17.634  35.082   9.390  1.00  0.00     0.211 HD
ENDBRANCH  13  36
BRANCH  14  38
ATOM     38  O   UNL     1      19.141  37.007   6.925  1.00  0.00    -0.387 OA
ATOM     39  H   UNL     1      18.258  37.202   7.352  1.00  0.00     0.211 HD
ENDBRANCH  14  38
BRANCH  15  40
ATOM     40  O   UNL     1      21.543  37.703   7.833  1.00  0.00    -0.387 OA
ATOM     41  H   UNL     1      21.759  38.015   8.732  1.00  0.00     0.211 HD
ENDBRANCH  15  40
ENDBRANCH   9  10
ENDBRANCH   8   9
ENDBRANCH   3   8
BRANCH   3  42
ATOM     42  C   UNL     1      23.862  37.941  11.114  1.00  0.00     0.364 C 
ATOM     43  O   UNL     1      24.435  38.960  10.736  1.00  0.00    -0.246 OA
BRANCH  42  44
ATOM     44  O   UNL     1      22.572  38.046  11.640  1.00  0.00    -0.477 OA
ATOM     45  H   UNL     1      21.765  38.273  11.041  1.00  0.00     0.296 HD
ENDBRANCH  42  44
ENDBRANCH   3  42
BRANCH   6  46
ATOM     46  O   UNL     1      25.877  34.508  10.683  1.00  0.00    -0.391 OA
ATOM     47  H   UNL     1      25.063  34.730  10.173  1.00  0.00     0.211 HD
ENDBRANCH   6  46
BRANCH   7  48
ATOM     48  N   UNL     1      28.141  36.281  12.821  1.00  0.00    -0.348 N 
ATOM     49  C   UNL     1      29.291  35.543  13.217  1.00  0.00     0.217 C 
ATOM     50  H   UNL     1      28.188  37.339  12.859  1.00  0.00     0.163 HD
ATOM     51  C   UNL     1      30.532  36.191  13.672  1.00  0.00     0.114 C 
ATOM     52  O   UNL     1      29.206  34.309  13.161  1.00  0.00    -0.275 OA
ENDBRANCH   7  48
ENDBRANCH   1   2
BRANCH   1  53
ATOM     53  O   UNL     1      26.357  34.731  14.475  1.00  0.00    -0.388 OA
ATOM     54  H   UNL     1      26.255  34.148  13.693  1.00  0.00     0.211 HD
ENDBRANCH   1  53
BRANCH   1  55
ATOM     55  C   UNL     1      25.985  36.920  15.454  1.00  0.00     0.165 C 
BRANCH  55  56
ATOM     56  O   UNL     1      27.337  36.753  15.767  1.00  0.00    -0.388 OA
ATOM     57  H   UNL     1      27.487  36.680  16.722  1.00  0.00     0.211 HD
ENDBRANCH  55  56
BRANCH  55  58
ATOM     58  C   UNL     1      25.127  36.831  16.693  1.00  0.00     0.154 C 
BRANCH  58  59
ATOM     59  N   UNL     1      25.343  35.664  17.482  1.00  0.00    -0.319 N 
ATOM     60  C   UNL     1      24.342  34.705  17.785  1.00  0.00     0.407 C 
ATOM     61  H   UNL     1      26.306  35.481  17.876  1.00  0.00     0.167 HD
ATOM     62  O   UNL     1      23.188  34.902  17.331  1.00  0.00    -0.225 OA
BRANCH  60  63
ATOM     63  O   UNL     1      24.565  33.583  18.547  1.00  0.00    -0.443 OA
BRANCH  63  64
ATOM     64  C   UNL     1      24.630  32.273  17.985  1.00  0.00     0.294 C 
BRANCH  64  65
ATOM     65  C   UNL     1      25.891  32.060  17.261  1.00  0.00     0.120 A 
ATOM     66  C   UNL     1      27.035  31.563  17.840  1.00  0.00     0.138 A 
ATOM     67  N   UNL     1      26.196  32.277  15.976  1.00  0.00    -0.132 NA
ATOM     68  N   UNL     1      27.992  31.491  16.913  1.00  0.00    -0.248 N 
ATOM     69  N   UNL     1      27.438  31.941  15.771  1.00  0.00    -0.067 NA
BRANCH  68  70
ATOM     70  C   UNL     1      29.369  31.048  17.021  1.00  0.00     0.185 C 
BRANCH  70  71
ATOM     71  C   UNL     1      30.313  32.158  16.861  1.00  0.00     0.016 A 
ATOM     72  C   UNL     1      30.586  33.022  17.865  1.00  0.00     0.135 A 
ATOM     73  C   UNL     1      30.940  32.280  15.618  1.00  0.00     0.009 A 
ATOM     74  C   UNL     1      31.509  34.046  17.642  1.00  0.00     0.047 A 
ATOM     75  C   UNL     1      31.844  33.290  15.410  1.00  0.00     0.001 A 
ATOM     76  C   UNL     1      32.136  34.180  16.419  1.00  0.00     0.004 A 
BRANCH  72  77
ATOM     77  O   UNL     1      29.992  32.943  19.108  1.00  0.00    -0.426 OA
BRANCH  77  78
ATOM     78  C   UNL     1      30.775  32.498  20.180  1.00  0.00     0.308 C 
ATOM     79  O   UNL     1      31.218  33.341  20.990  1.00  0.00    -0.252 OA
ATOM     80  C   UNL     1      31.058  31.069  20.333  1.00  0.00     0.139 C 
ENDBRANCH  77  78
ENDBRANCH  72  77
ENDBRANCH  70  71
ENDBRANCH  68  70
ENDBRANCH  64  65
ENDBRANCH  63  64
ENDBRANCH  60  63
ENDBRANCH  58  59
ENDBRANCH  55  58
ENDBRANCH   1  55
TORSDOF 33
BEGIN_RES LYS A 131
REMARK  4 active torsions:
REMARK  status: ('A' for Active; 'I' for Inactive)
REMARK    1  A    between atoms: CA   and  CB  
REMARK    2  A    between atoms: CB   and  CG  
REMARK    3  A    between atoms: CG   and  CD  
REMARK    4  A    between atoms: CD   and  CE  
ROOT
ATOM      1  CA  LYS A 131      29.867  25.555  16.977  1.00 20.52     0.186 C 
ENDROOT
BRANCH   1   2
ATOM      2  CB  LYS A 131      28.345  25.722  17.026  1.00 20.94     0.034 C 
BRANCH   2   3
ATOM      3  CG  LYS A 131      27.601  24.403  16.887  1.00 22.96     0.005 C 
BRANCH   3   4
ATOM      4  CD  LYS A 131      26.496  24.267  17.897  1.00 24.33     0.041 C 
BRANCH   4   5
ATOM      5  CE  LYS A 131      25.656  23.036  17.569  1.00 26.91     0.338 C 
ATOM      6  NZ  LYS A 131      24.290  23.436  17.155  1.00 27.40     0.618 N 
ENDBRANCH   4   5
ENDBRANCH   3   4
ENDBRANCH   2   3
ENDBRANCH   1   2
END_RES LYS A 131
BEGIN_RES LYS A 135
REMARK  4 active torsions:
REMARK  status: ('A' for Active; 'I' for Inactive)
REMARK    5  A    between atoms: CA   and  CB  
REMARK    6  A    between atoms: CB   and  CG  
REMARK    7  A    between atoms: CG   and  CD  
REMARK    8  A    between atoms: CD   and  CE  
ROOT
ATOM      7  CA  LYS A 135      33.193  34.663   9.290  1.00 25.02     0.186 C 
ENDROOT
BRANCH   7   8
ATOM      8  CB  LYS A 135      32.060  35.360  10.034  1.00 26.63     0.034 C 
BRANCH   8   9
ATOM      9  CG  LYS A 135      30.703  34.766   9.758  1.00 29.45     0.005 C 
BRANCH   9  10
ATOM     10  CD  LYS A 135      30.540  34.467   8.276  1.00 32.00     0.041 C 
BRANCH  10  11
ATOM     11  CE  LYS A 135      29.253  35.072   7.748  1.00 34.25     0.338 C 
ATOM     12  NZ  LYS A 135      29.072  36.464   8.246  1.00 35.99     0.618 N 
ENDBRANCH  10  11
ENDBRANCH   9  10
ENDBRANCH   8   9
ENDBRANCH   7   8
END_RES LYS A 135
