REMARK VINA RESULT:    -5.228      3.744     10.453
REMARK INTER + INTRA:         -23.286
REMARK INTER:                 -11.467
REMARK INTRA:                 -11.819
REMARK UNBOUND:               -10.416
REMARK SMILES CC(=O)N[C@@H]1[C@@H](O)C[C@](OC[C@H]2O[C@@H](O[C@H]3[C@H](O)[C@@H](O)[C@H](OCCN=[N+]=[N-])O[C@@H]3CO)[C@H](O)[C@@H](O)[C@H]2O)(C(=O)O)O[C@H]1C(O)[C@H](O)CNC(=O)OCc1cn(-c2ccc3c(c2)OCO3)nn1
REMARK SMILES IDX 9 1 8 2 6 3 5 4 42 5 41 6 10 7 11 8 12 9 14 10 13 11 32 12
REMARK SMILES IDX 34 13 36 14 15 15 16 16 29 17 28 18 21 19 17 20 19 21 30 22
REMARK SMILES IDX 31 23 22 25 23 26 24 27 25 28 26 29 27 30 18 31 20 33 33 35
REMARK SMILES IDX 35 37 37 39 38 41 39 42 40 43 7 45 43 47 44 48 45 50 46 51
REMARK SMILES IDX 47 53 48 54 49 55 50 57 51 58 52 59 53 60 54 61 66 62 55 63
REMARK SMILES IDX 65 64 56 65 57 66 61 67 58 68 60 69 59 70 62 71 64 72 63 73
REMARK SMILES IDX 4 74 2 75 1 77 3 78
REMARK H PARENT 31 24 18 32 20 34 33 36 35 38 37 40 40 44 7 46 44 49 46 52
REMARK H PARENT 48 56 4 76
REMARK Flexibility Score: inf
ROOT
ATOM      1  C   UNL     1      26.369  39.612   7.097  1.00  0.00     0.272 C 
ATOM      2  C   UNL     1      26.475  40.155   5.699  1.00  0.00     0.113 C 
ATOM      3  C   UNL     1      27.606  39.479   4.902  1.00  0.00     0.145 C 
ATOM      4  C   UNL     1      28.887  39.933   5.570  1.00  0.00     0.142 C 
ATOM      5  C   UNL     1      28.727  39.588   7.036  1.00  0.00     0.178 C 
ATOM      6  O   UNL     1      27.590  38.927   7.358  1.00  0.00    -0.332 OA
ENDROOT
BRANCH   1   7
ATOM      7  O   UNL     1      25.421  38.705   7.264  1.00  0.00    -0.338 OA
BRANCH   7   8
ATOM      8  C   UNL     1      25.425  37.418   7.434  1.00  0.00     0.199 C 
BRANCH   8   9
ATOM      9  C   UNL     1      24.392  36.715   8.273  1.00  0.00     0.179 C 
ATOM     10  C   UNL     1      24.306  35.406  10.197  1.00  0.00     0.282 C 
ATOM     11  O   UNL     1      25.041  35.874   9.139  1.00  0.00    -0.341 OA
ATOM     12  C   UNL     1      22.842  35.675  10.091  1.00  0.00     0.202 C 
ATOM     13  C   UNL     1      22.553  37.152   9.888  1.00  0.00     0.179 C 
ATOM     14  C   UNL     1      23.632  37.799   9.080  1.00  0.00     0.177 C 
BRANCH  10  15
ATOM     15  O   UNL     1      24.759  36.088  11.343  1.00  0.00    -0.341 OA
BRANCH  15  16
ATOM     16  C   UNL     1      25.623  35.347  12.107  1.00  0.00     0.184 C 
ATOM     17  C   UNL     1      25.441  35.702  13.560  1.00  0.00     0.178 C 
ATOM     18  O   UNL     1      26.175  36.791  13.965  1.00  0.00    -0.341 OA
ATOM     19  C   UNL     1      26.415  37.700  12.933  1.00  0.00     0.281 C 
ATOM     20  C   UNL     1      27.021  35.644  11.618  1.00  0.00     0.180 C 
ATOM     21  C   UNL     1      27.298  37.111  11.861  1.00  0.00     0.202 C 
BRANCH  17  22
ATOM     22  C   UNL     1      25.814  34.540  14.469  1.00  0.00     0.191 C 
BRANCH  22  23
ATOM     23  O   UNL     1      27.110  34.671  14.951  1.00  0.00    -0.394 OA
ATOM     24  H   UNL     1      27.718  33.940  14.620  1.00  0.00     0.210 HD
ENDBRANCH  22  23
ENDBRANCH  17  22
BRANCH  19  25
ATOM     25  O   UNL     1      27.097  38.759  13.516  1.00  0.00    -0.350 OA
BRANCH  25  26
ATOM     26  C   UNL     1      26.449  39.945  13.187  1.00  0.00     0.169 C 
BRANCH  26  27
ATOM     27  C   UNL     1      27.445  41.090  13.032  1.00  0.00     0.119 C 
BRANCH  27  28
ATOM     28  N   UNL     1      28.194  40.827  11.794  1.00  0.00    -0.092 NA
ATOM     29  N   UNL     1      28.892  41.742  11.308  1.00  0.00     0.001 N 
ATOM     30  N   UNL     1      29.477  42.784  10.964  1.00  0.00    -0.003 NA
ENDBRANCH  27  28
ENDBRANCH  26  27
ENDBRANCH  25  26
ENDBRANCH  19  25
BRANCH  20  31
ATOM     31  O   UNL     1      27.983  34.824  12.173  1.00  0.00    -0.387 OA
ATOM     32  H   UNL     1      28.290  35.118  13.080  1.00  0.00     0.211 HD
ENDBRANCH  20  31
BRANCH  21  33
ATOM     33  O   UNL     1      27.027  37.792  10.673  1.00  0.00    -0.385 OA
ATOM     34  H   UNL     1      27.846  38.123  10.223  1.00  0.00     0.211 HD
ENDBRANCH  21  33
ENDBRANCH  15  16
ENDBRANCH  10  15
BRANCH  12  35
ATOM     35  O   UNL     1      22.194  34.954   9.091  1.00  0.00    -0.385 OA
ATOM     36  H   UNL     1      21.208  34.960   9.298  1.00  0.00     0.211 HD
ENDBRANCH  12  35
BRANCH  13  37
ATOM     37  O   UNL     1      22.454  37.747  11.148  1.00  0.00    -0.387 OA
ATOM     38  H   UNL     1      21.973  38.595  11.149  1.00  0.00     0.211 HD
ENDBRANCH  13  37
BRANCH  14  39
ATOM     39  O   UNL     1      24.511  38.439   9.948  1.00  0.00    -0.387 OA
ATOM     40  H   UNL     1      24.659  37.964  10.783  1.00  0.00     0.211 HD
ENDBRANCH  14  39
ENDBRANCH   8   9
ENDBRANCH   7   8
ENDBRANCH   1   7
BRANCH   1  41
ATOM     41  C   UNL     1      26.321  40.725   8.100  1.00  0.00     0.364 C 
ATOM     42  O   UNL     1      26.264  41.908   7.613  1.00  0.00    -0.246 OA
BRANCH  41  43
ATOM     43  O   UNL     1      26.334  40.591   9.451  1.00  0.00    -0.477 OA
ATOM     44  H   UNL     1      25.748  41.118  10.078  1.00  0.00     0.296 HD
ENDBRANCH  41  43
ENDBRANCH   1  41
BRANCH   3  45
ATOM     45  O   UNL     1      27.406  38.103   5.074  1.00  0.00    -0.391 OA
ATOM     46  H   UNL     1      28.058  37.592   4.545  1.00  0.00     0.211 HD
ENDBRANCH   3  45
BRANCH   5  47
ATOM     47  C   UNL     1      29.872  38.596   7.326  1.00  0.00     0.176 C 
BRANCH  47  48
ATOM     48  O   UNL     1      31.071  38.996   6.811  1.00  0.00    -0.388 OA
ATOM     49  H   UNL     1      31.856  38.521   7.181  1.00  0.00     0.211 HD
ENDBRANCH  47  48
BRANCH  47  50
ATOM     50  C   UNL     1      30.008  38.340   8.822  1.00  0.00     0.165 C 
BRANCH  50  51
ATOM     51  O   UNL     1      29.138  39.066   9.563  1.00  0.00    -0.388 OA
ATOM     52  H   UNL     1      29.489  39.867  10.005  1.00  0.00     0.211 HD
ENDBRANCH  50  51
BRANCH  50  53
ATOM     53  C   UNL     1      31.433  38.640   9.168  1.00  0.00     0.154 C 
BRANCH  53  54
ATOM     54  N   UNL     1      31.953  37.758  10.166  1.00  0.00    -0.319 N 
ATOM     55  C   UNL     1      31.669  37.816  11.555  1.00  0.00     0.407 C 
ATOM     56  H   UNL     1      32.626  36.957   9.895  1.00  0.00     0.167 HD
ATOM     57  O   UNL     1      30.894  38.679  12.014  1.00  0.00    -0.225 OA
BRANCH  55  58
ATOM     58  O   UNL     1      32.244  36.912  12.453  1.00  0.00    -0.443 OA
BRANCH  58  59
ATOM     59  C   UNL     1      31.930  36.868  13.818  1.00  0.00     0.294 C 
BRANCH  59  60
ATOM     60  C   UNL     1      31.225  35.573  14.103  1.00  0.00     0.121 A 
ATOM     61  C   UNL     1      31.123  34.959  15.353  1.00  0.00     0.144 A 
ATOM     62  N   UNL     1      30.565  34.771  13.258  1.00  0.00    -0.131 NA
ATOM     63  N   UNL     1      30.412  33.819  15.215  1.00  0.00    -0.220 N 
ATOM     64  N   UNL     1      30.097  33.750  13.932  1.00  0.00    -0.062 NA
BRANCH  63  65
ATOM     65  C   UNL     1      30.060  32.888  16.209  1.00  0.00     0.070 A 
ATOM     66  C   UNL     1      30.815  32.760  17.342  1.00  0.00     0.032 A 
ATOM     67  C   UNL     1      28.948  32.096  16.058  1.00  0.00     0.079 A 
ATOM     68  C   UNL     1      30.448  31.830  18.326  1.00  0.00     0.053 A 
ATOM     69  C   UNL     1      28.574  31.176  17.014  1.00  0.00     0.167 A 
ATOM     70  C   UNL     1      29.333  31.050  18.149  1.00  0.00     0.165 A 
ATOM     71  O   UNL     1      27.518  30.293  17.071  1.00  0.00    -0.454 OA
ATOM     72  O   UNL     1      28.751  30.070  18.944  1.00  0.00    -0.454 OA
ATOM     73  C   UNL     1      27.806  29.401  18.155  1.00  0.00     0.468 C 
ENDBRANCH  63  65
ENDBRANCH  59  60
ENDBRANCH  58  59
ENDBRANCH  55  58
ENDBRANCH  53  54
ENDBRANCH  50  53
ENDBRANCH  47  50
ENDBRANCH   5  47
BRANCH   4  74
ATOM     74  N   UNL     1      29.088  41.326   5.311  1.00  0.00    -0.348 N 
ATOM     75  C   UNL     1      30.360  41.834   4.853  1.00  0.00     0.217 C 
ATOM     76  H   UNL     1      28.364  42.066   5.428  1.00  0.00     0.163 HD
ATOM     77  C   UNL     1      30.557  43.283   4.587  1.00  0.00     0.114 C 
ATOM     78  O   UNL     1      31.296  41.046   4.681  1.00  0.00    -0.275 OA
ENDBRANCH   4  74
TORSDOF 30
BEGIN_RES LYS A 131
REMARK  4 active torsions:
REMARK  status: ('A' for Active; 'I' for Inactive)
REMARK    1  A    between atoms: CA   and  CB  
REMARK    2  A    between atoms: CB   and  CG  
REMARK    3  A    between atoms: CG   and  CD  
REMARK    4  A    between atoms: CD   and  CE  
ROOT
ATOM      1  CA  LYS A 131      29.867  25.555  16.977  1.00 20.52     0.186 C 
ENDROOT
BRANCH   1   2
ATOM      2  CB  LYS A 131      28.345  25.722  17.026  1.00 20.94     0.034 C 
BRANCH   2   3
ATOM      3  CG  LYS A 131      27.602  24.399  16.920  1.00 22.96     0.005 C 
BRANCH   3   4
ATOM      4  CD  LYS A 131      26.153  24.532  17.298  1.00 24.33     0.041 C 
BRANCH   4   5
ATOM      5  CE  LYS A 131      25.636  23.192  17.813  1.00 26.91     0.338 C 
ATOM      6  NZ  LYS A 131      25.505  23.219  19.289  1.00 27.40     0.618 N 
ENDBRANCH   4   5
ENDBRANCH   3   4
ENDBRANCH   2   3
ENDBRANCH   1   2
END_RES LYS A 131
BEGIN_RES LYS A 135
REMARK  4 active torsions:
REMARK  status: ('A' for Active; 'I' for Inactive)
REMARK    5  A    between atoms: CA   and  CB  
REMARK    6  A    between atoms: CB   and  CG  
REMARK    7  A    between atoms: CG   and  CD  
REMARK    8  A    between atoms: CD   and  CE  
ROOT
ATOM      7  CA  LYS A 135      33.193  34.663   9.290  1.00 25.02     0.186 C 
ENDROOT
BRANCH   7   8
ATOM      8  CB  LYS A 135      32.060  35.360  10.034  1.00 26.63     0.034 C 
BRANCH   8   9
ATOM      9  CG  LYS A 135      30.727  34.673   9.882  1.00 29.45     0.005 C 
BRANCH   9  10
ATOM     10  CD  LYS A 135      30.329  34.593   8.417  1.00 32.00     0.041 C 
BRANCH  10  11
ATOM     11  CE  LYS A 135      28.819  34.552   8.277  1.00 34.25     0.338 C 
ATOM     12  NZ  LYS A 135      28.366  35.365   7.114  1.00 35.99     0.618 N 
ENDBRANCH  10  11
ENDBRANCH   9  10
ENDBRANCH   8   9
ENDBRANCH   7   8
END_RES LYS A 135
