REMARK VINA RESULT:    -5.422      2.273      5.859
REMARK INTER + INTRA:         -24.756
REMARK INTER:                 -13.061
REMARK INTRA:                 -11.695
REMARK UNBOUND:               -10.617
REMARK SMILES CC(=O)N[C@@H]1[C@@H](O)C[C@](OC[C@H]2O[C@@H](O[C@H]3[C@H](O)[C@@H](O)[C@H](OCCN=[N+]=[N-])O[C@@H]3CO)[C@H](O)[C@@H](O)[C@H]2O)(C(=O)O)O[C@H]1C(O)[C@H](O)CNC(=O)OCc1cn(-c2ccc(S(=O)(=O)c3ccc(N)cc3)cc2)nn1
REMARK SMILES IDX 43 1 42 2 9 3 8 4 41 5 6 6 5 7 10 8 11 9 12 10 14 11 13 12
REMARK SMILES IDX 32 13 34 14 36 15 15 16 16 17 29 18 28 19 21 20 17 21 19 22
REMARK SMILES IDX 30 23 31 24 22 26 23 27 24 28 25 29 26 30 27 31 18 32 20 34
REMARK SMILES IDX 33 36 35 38 37 40 38 42 39 43 40 44 7 46 4 48 2 49 1 51 3 52
REMARK SMILES IDX 44 53 45 55 46 56 47 58 48 59 49 60 50 62 51 63 52 64 53 65
REMARK SMILES IDX 54 66 73 67 55 68 72 69 56 70 57 71 71 72 58 73 70 74 59 75
REMARK SMILES IDX 60 76 61 77 62 78 63 79 64 80 69 81 65 82 68 83 66 84 67 85
REMARK H PARENT 31 25 18 33 20 35 33 37 35 39 37 41 40 45 7 47 4 50 44 54
REMARK H PARENT 46 57 48 61 67 86 67 87
REMARK Flexibility Score: inf
ROOT
ATOM      1  C   UNL     1      19.910  33.625  12.077  1.00  0.00     0.176 C 
ENDROOT
BRANCH   1   2
ATOM      2  C   UNL     1      19.838  34.518  10.838  1.00  0.00     0.178 C 
ATOM      3  C   UNL     1      20.723  36.412   9.848  1.00  0.00     0.272 C 
ATOM      4  C   UNL     1      19.354  36.871   9.465  1.00  0.00     0.113 C 
ATOM      5  O   UNL     1      20.670  35.586  10.986  1.00  0.00    -0.332 OA
ATOM      6  C   UNL     1      18.379  36.441  10.549  1.00  0.00     0.145 C 
ATOM      7  C   UNL     1      18.379  34.952  10.623  1.00  0.00     0.142 C 
BRANCH   3   8
ATOM      8  O   UNL     1      21.607  37.431  10.211  1.00  0.00    -0.338 OA
BRANCH   8   9
ATOM      9  C   UNL     1      21.889  38.358   9.254  1.00  0.00     0.199 C 
BRANCH   9  10
ATOM     10  C   UNL     1      23.376  38.632   9.239  1.00  0.00     0.179 C 
ATOM     11  C   UNL     1      25.412  37.784   9.832  1.00  0.00     0.282 C 
ATOM     12  O   UNL     1      24.031  37.482   9.696  1.00  0.00    -0.341 OA
ATOM     13  C   UNL     1      25.937  37.878   8.428  1.00  0.00     0.202 C 
ATOM     14  C   UNL     1      25.328  39.088   7.758  1.00  0.00     0.179 C 
ATOM     15  C   UNL     1      23.815  39.012   7.868  1.00  0.00     0.177 C 
BRANCH  11  16
ATOM     16  O   UNL     1      25.977  36.809  10.612  1.00  0.00    -0.341 OA
BRANCH  16  17
ATOM     17  C   UNL     1      25.085  36.401  11.632  1.00  0.00     0.184 C 
ATOM     18  C   UNL     1      25.232  37.353  12.776  1.00  0.00     0.178 C 
ATOM     19  O   UNL     1      25.481  36.777  13.993  1.00  0.00    -0.341 OA
ATOM     20  C   UNL     1      26.491  35.863  14.065  1.00  0.00     0.281 C 
ATOM     21  C   UNL     1      25.548  34.998  12.001  1.00  0.00     0.180 C 
ATOM     22  C   UNL     1      26.847  35.194  12.757  1.00  0.00     0.202 C 
BRANCH  18  23
ATOM     23  C   UNL     1      23.865  38.049  12.917  1.00  0.00     0.191 C 
BRANCH  23  24
ATOM     24  O   UNL     1      22.812  37.217  12.627  1.00  0.00    -0.394 OA
ATOM     25  H   UNL     1      22.156  37.587  11.985  1.00  0.00     0.210 HD
ENDBRANCH  23  24
ENDBRANCH  18  23
BRANCH  20  26
ATOM     26  O   UNL     1      26.084  34.852  14.930  1.00  0.00    -0.350 OA
BRANCH  26  27
ATOM     27  C   UNL     1      25.914  35.229  16.234  1.00  0.00     0.169 C 
BRANCH  27  28
ATOM     28  C   UNL     1      24.731  34.552  16.841  1.00  0.00     0.119 C 
BRANCH  28  29
ATOM     29  N   UNL     1      23.590  34.629  15.912  1.00  0.00    -0.092 NA
ATOM     30  N   UNL     1      22.809  35.578  15.945  1.00  0.00     0.001 N 
ATOM     31  N   UNL     1      22.301  36.678  15.665  1.00  0.00    -0.003 NA
ENDBRANCH  28  29
ENDBRANCH  27  28
ENDBRANCH  26  27
ENDBRANCH  20  26
BRANCH  21  32
ATOM     32  O   UNL     1      24.632  34.396  12.831  1.00  0.00    -0.387 OA
ATOM     33  H   UNL     1      25.022  33.583  13.252  1.00  0.00     0.211 HD
ENDBRANCH  21  32
BRANCH  22  34
ATOM     34  O   UNL     1      27.789  35.881  12.027  1.00  0.00    -0.385 OA
ATOM     35  H   UNL     1      28.100  36.710  12.477  1.00  0.00     0.211 HD
ENDBRANCH  22  34
ENDBRANCH  16  17
ENDBRANCH  11  16
BRANCH  13  36
ATOM     36  O   UNL     1      27.329  37.909   8.378  1.00  0.00    -0.385 OA
ATOM     37  H   UNL     1      27.570  38.468   7.573  1.00  0.00     0.211 HD
ENDBRANCH  13  36
BRANCH  14  38
ATOM     38  O   UNL     1      25.610  39.021   6.386  1.00  0.00    -0.387 OA
ATOM     39  H   UNL     1      26.121  39.802   6.107  1.00  0.00     0.211 HD
ENDBRANCH  14  38
BRANCH  15  40
ATOM     40  O   UNL     1      23.291  38.168   6.899  1.00  0.00    -0.387 OA
ATOM     41  H   UNL     1      22.841  38.692   6.196  1.00  0.00     0.211 HD
ENDBRANCH  15  40
ENDBRANCH   9  10
ENDBRANCH   8   9
ENDBRANCH   3   8
BRANCH   3  42
ATOM     42  C   UNL     1      21.408  35.633   8.782  1.00  0.00     0.364 C 
ATOM     43  O   UNL     1      20.972  35.451   7.621  1.00  0.00    -0.246 OA
BRANCH  42  44
ATOM     44  O   UNL     1      22.629  35.045   9.063  1.00  0.00    -0.477 OA
ATOM     45  H   UNL     1      23.492  35.605   9.151  1.00  0.00     0.296 HD
ENDBRANCH  42  44
ENDBRANCH   3  42
BRANCH   6  46
ATOM     46  O   UNL     1      18.906  36.926  11.751  1.00  0.00    -0.391 OA
ATOM     47  H   UNL     1      18.244  36.873  12.493  1.00  0.00     0.211 HD
ENDBRANCH   6  46
BRANCH   7  48
ATOM     48  N   UNL     1      17.830  34.277   9.491  1.00  0.00    -0.348 N 
ATOM     49  C   UNL     1      16.708  33.403   9.542  1.00  0.00     0.217 C 
ATOM     50  H   UNL     1      18.268  34.427   8.549  1.00  0.00     0.163 HD
ATOM     51  C   UNL     1      16.229  32.760   8.293  1.00  0.00     0.114 C 
ATOM     52  O   UNL     1      16.170  33.213  10.641  1.00  0.00    -0.275 OA
ENDBRANCH   7  48
ENDBRANCH   1   2
BRANCH   1  53
ATOM     53  O   UNL     1      19.365  32.377  11.823  1.00  0.00    -0.388 OA
ATOM     54  H   UNL     1      20.089  31.683  11.792  1.00  0.00     0.211 HD
ENDBRANCH   1  53
BRANCH   1  55
ATOM     55  C   UNL     1      21.261  33.591  12.680  1.00  0.00     0.165 C 
BRANCH  55  56
ATOM     56  O   UNL     1      22.251  33.531  11.695  1.00  0.00    -0.388 OA
ATOM     57  H   UNL     1      22.026  32.965  10.940  1.00  0.00     0.211 HD
ENDBRANCH  55  56
BRANCH  55  58
ATOM     58  C   UNL     1      21.453  32.353  13.530  1.00  0.00     0.154 C 
BRANCH  58  59
ATOM     59  N   UNL     1      22.642  32.386  14.335  1.00  0.00    -0.319 N 
ATOM     60  C   UNL     1      23.127  31.172  14.882  1.00  0.00     0.407 C 
ATOM     61  H   UNL     1      23.147  33.266  14.522  1.00  0.00     0.167 HD
ATOM     62  O   UNL     1      22.501  30.102  14.632  1.00  0.00    -0.225 OA
BRANCH  60  63
ATOM     63  O   UNL     1      24.245  31.067  15.679  1.00  0.00    -0.443 OA
BRANCH  63  64
ATOM     64  C   UNL     1      24.965  29.871  15.888  1.00  0.00     0.294 C 
BRANCH  64  65
ATOM     65  C   UNL     1      26.414  30.190  15.908  1.00  0.00     0.121 A 
ATOM     66  C   UNL     1      27.078  31.350  15.563  1.00  0.00     0.144 A 
ATOM     67  N   UNL     1      27.405  29.337  16.320  1.00  0.00    -0.131 NA
ATOM     68  N   UNL     1      28.419  31.173  15.771  1.00  0.00    -0.220 N 
ATOM     69  N   UNL     1      28.562  29.952  16.224  1.00  0.00    -0.062 NA
BRANCH  68  70
ATOM     70  C   UNL     1      29.461  32.103  15.566  1.00  0.00     0.066 A 
ATOM     71  C   UNL     1      29.230  33.282  14.851  1.00  0.00     0.030 A 
ATOM     72  C   UNL     1      30.736  31.919  16.038  1.00  0.00     0.030 A 
ATOM     73  C   UNL     1      30.208  34.217  14.625  1.00  0.00     0.023 A 
ATOM     74  C   UNL     1      31.736  32.866  15.811  1.00  0.00     0.023 A 
ATOM     75  C   UNL     1      31.485  34.021  15.104  1.00  0.00     0.072 A 
BRANCH  75  76
ATOM     76  S   UNL     1      32.740  35.209  14.824  1.00  0.00     0.206 S 
ATOM     77  O   UNL     1      33.707  34.648  13.794  1.00  0.00    -0.219 OA
ATOM     78  O   UNL     1      33.445  35.621  16.072  1.00  0.00    -0.219 OA
BRANCH  76  79
ATOM     79  C   UNL     1      32.016  36.626  14.061  1.00  0.00     0.072 A 
ATOM     80  C   UNL     1      31.425  37.596  14.823  1.00  0.00     0.023 A 
ATOM     81  C   UNL     1      32.034  36.773  12.694  1.00  0.00     0.023 A 
ATOM     82  C   UNL     1      30.866  38.686  14.223  1.00  0.00     0.027 A 
ATOM     83  C   UNL     1      31.468  37.874  12.103  1.00  0.00     0.027 A 
ATOM     84  C   UNL     1      30.871  38.858  12.839  1.00  0.00     0.031 A 
BRANCH  84  85
ATOM     85  N   UNL     1      30.280  40.001  12.259  1.00  0.00    -0.399 N 
ATOM     86  H   UNL     1      30.853  40.746  11.841  1.00  0.00     0.156 HD
ATOM     87  H   UNL     1      29.249  40.094  12.251  1.00  0.00     0.156 HD
ENDBRANCH  84  85
ENDBRANCH  76  79
ENDBRANCH  75  76
ENDBRANCH  68  70
ENDBRANCH  64  65
ENDBRANCH  63  64
ENDBRANCH  60  63
ENDBRANCH  58  59
ENDBRANCH  55  58
ENDBRANCH   1  55
TORSDOF 33
BEGIN_RES LYS A 131
REMARK  4 active torsions:
REMARK  status: ('A' for Active; 'I' for Inactive)
REMARK    1  A    between atoms: CA   and  CB  
REMARK    2  A    between atoms: CB   and  CG  
REMARK    3  A    between atoms: CG   and  CD  
REMARK    4  A    between atoms: CD   and  CE  
ROOT
ATOM      1  CA  LYS A 131      29.867  25.555  16.977  1.00 20.52     0.186 C 
ENDROOT
BRANCH   1   2
ATOM      2  CB  LYS A 131      28.345  25.722  17.026  1.00 20.94     0.034 C 
BRANCH   2   3
ATOM      3  CG  LYS A 131      27.601  24.403  16.887  1.00 22.96     0.005 C 
BRANCH   3   4
ATOM      4  CD  LYS A 131      26.147  24.531  17.248  1.00 24.33     0.041 C 
BRANCH   4   5
ATOM      5  CE  LYS A 131      25.576  23.152  17.560  1.00 26.91     0.338 C 
ATOM      6  NZ  LYS A 131      24.165  23.062  17.117  1.00 27.40     0.618 N 
ENDBRANCH   4   5
ENDBRANCH   3   4
ENDBRANCH   2   3
ENDBRANCH   1   2
END_RES LYS A 131
BEGIN_RES LYS A 135
REMARK  4 active torsions:
REMARK  status: ('A' for Active; 'I' for Inactive)
REMARK    5  A    between atoms: CA   and  CB  
REMARK    6  A    between atoms: CB   and  CG  
REMARK    7  A    between atoms: CG   and  CD  
REMARK    8  A    between atoms: CD   and  CE  
ROOT
ATOM      7  CA  LYS A 135      33.193  34.663   9.290  1.00 25.02     0.186 C 
ENDROOT
BRANCH   7   8
ATOM      8  CB  LYS A 135      32.060  35.360  10.034  1.00 26.63     0.034 C 
BRANCH   8   9
ATOM      9  CG  LYS A 135      30.918  35.773   9.142  1.00 29.45     0.005 C 
BRANCH   9  10
ATOM     10  CD  LYS A 135      30.221  34.552   8.562  1.00 32.00     0.041 C 
BRANCH  10  11
ATOM     11  CE  LYS A 135      29.379  33.867   9.621  1.00 34.25     0.338 C 
ATOM     12  NZ  LYS A 135      27.936  33.884   9.254  1.00 35.99     0.618 N 
ENDBRANCH  10  11
ENDBRANCH   9  10
ENDBRANCH   8   9
ENDBRANCH   7   8
END_RES LYS A 135
