REMARK VINA RESULT:    -3.579      3.831      8.150
REMARK INTER + INTRA:         -22.910
REMARK INTER:                 -11.379
REMARK INTRA:                 -11.531
REMARK UNBOUND:               -13.473
REMARK SMILES CC(=O)N[C@@H]1[C@@H](O)C[C@](OC[C@H]2O[C@@H](O[C@H]3[C@H](O)[C@@H](O)[C@H](OCCN=[N+]=[N-])O[C@@H]3CO)[C@H](O)[C@@H](O)[C@H]2O)(C(=O)O)O[C@H]1C(O)[C@H](O)CNC(=O)OCc1cn(CCOC(C)=O)nn1
REMARK SMILES IDX 43 1 42 2 9 3 8 4 41 5 6 6 5 7 10 8 11 9 12 10 14 11 13 12
REMARK SMILES IDX 32 13 34 14 36 15 15 16 16 17 29 18 28 19 21 20 17 21 19 22
REMARK SMILES IDX 30 23 31 24 22 26 23 27 24 28 25 29 26 30 27 31 18 32 20 34
REMARK SMILES IDX 33 36 35 38 37 40 38 42 39 43 40 44 7 46 4 48 2 49 1 51 3 52
REMARK SMILES IDX 44 53 45 55 46 56 47 58 48 59 49 60 50 62 51 63 52 64 53 65
REMARK SMILES IDX 54 66 63 67 55 68 62 69 56 70 57 71 58 72 59 73 61 74 60 75
REMARK H PARENT 31 25 18 33 20 35 33 37 35 39 37 41 40 45 7 47 4 50 44 54
REMARK H PARENT 46 57 48 61
REMARK Flexibility Score: inf
ROOT
ATOM      1  C   UNL     1      30.456  37.724   8.572  1.00  0.00     0.176 C 
ENDROOT
BRANCH   1   2
ATOM      2  C   UNL     1      29.691  37.863   7.281  1.00  0.00     0.178 C 
ATOM      3  C   UNL     1      28.526  39.538   6.100  1.00  0.00     0.272 C 
ATOM      4  C   UNL     1      28.456  38.402   5.107  1.00  0.00     0.113 C 
ATOM      5  O   UNL     1      29.404  39.240   7.177  1.00  0.00    -0.332 OA
ATOM      6  C   UNL     1      28.025  37.117   5.717  1.00  0.00     0.145 C 
ATOM      7  C   UNL     1      28.359  37.180   7.235  1.00  0.00     0.142 C 
BRANCH   3   8
ATOM      8  O   UNL     1      27.404  39.942   6.643  1.00  0.00    -0.338 OA
BRANCH   8   9
ATOM      9  C   UNL     1      26.176  39.981   6.209  1.00  0.00     0.199 C 
BRANCH   9  10
ATOM     10  C   UNL     1      24.952  39.889   7.017  1.00  0.00     0.179 C 
ATOM     11  C   UNL     1      23.226  38.418   7.427  1.00  0.00     0.282 C 
ATOM     12  O   UNL     1      24.587  38.490   7.094  1.00  0.00    -0.341 OA
ATOM     13  C   UNL     1      22.801  39.371   8.464  1.00  0.00     0.202 C 
ATOM     14  C   UNL     1      23.857  40.161   9.154  1.00  0.00     0.179 C 
ATOM     15  C   UNL     1      25.199  40.180   8.510  1.00  0.00     0.177 C 
BRANCH  11  16
ATOM     16  O   UNL     1      22.947  37.082   7.663  1.00  0.00    -0.341 OA
BRANCH  16  17
ATOM     17  C   UNL     1      21.917  36.887   8.547  1.00  0.00     0.184 C 
ATOM     18  C   UNL     1      22.121  35.588   9.293  1.00  0.00     0.178 C 
ATOM     19  O   UNL     1      21.047  35.499  10.188  1.00  0.00    -0.341 OA
ATOM     20  C   UNL     1      19.922  35.120   9.518  1.00  0.00     0.281 C 
ATOM     21  C   UNL     1      20.565  36.874   7.853  1.00  0.00     0.180 C 
ATOM     22  C   UNL     1      19.821  35.601   8.090  1.00  0.00     0.202 C 
BRANCH  18  23
ATOM     23  C   UNL     1      23.410  35.646  10.093  1.00  0.00     0.191 C 
BRANCH  23  24
ATOM     24  O   UNL     1      23.608  36.928  10.570  1.00  0.00    -0.394 OA
ATOM     25  H   UNL     1      24.573  36.974  10.841  1.00  0.00     0.210 HD
ENDBRANCH  23  24
ENDBRANCH  18  23
BRANCH  20  26
ATOM     26  O   UNL     1      18.820  35.548  10.271  1.00  0.00    -0.350 OA
BRANCH  26  27
ATOM     27  C   UNL     1      19.210  36.386  11.309  1.00  0.00     0.169 C 
BRANCH  27  28
ATOM     28  C   UNL     1      18.037  37.351  11.519  1.00  0.00     0.119 C 
BRANCH  28  29
ATOM     29  N   UNL     1      17.788  38.036  10.262  1.00  0.00    -0.092 NA
ATOM     30  N   UNL     1      16.673  38.053   9.726  1.00  0.00     0.001 N 
ATOM     31  N   UNL     1      15.701  37.751   9.009  1.00  0.00    -0.003 NA
ENDBRANCH  28  29
ENDBRANCH  27  28
ENDBRANCH  26  27
ENDBRANCH  20  26
BRANCH  21  32
ATOM     32  O   UNL     1      19.784  37.980   8.162  1.00  0.00    -0.387 OA
ATOM     33  H   UNL     1      20.161  38.547   8.879  1.00  0.00     0.211 HD
ENDBRANCH  21  32
BRANCH  22  34
ATOM     34  O   UNL     1      20.173  34.641   7.162  1.00  0.00    -0.385 OA
ATOM     35  H   UNL     1      19.532  33.877   7.242  1.00  0.00     0.211 HD
ENDBRANCH  22  34
ENDBRANCH  16  17
ENDBRANCH  11  16
BRANCH  13  36
ATOM     36  O   UNL     1      21.751  40.212   8.007  1.00  0.00    -0.385 OA
ATOM     37  H   UNL     1      21.176  39.755   7.358  1.00  0.00     0.211 HD
ENDBRANCH  13  36
BRANCH  14  38
ATOM     38  O   UNL     1      24.027  39.744  10.484  1.00  0.00    -0.387 OA
ATOM     39  H   UNL     1      24.776  40.280  10.880  1.00  0.00     0.211 HD
ENDBRANCH  14  38
BRANCH  15  40
ATOM     40  O   UNL     1      25.922  39.074   9.036  1.00  0.00    -0.387 OA
ATOM     41  H   UNL     1      25.977  38.353   8.376  1.00  0.00     0.211 HD
ENDBRANCH  15  40
ENDBRANCH   9  10
ENDBRANCH   8   9
ENDBRANCH   3   8
BRANCH   3  42
ATOM     42  C   UNL     1      29.295  40.609   5.405  1.00  0.00     0.364 C 
ATOM     43  O   UNL     1      28.935  41.232   4.390  1.00  0.00    -0.246 OA
BRANCH  42  44
ATOM     44  O   UNL     1      30.559  40.993   5.903  1.00  0.00    -0.477 OA
ATOM     45  H   UNL     1      31.325  41.091   5.252  1.00  0.00     0.296 HD
ENDBRANCH  42  44
ENDBRANCH   3  42
BRANCH   6  46
ATOM     46  O   UNL     1      26.706  36.779   5.522  1.00  0.00    -0.391 OA
ATOM     47  H   UNL     1      26.127  37.551   5.297  1.00  0.00     0.211 HD
ENDBRANCH   6  46
BRANCH   7  48
ATOM     48  N   UNL     1      28.264  35.871   7.788  1.00  0.00    -0.348 N 
ATOM     49  C   UNL     1      27.119  35.435   8.504  1.00  0.00     0.217 C 
ATOM     50  H   UNL     1      29.039  35.204   7.648  1.00  0.00     0.163 HD
ATOM     51  C   UNL     1      27.028  34.059   9.082  1.00  0.00     0.114 C 
ATOM     52  O   UNL     1      26.118  36.192   8.686  1.00  0.00    -0.275 OA
ENDBRANCH   7  48
ENDBRANCH   1   2
BRANCH   1  53
ATOM     53  O   UNL     1      29.466  37.895   9.590  1.00  0.00    -0.388 OA
ATOM     54  H   UNL     1      29.898  38.047  10.456  1.00  0.00     0.211 HD
ENDBRANCH   1  53
BRANCH   1  55
ATOM     55  C   UNL     1      31.375  38.907   8.763  1.00  0.00     0.165 C 
BRANCH  55  56
ATOM     56  O   UNL     1      32.216  39.021   7.644  1.00  0.00    -0.388 OA
ATOM     57  H   UNL     1      32.319  38.132   7.247  1.00  0.00     0.211 HD
ENDBRANCH  55  56
BRANCH  55  58
ATOM     58  C   UNL     1      32.157  38.849  10.038  1.00  0.00     0.154 C 
BRANCH  58  59
ATOM     59  N   UNL     1      31.384  38.715  11.232  1.00  0.00    -0.319 N 
ATOM     60  C   UNL     1      30.824  39.805  11.924  1.00  0.00     0.407 C 
ATOM     61  H   UNL     1      31.188  37.760  11.667  1.00  0.00     0.167 HD
ATOM     62  O   UNL     1      30.950  40.987  11.540  1.00  0.00    -0.225 OA
BRANCH  60  63
ATOM     63  O   UNL     1      30.083  39.632  13.104  1.00  0.00    -0.443 OA
BRANCH  63  64
ATOM     64  C   UNL     1      28.748  40.032  13.221  1.00  0.00     0.294 C 
BRANCH  64  65
ATOM     65  C   UNL     1      27.810  38.999  12.700  1.00  0.00     0.120 A 
ATOM     66  C   UNL     1      27.920  37.648  12.982  1.00  0.00     0.138 A 
ATOM     67  N   UNL     1      26.740  39.119  11.920  1.00  0.00    -0.132 NA
ATOM     68  N   UNL     1      26.916  37.023  12.360  1.00  0.00    -0.249 N 
ATOM     69  N   UNL     1      26.210  37.937  11.720  1.00  0.00    -0.067 NA
BRANCH  68  70
ATOM     70  C   UNL     1      26.632  35.580  12.358  1.00  0.00     0.187 C 
BRANCH  70  71
ATOM     71  C   UNL     1      25.396  35.301  13.184  1.00  0.00     0.256 C 
BRANCH  71  72
ATOM     72  O   UNL     1      24.950  33.982  12.890  1.00  0.00    -0.464 OA
BRANCH  72  73
ATOM     73  C   UNL     1      23.631  33.612  13.135  1.00  0.00     0.302 C 
ATOM     74  O   UNL     1      22.805  34.518  13.398  1.00  0.00    -0.253 OA
ATOM     75  C   UNL     1      23.178  32.183  13.093  1.00  0.00     0.139 C 
ENDBRANCH  72  73
ENDBRANCH  71  72
ENDBRANCH  70  71
ENDBRANCH  68  70
ENDBRANCH  64  65
ENDBRANCH  63  64
ENDBRANCH  60  63
ENDBRANCH  58  59
ENDBRANCH  55  58
ENDBRANCH   1  55
TORSDOF 33
BEGIN_RES LYS A 131
REMARK  4 active torsions:
REMARK  status: ('A' for Active; 'I' for Inactive)
REMARK    1  A    between atoms: CA   and  CB  
REMARK    2  A    between atoms: CB   and  CG  
REMARK    3  A    between atoms: CG   and  CD  
REMARK    4  A    between atoms: CD   and  CE  
ROOT
ATOM      1  CA  LYS A 131      29.867  25.555  16.977  1.00 20.52     0.186 C 
ENDROOT
BRANCH   1   2
ATOM      2  CB  LYS A 131      28.345  25.722  17.026  1.00 20.94     0.034 C 
BRANCH   2   3
ATOM      3  CG  LYS A 131      27.599  24.459  16.624  1.00 22.96     0.005 C 
BRANCH   3   4
ATOM      4  CD  LYS A 131      27.126  23.676  17.817  1.00 24.33     0.041 C 
BRANCH   4   5
ATOM      5  CE  LYS A 131      25.672  23.265  17.613  1.00 26.91     0.338 C 
ATOM      6  NZ  LYS A 131      24.908  24.361  16.970  1.00 27.40     0.618 N 
ENDBRANCH   4   5
ENDBRANCH   3   4
ENDBRANCH   2   3
ENDBRANCH   1   2
END_RES LYS A 131
BEGIN_RES LYS A 135
REMARK  4 active torsions:
REMARK  status: ('A' for Active; 'I' for Inactive)
REMARK    5  A    between atoms: CA   and  CB  
REMARK    6  A    between atoms: CB   and  CG  
REMARK    7  A    between atoms: CG   and  CD  
REMARK    8  A    between atoms: CD   and  CE  
ROOT
ATOM      7  CA  LYS A 135      33.193  34.663   9.290  1.00 25.02     0.186 C 
ENDROOT
BRANCH   7   8
ATOM      8  CB  LYS A 135      32.060  35.360  10.034  1.00 26.63     0.034 C 
BRANCH   8   9
ATOM      9  CG  LYS A 135      30.749  34.621   9.964  1.00 29.45     0.005 C 
BRANCH   9  10
ATOM     10  CD  LYS A 135      29.936  34.849  11.229  1.00 32.00     0.041 C 
BRANCH  10  11
ATOM     11  CE  LYS A 135      30.847  35.187  12.394  1.00 34.25     0.338 C 
ATOM     12  NZ  LYS A 135      30.288  34.679  13.677  1.00 35.99     0.618 N 
ENDBRANCH  10  11
ENDBRANCH   9  10
ENDBRANCH   8   9
ENDBRANCH   7   8
END_RES LYS A 135
