REMARK VINA RESULT:    -4.550      5.817     10.742
REMARK INTER + INTRA:         -23.184
REMARK INTER:                 -11.597
REMARK INTRA:                 -11.587
REMARK UNBOUND:               -10.521
REMARK SMILES CC(=O)N[C@@H]1[C@@H](O)C[C@](OC[C@H]2O[C@@H](O[C@H]3[C@H](O)[C@@H](O)[C@H](OCCN=[N+]=[N-])O[C@@H]3CO)[C@H](O)[C@@H](O)[C@H]2O)(C(=O)O)O[C@H]1C(O)[C@H](O)CNC(=O)OCc1cn(CCCCCC(=O)O)nn1
REMARK SMILES IDX 47 1 45 2 43 3 42 4 9 5 8 6 41 7 6 8 5 9 10 10 11 11 12 12
REMARK SMILES IDX 14 13 13 14 32 15 34 16 36 17 15 18 16 19 29 20 28 21 21 22
REMARK SMILES IDX 17 23 19 24 30 25 31 26 22 28 23 29 24 30 25 31 26 32 27 33
REMARK SMILES IDX 18 34 20 36 33 38 35 40 37 42 38 44 39 45 40 46 7 48 4 50
REMARK SMILES IDX 2 51 1 53 3 54 44 55 46 57 48 59 49 60 50 62 51 63 52 64
REMARK SMILES IDX 53 65 54 66 65 67 55 68 64 69 56 70 57 71 58 72 59 73 60 74
REMARK SMILES IDX 61 75 62 76 63 77
REMARK H PARENT 31 27 18 35 20 37 33 39 35 41 37 43 40 47 7 49 4 52 44 56
REMARK H PARENT 46 58 48 61 63 78
REMARK Flexibility Score: inf
ROOT
ATOM      1  C   UNL     1      26.190  34.426  13.389  1.00  0.00     0.154 C 
ENDROOT
BRANCH   1   2
ATOM      2  C   UNL     1      26.631  35.659  12.638  1.00  0.00     0.165 C 
BRANCH   2   3
ATOM      3  C   UNL     1      28.080  35.858  12.945  1.00  0.00     0.176 C 
BRANCH   3   4
ATOM      4  C   UNL     1      28.677  37.143  12.487  1.00  0.00     0.178 C 
ATOM      5  C   UNL     1      28.445  38.915  11.116  1.00  0.00     0.272 C 
ATOM      6  C   UNL     1      29.424  39.536  12.059  1.00  0.00     0.113 C 
ATOM      7  O   UNL     1      28.315  37.537  11.209  1.00  0.00    -0.332 OA
ATOM      8  C   UNL     1      30.515  38.683  12.582  1.00  0.00     0.145 C 
ATOM      9  C   UNL     1      30.189  37.185  12.505  1.00  0.00     0.142 C 
BRANCH   5  10
ATOM     10  O   UNL     1      28.634  39.327   9.797  1.00  0.00    -0.338 OA
BRANCH  10  11
ATOM     11  C   UNL     1      29.391  38.533   8.998  1.00  0.00     0.199 C 
BRANCH  11  12
ATOM     12  C   UNL     1      28.469  37.992   7.921  1.00  0.00     0.179 C 
ATOM     13  C   UNL     1      26.559  36.953   7.397  1.00  0.00     0.282 C 
ATOM     14  O   UNL     1      27.148  37.866   8.321  1.00  0.00    -0.341 OA
ATOM     15  C   UNL     1      27.047  37.069   6.024  1.00  0.00     0.202 C 
ATOM     16  C   UNL     1      27.746  38.344   5.644  1.00  0.00     0.179 C 
ATOM     17  C   UNL     1      28.449  39.010   6.796  1.00  0.00     0.177 C 
BRANCH  13  18
ATOM     18  O   UNL     1      25.186  36.892   7.616  1.00  0.00    -0.341 OA
BRANCH  18  19
ATOM     19  C   UNL     1      24.680  37.835   8.431  1.00  0.00     0.184 C 
ATOM     20  C   UNL     1      23.530  37.347   9.259  1.00  0.00     0.178 C 
ATOM     21  O   UNL     1      23.397  38.289  10.301  1.00  0.00    -0.341 OA
ATOM     22  C   UNL     1      22.947  39.476   9.831  1.00  0.00     0.281 C 
ATOM     23  C   UNL     1      24.021  38.982   7.588  1.00  0.00     0.180 C 
ATOM     24  C   UNL     1      22.852  39.548   8.354  1.00  0.00     0.202 C 
BRANCH  20  25
ATOM     25  C   UNL     1      23.768  36.008   9.906  1.00  0.00     0.191 C 
BRANCH  25  26
ATOM     26  O   UNL     1      23.161  35.000   9.190  1.00  0.00    -0.394 OA
ATOM     27  H   UNL     1      23.842  34.294   9.030  1.00  0.00     0.210 HD
ENDBRANCH  25  26
ENDBRANCH  20  25
BRANCH  22  28
ATOM     28  O   UNL     1      23.648  40.579  10.336  1.00  0.00    -0.350 OA
BRANCH  28  29
ATOM     29  C   UNL     1      23.149  41.776   9.889  1.00  0.00     0.169 C 
BRANCH  29  30
ATOM     30  C   UNL     1      23.809  42.920  10.646  1.00  0.00     0.119 C 
BRANCH  30  31
ATOM     31  N   UNL     1      24.817  43.569   9.824  1.00  0.00    -0.092 NA
ATOM     32  N   UNL     1      25.594  42.874   9.141  1.00  0.00     0.001 N 
ATOM     33  N   UNL     1      26.636  42.298   8.826  1.00  0.00    -0.003 NA
ENDBRANCH  30  31
ENDBRANCH  29  30
ENDBRANCH  28  29
ENDBRANCH  22  28
BRANCH  23  34
ATOM     34  O   UNL     1      24.957  40.004   7.433  1.00  0.00    -0.387 OA
ATOM     35  H   UNL     1      25.368  40.201   8.325  1.00  0.00     0.211 HD
ENDBRANCH  23  34
BRANCH  24  36
ATOM     36  O   UNL     1      21.617  39.136   7.839  1.00  0.00    -0.385 OA
ATOM     37  H   UNL     1      21.320  39.696   7.079  1.00  0.00     0.211 HD
ENDBRANCH  24  36
ENDBRANCH  18  19
ENDBRANCH  13  18
BRANCH  15  38
ATOM     38  O   UNL     1      27.970  36.032   5.702  1.00  0.00    -0.385 OA
ATOM     39  H   UNL     1      27.498  35.194   5.544  1.00  0.00     0.211 HD
ENDBRANCH  15  38
BRANCH  16  40
ATOM     40  O   UNL     1      26.869  39.297   5.096  1.00  0.00    -0.387 OA
ATOM     41  H   UNL     1      27.130  40.214   5.295  1.00  0.00     0.211 HD
ENDBRANCH  16  40
BRANCH  17  42
ATOM     42  O   UNL     1      27.652  40.087   7.263  1.00  0.00    -0.387 OA
ATOM     43  H   UNL     1      26.915  39.648   7.794  1.00  0.00     0.211 HD
ENDBRANCH  17  42
ENDBRANCH  11  12
ENDBRANCH  10  11
ENDBRANCH   5  10
BRANCH   5  44
ATOM     44  C   UNL     1      27.105  39.449  11.488  1.00  0.00     0.364 C 
ATOM     45  O   UNL     1      26.784  39.591  12.688  1.00  0.00    -0.246 OA
BRANCH  44  46
ATOM     46  O   UNL     1      26.204  39.793  10.511  1.00  0.00    -0.477 OA
ATOM     47  H   UNL     1      25.786  40.735  10.433  1.00  0.00     0.296 HD
ENDBRANCH  44  46
ENDBRANCH   5  44
BRANCH   8  48
ATOM     48  O   UNL     1      31.785  38.967  12.088  1.00  0.00    -0.391 OA
ATOM     49  H   UNL     1      31.952  39.927  12.222  1.00  0.00     0.211 HD
ENDBRANCH   8  48
BRANCH   9  50
ATOM     50  N   UNL     1      30.799  36.458  13.562  1.00  0.00    -0.348 N 
ATOM     51  C   UNL     1      32.081  35.889  13.373  1.00  0.00     0.217 C 
ATOM     52  H   UNL     1      30.327  36.338  14.468  1.00  0.00     0.163 HD
ATOM     53  C   UNL     1      32.744  35.127  14.464  1.00  0.00     0.114 C 
ATOM     54  O   UNL     1      32.715  36.002  12.283  1.00  0.00    -0.275 OA
ENDBRANCH   9  50
ENDBRANCH   3   4
BRANCH   3  55
ATOM     55  O   UNL     1      28.858  34.791  12.442  1.00  0.00    -0.388 OA
ATOM     56  H   UNL     1      28.284  34.162  11.951  1.00  0.00     0.211 HD
ENDBRANCH   3  55
ENDBRANCH   2   3
BRANCH   2  57
ATOM     57  O   UNL     1      25.878  36.734  13.095  1.00  0.00    -0.388 OA
ATOM     58  H   UNL     1      26.431  37.546  12.973  1.00  0.00     0.211 HD
ENDBRANCH   2  57
ENDBRANCH   1   2
BRANCH   1  59
ATOM     59  N   UNL     1      25.201  33.648  12.714  1.00  0.00    -0.319 N 
ATOM     60  C   UNL     1      23.822  33.962  12.938  1.00  0.00     0.407 C 
ATOM     61  H   UNL     1      25.434  32.872  12.075  1.00  0.00     0.167 HD
ATOM     62  O   UNL     1      23.499  34.900  13.709  1.00  0.00    -0.225 OA
BRANCH  60  63
ATOM     63  O   UNL     1      22.807  33.260  12.331  1.00  0.00    -0.443 OA
BRANCH  63  64
ATOM     64  C   UNL     1      22.293  32.058  12.786  1.00  0.00     0.294 C 
BRANCH  64  65
ATOM     65  C   UNL     1      23.133  31.285  13.710  1.00  0.00     0.120 A 
ATOM     66  C   UNL     1      23.017  31.199  15.073  1.00  0.00     0.138 A 
ATOM     67  N   UNL     1      24.193  30.524  13.356  1.00  0.00    -0.132 NA
ATOM     68  N   UNL     1      23.992  30.402  15.512  1.00  0.00    -0.252 N 
ATOM     69  N   UNL     1      24.679  30.015  14.456  1.00  0.00    -0.067 NA
BRANCH  68  70
ATOM     70  C   UNL     1      24.232  30.033  16.900  1.00  0.00     0.146 C 
BRANCH  70  71
ATOM     71  C   UNL     1      24.728  28.587  16.926  1.00  0.00     0.024 C 
BRANCH  71  72
ATOM     72  C   UNL     1      26.114  28.495  17.492  1.00  0.00     0.002 C 
BRANCH  72  73
ATOM     73  C   UNL     1      26.563  29.848  17.964  1.00  0.00     0.012 C 
BRANCH  73  74
ATOM     74  C   UNL     1      27.980  30.159  17.612  1.00  0.00     0.122 C 
BRANCH  74  75
ATOM     75  C   UNL     1      28.042  30.695  16.224  1.00  0.00     0.303 C 
ATOM     76  O   UNL     1      27.282  31.627  15.880  1.00  0.00    -0.252 OA
BRANCH  75  77
ATOM     77  O   UNL     1      28.936  30.177  15.293  1.00  0.00    -0.481 OA
ATOM     78  H   UNL     1      28.706  30.213  14.298  1.00  0.00     0.296 HD
ENDBRANCH  75  77
ENDBRANCH  74  75
ENDBRANCH  73  74
ENDBRANCH  72  73
ENDBRANCH  71  72
ENDBRANCH  70  71
ENDBRANCH  68  70
ENDBRANCH  64  65
ENDBRANCH  63  64
ENDBRANCH  60  63
ENDBRANCH   1  59
TORSDOF 36
BEGIN_RES LYS A 131
REMARK  4 active torsions:
REMARK  status: ('A' for Active; 'I' for Inactive)
REMARK    1  A    between atoms: CA   and  CB  
REMARK    2  A    between atoms: CB   and  CG  
REMARK    3  A    between atoms: CG   and  CD  
REMARK    4  A    between atoms: CD   and  CE  
ROOT
ATOM      1  CA  LYS A 131      29.867  25.555  16.977  1.00 20.52     0.186 C 
ENDROOT
BRANCH   1   2
ATOM      2  CB  LYS A 131      28.345  25.722  17.026  1.00 20.94     0.034 C 
BRANCH   2   3
ATOM      3  CG  LYS A 131      27.601  24.402  16.894  1.00 22.96     0.005 C 
BRANCH   3   4
ATOM      4  CD  LYS A 131      26.141  24.539  17.225  1.00 24.33     0.041 C 
BRANCH   4   5
ATOM      5  CE  LYS A 131      25.556  23.163  17.528  1.00 26.91     0.338 C 
ATOM      6  NZ  LYS A 131      24.103  23.141  17.238  1.00 27.40     0.618 N 
ENDBRANCH   4   5
ENDBRANCH   3   4
ENDBRANCH   2   3
ENDBRANCH   1   2
END_RES LYS A 131
BEGIN_RES LYS A 135
REMARK  4 active torsions:
REMARK  status: ('A' for Active; 'I' for Inactive)
REMARK    5  A    between atoms: CA   and  CB  
REMARK    6  A    between atoms: CB   and  CG  
REMARK    7  A    between atoms: CG   and  CD  
REMARK    8  A    between atoms: CD   and  CE  
ROOT
ATOM      7  CA  LYS A 135      33.193  34.663   9.290  1.00 25.02     0.186 C 
ENDROOT
BRANCH   7   8
ATOM      8  CB  LYS A 135      32.060  35.360  10.034  1.00 26.63     0.034 C 
BRANCH   8   9
ATOM      9  CG  LYS A 135      30.783  35.449   9.240  1.00 29.45     0.005 C 
BRANCH   9  10
ATOM     10  CD  LYS A 135      30.044  34.120   9.261  1.00 32.00     0.041 C 
BRANCH  10  11
ATOM     11  CE  LYS A 135      28.640  34.282   8.711  1.00 34.25     0.338 C 
ATOM     12  NZ  LYS A 135      27.630  33.692   9.633  1.00 35.99     0.618 N 
ENDBRANCH  10  11
ENDBRANCH   9  10
ENDBRANCH   8   9
ENDBRANCH   7   8
END_RES LYS A 135
