REMARK VINA RESULT:    -4.935      3.835      8.615
REMARK INTER + INTRA:         -24.937
REMARK INTER:                 -13.305
REMARK INTRA:                 -11.632
REMARK UNBOUND:                -9.760
REMARK SMILES CC(=O)N[C@@H]1[C@@H](O)C[C@](OC[C@H]2O[C@@H](O[C@H]3[C@H](O)[C@@H](O)[C@H](OCCN=[N+]=[N-])O[C@@H]3CO)[C@H](O)[C@@H](O)[C@H]2O)(C(=O)O)O[C@H]1C(O)[C@H](O)CNC(=O)OCc1cn(CCCCCCCCCCC(=O)O)nn1
REMARK SMILES IDX 51 1 49 2 48 3 50 5 47 6 45 7 43 8 42 9 9 10 8 11 41 12 6 13
REMARK SMILES IDX 5 14 10 15 11 16 12 17 14 18 13 19 32 20 34 21 36 22 15 23
REMARK SMILES IDX 16 24 29 25 28 26 21 27 17 28 19 29 30 30 31 31 22 33 23 34
REMARK SMILES IDX 24 35 25 36 26 37 27 38 18 39 20 41 33 43 35 45 37 47 38 49
REMARK SMILES IDX 39 50 40 51 7 53 4 55 2 56 1 58 3 59 44 60 46 62 52 64 53 65
REMARK SMILES IDX 54 66 70 67 55 68 69 69 56 70 57 71 58 72 59 73 60 74 61 75
REMARK SMILES IDX 62 76 63 77 64 78 65 79 66 80 67 81 68 82
REMARK H PARENT 48 4 31 32 18 40 20 42 33 44 35 46 37 48 40 52 7 54 4 57 44 61
REMARK H PARENT 46 63 68 83
REMARK Flexibility Score: inf
ROOT
ATOM      1  O   UNL     1      26.065  38.179  14.222  1.00  0.00    -0.443 OA
ENDROOT
BRANCH   1   2
ATOM      2  C   UNL     1      26.155  37.804  15.581  1.00  0.00     0.407 C 
ATOM      3  N   UNL     1      27.273  38.181  16.365  1.00  0.00    -0.319 N 
ATOM      4  H   UNL     1      28.040  38.742  15.908  1.00  0.00     0.167 HD
ATOM      5  O   UNL     1      25.250  37.133  16.126  1.00  0.00    -0.225 OA
BRANCH   3   6
ATOM      6  C   UNL     1      27.401  37.831  17.747  1.00  0.00     0.154 C 
BRANCH   6   7
ATOM      7  C   UNL     1      28.103  36.501  17.997  1.00  0.00     0.165 C 
BRANCH   7   8
ATOM      8  C   UNL     1      29.154  36.388  16.948  1.00  0.00     0.176 C 
BRANCH   8   9
ATOM      9  C   UNL     1      29.886  35.068  16.880  1.00  0.00     0.178 C 
ATOM     10  C   UNL     1      29.559  32.895  16.118  1.00  0.00     0.272 C 
ATOM     11  C   UNL     1      30.362  32.447  17.320  1.00  0.00     0.113 C 
ATOM     12  O   UNL     1      29.007  34.125  16.425  1.00  0.00    -0.332 OA
ATOM     13  C   UNL     1      30.191  33.322  18.520  1.00  0.00     0.145 C 
ATOM     14  C   UNL     1      30.601  34.733  18.151  1.00  0.00     0.142 C 
BRANCH  10  15
ATOM     15  O   UNL     1      28.546  31.966  15.824  1.00  0.00    -0.338 OA
BRANCH  15  16
ATOM     16  C   UNL     1      28.488  30.862  16.604  1.00  0.00     0.199 C 
BRANCH  16  17
ATOM     17  C   UNL     1      27.239  31.025  17.495  1.00  0.00     0.179 C 
ATOM     18  C   UNL     1      25.345  31.065  16.078  1.00  0.00     0.282 C 
ATOM     19  O   UNL     1      26.235  31.676  16.895  1.00  0.00    -0.341 OA
ATOM     20  C   UNL     1      25.344  29.587  16.178  1.00  0.00     0.202 C 
ATOM     21  C   UNL     1      25.554  29.191  17.635  1.00  0.00     0.179 C 
ATOM     22  C   UNL     1      26.888  29.702  18.138  1.00  0.00     0.177 C 
BRANCH  18  23
ATOM     23  O   UNL     1      25.599  31.548  14.770  1.00  0.00    -0.341 OA
BRANCH  23  24
ATOM     24  C   UNL     1      24.551  32.393  14.431  1.00  0.00     0.184 C 
ATOM     25  C   UNL     1      23.912  32.116  13.109  1.00  0.00     0.178 C 
ATOM     26  O   UNL     1      23.018  33.095  12.789  1.00  0.00    -0.341 OA
ATOM     27  C   UNL     1      22.669  34.037  13.682  1.00  0.00     0.281 C 
ATOM     28  C   UNL     1      25.059  33.843  14.363  1.00  0.00     0.180 C 
ATOM     29  C   UNL     1      23.825  34.716  14.380  1.00  0.00     0.202 C 
BRANCH  25  30
ATOM     30  C   UNL     1      23.238  30.759  13.033  1.00  0.00     0.191 C 
BRANCH  30  31
ATOM     31  O   UNL     1      24.108  29.718  12.841  1.00  0.00    -0.394 OA
ATOM     32  H   UNL     1      23.981  29.367  11.921  1.00  0.00     0.210 HD
ENDBRANCH  30  31
ENDBRANCH  25  30
BRANCH  27  33
ATOM     33  O   UNL     1      21.839  33.495  14.654  1.00  0.00    -0.350 OA
BRANCH  33  34
ATOM     34  C   UNL     1      21.331  34.467  15.515  1.00  0.00     0.169 C 
BRANCH  34  35
ATOM     35  C   UNL     1      21.192  33.960  16.923  1.00  0.00     0.119 C 
BRANCH  35  36
ATOM     36  N   UNL     1      21.958  34.836  17.812  1.00  0.00    -0.092 NA
ATOM     37  N   UNL     1      23.188  34.671  17.964  1.00  0.00     0.001 N 
ATOM     38  N   UNL     1      24.372  34.270  17.939  1.00  0.00    -0.003 NA
ENDBRANCH  35  36
ENDBRANCH  34  35
ENDBRANCH  33  34
ENDBRANCH  27  33
BRANCH  28  39
ATOM     39  O   UNL     1      25.876  34.168  15.424  1.00  0.00    -0.387 OA
ATOM     40  H   UNL     1      26.829  33.944  15.275  1.00  0.00     0.211 HD
ENDBRANCH  28  39
BRANCH  29  41
ATOM     41  O   UNL     1      24.125  35.873  13.667  1.00  0.00    -0.385 OA
ATOM     42  H   UNL     1      25.114  36.034  13.763  1.00  0.00     0.211 HD
ENDBRANCH  29  41
ENDBRANCH  23  24
ENDBRANCH  18  23
BRANCH  20  43
ATOM     43  O   UNL     1      24.110  29.021  15.829  1.00  0.00    -0.385 OA
ATOM     44  H   UNL     1      24.103  28.992  14.827  1.00  0.00     0.211 HD
ENDBRANCH  20  43
BRANCH  21  45
ATOM     45  O   UNL     1      25.501  27.806  17.780  1.00  0.00    -0.387 OA
ATOM     46  H   UNL     1      26.345  27.453  17.400  1.00  0.00     0.211 HD
ENDBRANCH  21  45
BRANCH  22  47
ATOM     47  O   UNL     1      27.841  28.758  17.841  1.00  0.00    -0.387 OA
ATOM     48  H   UNL     1      27.788  28.552  16.873  1.00  0.00     0.211 HD
ENDBRANCH  22  47
ENDBRANCH  16  17
ENDBRANCH  15  16
ENDBRANCH  10  15
BRANCH  10  49
ATOM     49  C   UNL     1      30.374  32.959  14.902  1.00  0.00     0.364 C 
ATOM     50  O   UNL     1      30.045  33.619  13.903  1.00  0.00    -0.246 OA
BRANCH  49  51
ATOM     51  O   UNL     1      31.570  32.266  14.821  1.00  0.00    -0.477 OA
ATOM     52  H   UNL     1      31.743  31.409  15.352  1.00  0.00     0.296 HD
ENDBRANCH  49  51
ENDBRANCH  10  49
BRANCH  13  53
ATOM     53  O   UNL     1      28.955  33.271  19.127  1.00  0.00    -0.391 OA
ATOM     54  H   UNL     1      28.437  32.442  18.916  1.00  0.00     0.211 HD
ENDBRANCH  13  53
BRANCH  14  55
ATOM     55  N   UNL     1      32.024  34.759  18.074  1.00  0.00    -0.348 N 
ATOM     56  C   UNL     1      32.828  35.881  18.422  1.00  0.00     0.217 C 
ATOM     57  H   UNL     1      32.553  33.916  17.743  1.00  0.00     0.163 HD
ATOM     58  C   UNL     1      34.297  35.830  18.315  1.00  0.00     0.114 C 
ATOM     59  O   UNL     1      32.247  36.907  18.821  1.00  0.00    -0.275 OA
ENDBRANCH  14  55
ENDBRANCH   8   9
BRANCH   8  60
ATOM     60  O   UNL     1      29.968  37.486  17.011  1.00  0.00    -0.388 OA
ATOM     61  H   UNL     1      30.794  37.366  17.506  1.00  0.00     0.211 HD
ENDBRANCH   8  60
ENDBRANCH   7   8
BRANCH   7  62
ATOM     62  O   UNL     1      27.127  35.513  17.951  1.00  0.00    -0.388 OA
ATOM     63  H   UNL     1      27.056  35.098  17.057  1.00  0.00     0.211 HD
ENDBRANCH   7  62
ENDBRANCH   6   7
ENDBRANCH   3   6
ENDBRANCH   1   2
BRANCH   1  64
ATOM     64  C   UNL     1      27.306  38.341  13.522  1.00  0.00     0.294 C 
BRANCH  64  65
ATOM     65  C   UNL     1      27.518  37.116  12.724  1.00  0.00     0.120 A 
ATOM     66  C   UNL     1      28.711  36.758  12.122  1.00  0.00     0.138 A 
ATOM     67  N   UNL     1      26.635  36.146  12.446  1.00  0.00    -0.132 NA
ATOM     68  N   UNL     1      28.488  35.582  11.506  1.00  0.00    -0.252 N 
ATOM     69  N   UNL     1      27.206  35.227  11.719  1.00  0.00    -0.067 NA
BRANCH  68  70
ATOM     70  C   UNL     1      29.395  34.781  10.744  1.00  0.00     0.146 C 
BRANCH  70  71
ATOM     71  C   UNL     1      29.683  35.258   9.363  1.00  0.00     0.024 C 
BRANCH  71  72
ATOM     72  C   UNL     1      29.046  34.495   8.256  1.00  0.00     0.002 C 
BRANCH  72  73
ATOM     73  C   UNL     1      27.938  35.190   7.543  1.00  0.00     0.000 C 
BRANCH  73  74
ATOM     74  C   UNL     1      26.612  35.157   8.222  1.00  0.00     0.000 C 
BRANCH  74  75
ATOM     75  C   UNL     1      25.858  36.429   7.952  1.00  0.00     0.000 C 
BRANCH  75  76
ATOM     76  C   UNL     1      24.977  36.855   9.106  1.00  0.00     0.000 C 
BRANCH  76  77
ATOM     77  C   UNL     1      24.279  35.716   9.772  1.00  0.00     0.001 C 
BRANCH  77  78
ATOM     78  C   UNL     1      23.067  35.212   9.050  1.00  0.00     0.012 C 
BRANCH  78  79
ATOM     79  C   UNL     1      22.223  36.407   8.643  1.00  0.00     0.122 C 
BRANCH  79  80
ATOM     80  C   UNL     1      20.876  35.939   8.276  1.00  0.00     0.303 C 
ATOM     81  O   UNL     1      20.169  36.592   7.481  1.00  0.00    -0.252 OA
BRANCH  80  82
ATOM     82  O   UNL     1      20.350  34.766   8.800  1.00  0.00    -0.481 OA
ATOM     83  H   UNL     1      19.457  34.736   9.256  1.00  0.00     0.296 HD
ENDBRANCH  80  82
ENDBRANCH  79  80
ENDBRANCH  78  79
ENDBRANCH  77  78
ENDBRANCH  76  77
ENDBRANCH  75  76
ENDBRANCH  74  75
ENDBRANCH  73  74
ENDBRANCH  72  73
ENDBRANCH  71  72
ENDBRANCH  70  71
ENDBRANCH  68  70
ENDBRANCH  64  65
ENDBRANCH   1  64
TORSDOF 41
BEGIN_RES LYS A 131
REMARK  4 active torsions:
REMARK  status: ('A' for Active; 'I' for Inactive)
REMARK    1  A    between atoms: CA   and  CB  
REMARK    2  A    between atoms: CB   and  CG  
REMARK    3  A    between atoms: CG   and  CD  
REMARK    4  A    between atoms: CD   and  CE  
ROOT
ATOM      1  CA  LYS A 131      29.867  25.555  16.977  1.00 20.52     0.186 C 
ENDROOT
BRANCH   1   2
ATOM      2  CB  LYS A 131      28.345  25.722  17.026  1.00 20.94     0.034 C 
BRANCH   2   3
ATOM      3  CG  LYS A 131      27.603  24.395  16.980  1.00 22.96     0.005 C 
BRANCH   3   4
ATOM      4  CD  LYS A 131      26.112  24.581  16.935  1.00 24.33     0.041 C 
BRANCH   4   5
ATOM      5  CE  LYS A 131      25.471  23.841  18.104  1.00 26.91     0.338 C 
ATOM      6  NZ  LYS A 131      25.772  24.529  19.382  1.00 27.40     0.618 N 
ENDBRANCH   4   5
ENDBRANCH   3   4
ENDBRANCH   2   3
ENDBRANCH   1   2
END_RES LYS A 131
BEGIN_RES LYS A 135
REMARK  4 active torsions:
REMARK  status: ('A' for Active; 'I' for Inactive)
REMARK    5  A    between atoms: CA   and  CB  
REMARK    6  A    between atoms: CB   and  CG  
REMARK    7  A    between atoms: CG   and  CD  
REMARK    8  A    between atoms: CD   and  CE  
ROOT
ATOM      7  CA  LYS A 135      33.193  34.663   9.290  1.00 25.02     0.186 C 
ENDROOT
BRANCH   7   8
ATOM      8  CB  LYS A 135      32.060  35.360  10.034  1.00 26.63     0.034 C 
BRANCH   8   9
ATOM      9  CG  LYS A 135      32.536  36.339  11.076  1.00 29.45     0.005 C 
BRANCH   9  10
ATOM     10  CD  LYS A 135      32.591  35.681  12.446  1.00 32.00     0.041 C 
BRANCH  10  11
ATOM     11  CE  LYS A 135      32.079  36.629  13.513  1.00 34.25     0.338 C 
ATOM     12  NZ  LYS A 135      32.620  36.270  14.854  1.00 35.99     0.618 N 
ENDBRANCH  10  11
ENDBRANCH   9  10
ENDBRANCH   8   9
ENDBRANCH   7   8
END_RES LYS A 135
