REMARK VINA RESULT:    -4.436      2.485      8.449
REMARK INTER + INTRA:         -22.502
REMARK INTER:                 -11.071
REMARK INTRA:                 -11.431
REMARK UNBOUND:               -11.064
REMARK SMILES CC(=O)N[C@@H]1[C@@H](O)C[C@](OC[C@H]2O[C@@H](O[C@H]3[C@H](O)[C@@H](O)[C@H](OCCN=[N+]=[N-])O[C@@H]3CO)[C@H](O)[C@@H](O)[C@H]2O)(C(=O)O)O[C@H]1C(O)[C@H](O)CNC(=O)OCc1cn(CC(=O)Nc2ncccn2)nn1
REMARK SMILES IDX 9 1 8 2 6 3 5 4 42 5 41 6 10 7 11 8 12 9 14 10 13 11 32 12
REMARK SMILES IDX 34 13 36 14 15 15 16 16 29 17 28 18 21 19 17 20 19 21 30 22
REMARK SMILES IDX 31 23 22 25 23 26 24 27 25 28 26 29 27 30 18 31 20 33 33 35
REMARK SMILES IDX 35 37 37 39 38 41 39 42 40 43 7 45 43 47 44 48 45 50 46 51
REMARK SMILES IDX 47 53 48 54 49 55 50 57 51 58 52 59 53 60 54 61 67 62 55 63
REMARK SMILES IDX 66 64 56 65 57 66 58 67 59 68 60 70 61 71 65 72 62 73 64 74
REMARK SMILES IDX 63 75 4 76 2 77 1 79 3 80
REMARK H PARENT 31 24 18 32 20 34 33 36 35 38 37 40 40 44 7 46 44 49 46 52
REMARK H PARENT 48 56 59 69 4 78
REMARK Flexibility Score: inf
ROOT
ATOM      1  C   UNL     1      21.685  36.959   8.781  1.00  0.00     0.272 C 
ATOM      2  C   UNL     1      20.995  36.334   7.581  1.00  0.00     0.113 C 
ATOM      3  C   UNL     1      20.194  35.163   7.985  1.00  0.00     0.145 C 
ATOM      4  C   UNL     1      19.335  35.349   9.226  1.00  0.00     0.142 C 
ATOM      5  C   UNL     1      19.863  36.342  10.160  1.00  0.00     0.178 C 
ATOM      6  O   UNL     1      20.521  37.386   9.525  1.00  0.00    -0.332 OA
ENDROOT
BRANCH   1   7
ATOM      7  O   UNL     1      22.300  38.069   8.394  1.00  0.00    -0.338 OA
BRANCH   7   8
ATOM      8  C   UNL     1      23.317  38.440   7.729  1.00  0.00     0.199 C 
BRANCH   8   9
ATOM      9  C   UNL     1      24.571  39.078   8.227  1.00  0.00     0.179 C 
ATOM     10  C   UNL     1      26.486  38.445   9.405  1.00  0.00     0.282 C 
ATOM     11  O   UNL     1      25.255  38.038   8.993  1.00  0.00    -0.341 OA
ATOM     12  C   UNL     1      27.495  38.333   8.216  1.00  0.00     0.202 C 
ATOM     13  C   UNL     1      26.571  38.289   7.015  1.00  0.00     0.179 C 
ATOM     14  C   UNL     1      25.598  39.470   7.230  1.00  0.00     0.177 C 
BRANCH  10  15
ATOM     15  O   UNL     1      26.949  37.586  10.410  1.00  0.00    -0.341 OA
BRANCH  15  16
ATOM     16  C   UNL     1      25.924  37.081  11.200  1.00  0.00     0.184 C 
ATOM     17  C   UNL     1      25.929  37.863  12.520  1.00  0.00     0.178 C 
ATOM     18  O   UNL     1      25.956  37.004  13.609  1.00  0.00    -0.341 OA
ATOM     19  C   UNL     1      27.138  36.249  13.630  1.00  0.00     0.281 C 
ATOM     20  C   UNL     1      26.106  35.625  11.414  1.00  0.00     0.180 C 
ATOM     21  C   UNL     1      27.004  35.221  12.544  1.00  0.00     0.202 C 
BRANCH  17  22
ATOM     22  C   UNL     1      24.655  38.682  12.633  1.00  0.00     0.191 C 
BRANCH  22  23
ATOM     23  O   UNL     1      23.757  38.350  11.618  1.00  0.00    -0.394 OA
ATOM     24  H   UNL     1      23.907  37.429  11.272  1.00  0.00     0.210 HD
ENDBRANCH  22  23
ENDBRANCH  17  22
BRANCH  19  25
ATOM     25  O   UNL     1      27.178  35.648  14.874  1.00  0.00    -0.350 OA
BRANCH  25  26
ATOM     26  C   UNL     1      26.792  34.324  14.866  1.00  0.00     0.169 C 
BRANCH  26  27
ATOM     27  C   UNL     1      27.425  33.488  15.956  1.00  0.00     0.119 C 
BRANCH  27  28
ATOM     28  N   UNL     1      28.513  32.670  15.444  1.00  0.00    -0.092 NA
ATOM     29  N   UNL     1      29.443  33.155  14.791  1.00  0.00     0.001 N 
ATOM     30  N   UNL     1      30.196  33.786  14.057  1.00  0.00    -0.003 NA
ENDBRANCH  27  28
ENDBRANCH  26  27
ENDBRANCH  25  26
ENDBRANCH  19  25
BRANCH  20  31
ATOM     31  O   UNL     1      24.841  35.046  11.709  1.00  0.00    -0.387 OA
ATOM     32  H   UNL     1      24.449  35.502  12.508  1.00  0.00     0.211 HD
ENDBRANCH  20  31
BRANCH  21  33
ATOM     33  O   UNL     1      28.261  34.921  12.029  1.00  0.00    -0.385 OA
ATOM     34  H   UNL     1      28.532  34.018  12.320  1.00  0.00     0.211 HD
ENDBRANCH  21  33
ENDBRANCH  15  16
ENDBRANCH  10  15
BRANCH  12  35
ATOM     35  O   UNL     1      28.180  39.550   8.125  1.00  0.00    -0.385 OA
ATOM     36  H   UNL     1      27.495  40.262   8.243  1.00  0.00     0.211 HD
ENDBRANCH  12  35
BRANCH  13  37
ATOM     37  O   UNL     1      25.930  37.090   6.854  1.00  0.00    -0.387 OA
ATOM     38  H   UNL     1      25.478  36.769   7.659  1.00  0.00     0.211 HD
ENDBRANCH  13  37
BRANCH  14  39
ATOM     39  O   UNL     1      25.240  39.941   6.017  1.00  0.00    -0.387 OA
ATOM     40  H   UNL     1      24.679  39.302   5.513  1.00  0.00     0.211 HD
ENDBRANCH  14  39
ENDBRANCH   8   9
ENDBRANCH   7   8
ENDBRANCH   1   7
BRANCH   1  41
ATOM     41  C   UNL     1      22.454  36.058   9.614  1.00  0.00     0.364 C 
ATOM     42  O   UNL     1      23.252  35.218   9.075  1.00  0.00    -0.246 OA
BRANCH  41  43
ATOM     43  O   UNL     1      22.408  36.002  10.987  1.00  0.00    -0.477 OA
ATOM     44  H   UNL     1      21.598  36.113  11.547  1.00  0.00     0.296 HD
ENDBRANCH  41  43
ENDBRANCH   1  41
BRANCH   3  45
ATOM     45  O   UNL     1      19.361  34.837   6.885  1.00  0.00    -0.391 OA
ATOM     46  H   UNL     1      19.163  35.678   6.372  1.00  0.00     0.211 HD
ENDBRANCH   3  45
BRANCH   5  47
ATOM     47  C   UNL     1      18.791  37.058  11.023  1.00  0.00     0.176 C 
BRANCH  47  48
ATOM     48  O   UNL     1      17.522  36.681  10.802  1.00  0.00    -0.388 OA
ATOM     49  H   UNL     1      17.138  36.049  11.473  1.00  0.00     0.211 HD
ENDBRANCH  47  48
BRANCH  47  50
ATOM     50  C   UNL     1      19.220  37.501  12.334  1.00  0.00     0.165 C 
BRANCH  50  51
ATOM     51  O   UNL     1      20.690  37.729  12.157  1.00  0.00    -0.388 OA
ATOM     52  H   UNL     1      21.046  38.026  13.009  1.00  0.00     0.211 HD
ENDBRANCH  50  51
BRANCH  50  53
ATOM     53  C   UNL     1      19.079  36.782  13.584  1.00  0.00     0.154 C 
BRANCH  53  54
ATOM     54  N   UNL     1      19.128  35.412  13.807  1.00  0.00    -0.319 N 
ATOM     55  C   UNL     1      18.273  34.329  13.519  1.00  0.00     0.407 C 
ATOM     56  H   UNL     1      20.059  35.093  14.338  1.00  0.00     0.167 HD
ATOM     57  O   UNL     1      17.185  34.503  12.941  1.00  0.00    -0.225 OA
BRANCH  55  58
ATOM     58  O   UNL     1      18.609  33.042  13.857  1.00  0.00    -0.443 OA
BRANCH  58  59
ATOM     59  C   UNL     1      19.286  32.103  13.153  1.00  0.00     0.294 C 
BRANCH  59  60
ATOM     60  C   UNL     1      20.696  32.451  12.866  1.00  0.00     0.120 A 
ATOM     61  C   UNL     1      21.831  31.762  13.315  1.00  0.00     0.138 A 
ATOM     62  N   UNL     1      21.217  33.511  12.188  1.00  0.00    -0.132 NA
ATOM     63  N   UNL     1      22.943  32.390  12.920  1.00  0.00    -0.243 N 
ATOM     64  N   UNL     1      22.528  33.444  12.241  1.00  0.00    -0.067 NA
BRANCH  63  65
ATOM     65  C   UNL     1      24.333  32.044  13.151  1.00  0.00     0.246 C 
BRANCH  65  66
ATOM     66  C   UNL     1      24.355  30.790  13.999  1.00  0.00     0.248 C 
ATOM     67  O   UNL     1      24.162  29.653  13.504  1.00  0.00    -0.272 OA
ATOM     68  N   UNL     1      24.600  30.881  15.391  1.00  0.00    -0.293 N 
ATOM     69  H   UNL     1      24.755  31.856  15.752  1.00  0.00     0.173 HD
BRANCH  68  70
ATOM     70  C   UNL     1      24.664  29.804  16.300  1.00  0.00     0.229 A 
ATOM     71  N   UNL     1      25.802  29.208  16.698  1.00  0.00    -0.221 NA
ATOM     72  N   UNL     1      23.505  29.332  16.802  1.00  0.00    -0.221 NA
ATOM     73  C   UNL     1      25.819  28.160  17.572  1.00  0.00     0.117 A 
ATOM     74  C   UNL     1      23.464  28.312  17.660  1.00  0.00     0.117 A 
ATOM     75  C   UNL     1      24.618  27.700  18.067  1.00  0.00     0.040 A 
ENDBRANCH  68  70
ENDBRANCH  65  66
ENDBRANCH  63  65
ENDBRANCH  59  60
ENDBRANCH  58  59
ENDBRANCH  55  58
ENDBRANCH  53  54
ENDBRANCH  50  53
ENDBRANCH  47  50
ENDBRANCH   5  47
BRANCH   4  76
ATOM     76  N   UNL     1      19.084  34.031   9.727  1.00  0.00    -0.348 N 
ATOM     77  C   UNL     1      17.761  33.450   9.683  1.00  0.00     0.217 C 
ATOM     78  H   UNL     1      19.847  33.436  10.146  1.00  0.00     0.163 HD
ATOM     79  C   UNL     1      17.574  32.083  10.213  1.00  0.00     0.114 C 
ATOM     80  O   UNL     1      16.808  34.100   9.208  1.00  0.00    -0.275 OA
ENDBRANCH   4  76
TORSDOF 32
BEGIN_RES LYS A 131
REMARK  4 active torsions:
REMARK  status: ('A' for Active; 'I' for Inactive)
REMARK    1  A    between atoms: CA   and  CB  
REMARK    2  A    between atoms: CB   and  CG  
REMARK    3  A    between atoms: CG   and  CD  
REMARK    4  A    between atoms: CD   and  CE  
ROOT
ATOM      1  CA  LYS A 131      29.867  25.555  16.977  1.00 20.52     0.186 C 
ENDROOT
BRANCH   1   2
ATOM      2  CB  LYS A 131      28.345  25.722  17.026  1.00 20.94     0.034 C 
BRANCH   2   3
ATOM      3  CG  LYS A 131      27.603  24.396  16.960  1.00 22.96     0.005 C 
BRANCH   3   4
ATOM      4  CD  LYS A 131      26.366  24.396  17.815  1.00 24.33     0.041 C 
BRANCH   4   5
ATOM      5  CE  LYS A 131      25.514  23.177  17.479  1.00 26.91     0.338 C 
ATOM      6  NZ  LYS A 131      24.171  23.594  17.011  1.00 27.40     0.618 N 
ENDBRANCH   4   5
ENDBRANCH   3   4
ENDBRANCH   2   3
ENDBRANCH   1   2
END_RES LYS A 131
BEGIN_RES LYS A 135
REMARK  4 active torsions:
REMARK  status: ('A' for Active; 'I' for Inactive)
REMARK    5  A    between atoms: CA   and  CB  
REMARK    6  A    between atoms: CB   and  CG  
REMARK    7  A    between atoms: CG   and  CD  
REMARK    8  A    between atoms: CD   and  CE  
ROOT
ATOM      7  CA  LYS A 135      33.193  34.663   9.290  1.00 25.02     0.186 C 
ENDROOT
BRANCH   7   8
ATOM      8  CB  LYS A 135      32.060  35.360  10.034  1.00 26.63     0.034 C 
BRANCH   8   9
ATOM      9  CG  LYS A 135      30.708  34.741   9.789  1.00 29.45     0.005 C 
BRANCH   9  10
ATOM     10  CD  LYS A 135      30.476  34.530   8.301  1.00 32.00     0.041 C 
BRANCH  10  11
ATOM     11  CE  LYS A 135      29.048  34.883   7.929  1.00 34.25     0.338 C 
ATOM     12  NZ  LYS A 135      28.981  35.484   6.568  1.00 35.99     0.618 N 
ENDBRANCH  10  11
ENDBRANCH   9  10
ENDBRANCH   8   9
ENDBRANCH   7   8
END_RES LYS A 135
