REMARK VINA RESULT:    -4.954      2.646      7.347
REMARK INTER + INTRA:         -22.660
REMARK INTER:                 -13.062
REMARK INTRA:                  -9.598
REMARK UNBOUND:                -9.598
REMARK SMILES CC(=O)N[C@@H]1[C@@H](O)C[C@](OC[C@H]2O[C@@H](O[C@H]3[C@H](O)[C@@H](O)[C@H](OCCN=[N+]=[N-])O[C@@H]3CO)[C@H](O)[C@@H](O)[C@H]2O)(C(=O)O)O[C@H]1C(O)[C@H](O)CNC(=O)OCc1cn(Cc2ccccc2OC(C)=O)nn1
REMARK SMILES IDX 43 1 42 2 9 3 8 4 41 5 6 6 5 7 10 8 11 9 12 10 14 11 13 12
REMARK SMILES IDX 32 13 34 14 36 15 15 16 16 17 29 18 28 19 21 20 17 21 19 22
REMARK SMILES IDX 30 23 31 24 22 26 23 27 24 28 25 29 26 30 27 31 18 32 20 34
REMARK SMILES IDX 33 36 35 38 37 40 38 42 39 43 40 44 7 46 4 48 2 49 1 51 3 52
REMARK SMILES IDX 44 53 45 55 46 56 47 58 48 59 49 60 50 62 51 63 52 64 53 65
REMARK SMILES IDX 54 66 68 67 55 68 67 69 56 70 57 71 62 72 58 73 61 74 59 75
REMARK SMILES IDX 60 76 63 77 64 78 66 79 65 80
REMARK H PARENT 31 25 18 33 20 35 33 37 35 39 37 41 40 45 7 47 4 50 44 54
REMARK H PARENT 46 57 48 61
REMARK Flexibility Score: inf
ROOT
ATOM      1  C   UNL     1      29.140  38.676   9.298  1.00  0.00     0.176 C 
ENDROOT
BRANCH   1   2
ATOM      2  C   UNL     1      29.038  38.650   7.781  1.00  0.00     0.178 C 
ATOM      3  C   UNL     1      27.986  39.755   6.017  1.00  0.00     0.272 C 
ATOM      4  C   UNL     1      28.442  38.469   5.337  1.00  0.00     0.113 C 
ATOM      5  O   UNL     1      28.086  39.576   7.418  1.00  0.00    -0.332 OA
ATOM      6  C   UNL     1      27.840  37.328   6.141  1.00  0.00     0.145 C 
ATOM      7  C   UNL     1      28.584  37.235   7.418  1.00  0.00     0.142 C 
BRANCH   3   8
ATOM      8  O   UNL     1      26.680  40.060   5.774  1.00  0.00    -0.338 OA
BRANCH   8   9
ATOM      9  C   UNL     1      26.138  41.149   6.378  1.00  0.00     0.199 C 
BRANCH   9  10
ATOM     10  C   UNL     1      24.648  40.854   6.623  1.00  0.00     0.179 C 
ATOM     11  C   UNL     1      23.217  39.133   7.146  1.00  0.00     0.282 C 
ATOM     12  O   UNL     1      24.597  39.513   7.018  1.00  0.00    -0.341 OA
ATOM     13  C   UNL     1      22.755  39.780   8.403  1.00  0.00     0.202 C 
ATOM     14  C   UNL     1      22.766  41.295   8.135  1.00  0.00     0.179 C 
ATOM     15  C   UNL     1      24.103  41.768   7.673  1.00  0.00     0.177 C 
BRANCH  11  16
ATOM     16  O   UNL     1      23.247  37.760   7.104  1.00  0.00    -0.341 OA
BRANCH  16  17
ATOM     17  C   UNL     1      23.015  37.205   8.376  1.00  0.00     0.184 C 
ATOM     18  C   UNL     1      24.170  36.455   8.929  1.00  0.00     0.178 C 
ATOM     19  O   UNL     1      23.809  35.222   9.480  1.00  0.00    -0.341 OA
ATOM     20  C   UNL     1      22.700  35.275  10.314  1.00  0.00     0.281 C 
ATOM     21  C   UNL     1      21.911  36.103   8.164  1.00  0.00     0.180 C 
ATOM     22  C   UNL     1      21.460  35.741   9.553  1.00  0.00     0.202 C 
BRANCH  18  23
ATOM     23  C   UNL     1      25.086  37.223   9.830  1.00  0.00     0.191 C 
BRANCH  23  24
ATOM     24  O   UNL     1      25.743  38.196   9.092  1.00  0.00    -0.394 OA
ATOM     25  H   UNL     1      25.408  38.212   8.171  1.00  0.00     0.210 HD
ENDBRANCH  23  24
ENDBRANCH  18  23
BRANCH  20  26
ATOM     26  O   UNL     1      22.893  36.124  11.345  1.00  0.00    -0.350 OA
BRANCH  26  27
ATOM     27  C   UNL     1      23.069  35.675  12.602  1.00  0.00     0.169 C 
BRANCH  27  28
ATOM     28  C   UNL     1      23.255  34.218  12.824  1.00  0.00     0.119 C 
BRANCH  28  29
ATOM     29  N   UNL     1      24.613  33.910  13.119  1.00  0.00    -0.092 NA
ATOM     30  N   UNL     1      25.503  33.998  12.302  1.00  0.00     0.001 N 
ATOM     31  N   UNL     1      26.344  34.375  11.481  1.00  0.00    -0.003 NA
ENDBRANCH  28  29
ENDBRANCH  27  28
ENDBRANCH  26  27
ENDBRANCH  20  26
BRANCH  21  32
ATOM     32  O   UNL     1      20.917  36.603   7.361  1.00  0.00    -0.387 OA
ATOM     33  H   UNL     1      20.032  36.180   7.605  1.00  0.00     0.211 HD
ENDBRANCH  21  32
BRANCH  22  34
ATOM     34  O   UNL     1      20.441  34.814   9.556  1.00  0.00    -0.385 OA
ATOM     35  H   UNL     1      19.686  35.209  10.078  1.00  0.00     0.211 HD
ENDBRANCH  22  34
ENDBRANCH  16  17
ENDBRANCH  11  16
BRANCH  13  36
ATOM     36  O   UNL     1      21.442  39.487   8.733  1.00  0.00    -0.385 OA
ATOM     37  H   UNL     1      21.173  38.563   8.550  1.00  0.00     0.211 HD
ENDBRANCH  13  36
BRANCH  14  38
ATOM     38  O   UNL     1      22.322  41.982   9.266  1.00  0.00    -0.387 OA
ATOM     39  H   UNL     1      21.642  41.392   9.700  1.00  0.00     0.211 HD
ENDBRANCH  14  38
BRANCH  15  40
ATOM     40  O   UNL     1      24.936  41.871   8.785  1.00  0.00    -0.387 OA
ATOM     41  H   UNL     1      25.800  41.432   8.668  1.00  0.00     0.211 HD
ENDBRANCH  15  40
ENDBRANCH   9  10
ENDBRANCH   8   9
ENDBRANCH   3   8
BRANCH   3  42
ATOM     42  C   UNL     1      28.950  40.797   5.602  1.00  0.00     0.364 C 
ATOM     43  O   UNL     1      29.653  41.405   6.406  1.00  0.00    -0.246 OA
BRANCH  42  44
ATOM     44  O   UNL     1      29.062  41.097   4.242  1.00  0.00    -0.477 OA
ATOM     45  H   UNL     1      28.237  41.108   3.624  1.00  0.00     0.296 HD
ENDBRANCH  42  44
ENDBRANCH   3  42
BRANCH   6  46
ATOM     46  O   UNL     1      26.528  37.717   6.427  1.00  0.00    -0.391 OA
ATOM     47  H   UNL     1      26.005  37.028   6.900  1.00  0.00     0.211 HD
ENDBRANCH   6  46
BRANCH   7  48
ATOM     48  N   UNL     1      29.659  36.336   7.490  1.00  0.00    -0.348 N 
ATOM     49  C   UNL     1      29.637  35.121   8.231  1.00  0.00     0.217 C 
ATOM     50  H   UNL     1      30.542  36.581   6.959  1.00  0.00     0.163 HD
ATOM     51  C   UNL     1      30.785  34.202   8.283  1.00  0.00     0.114 C 
ATOM     52  O   UNL     1      28.591  34.861   8.841  1.00  0.00    -0.275 OA
ENDBRANCH   7  48
ENDBRANCH   1   2
BRANCH   1  53
ATOM     53  O   UNL     1      30.393  38.186   9.618  1.00  0.00    -0.388 OA
ATOM     54  H   UNL     1      30.751  37.530   8.984  1.00  0.00     0.211 HD
ENDBRANCH   1  53
BRANCH   1  55
ATOM     55  C   UNL     1      28.803  39.998   9.902  1.00  0.00     0.165 C 
BRANCH  55  56
ATOM     56  O   UNL     1      29.624  40.960   9.305  1.00  0.00    -0.388 OA
ATOM     57  H   UNL     1      29.838  41.686   9.910  1.00  0.00     0.211 HD
ENDBRANCH  55  56
BRANCH  55  58
ATOM     58  C   UNL     1      28.949  40.018  11.404  1.00  0.00     0.154 C 
BRANCH  58  59
ATOM     59  N   UNL     1      28.649  38.781  12.046  1.00  0.00    -0.319 N 
ATOM     60  C   UNL     1      27.372  38.435  12.560  1.00  0.00     0.407 C 
ATOM     61  H   UNL     1      29.412  38.060  12.156  1.00  0.00     0.167 HD
ATOM     62  O   UNL     1      26.447  39.277  12.445  1.00  0.00    -0.225 OA
BRANCH  60  63
ATOM     63  O   UNL     1      27.096  37.238  13.176  1.00  0.00    -0.443 OA
BRANCH  63  64
ATOM     64  C   UNL     1      26.072  37.098  14.161  1.00  0.00     0.294 C 
BRANCH  64  65
ATOM     65  C   UNL     1      26.524  36.277  15.293  1.00  0.00     0.120 A 
ATOM     66  C   UNL     1      27.837  36.163  15.684  1.00  0.00     0.138 A 
ATOM     67  N   UNL     1      25.822  35.516  16.141  1.00  0.00    -0.132 NA
ATOM     68  N   UNL     1      27.904  35.350  16.740  1.00  0.00    -0.248 N 
ATOM     69  N   UNL     1      26.639  34.968  16.996  1.00  0.00    -0.067 NA
BRANCH  68  70
ATOM     70  C   UNL     1      29.051  34.905  17.508  1.00  0.00     0.185 C 
BRANCH  70  71
ATOM     71  C   UNL     1      29.820  33.880  16.794  1.00  0.00     0.016 A 
ATOM     72  C   UNL     1      30.968  34.165  16.139  1.00  0.00     0.135 A 
ATOM     73  C   UNL     1      29.320  32.575  16.832  1.00  0.00     0.009 A 
ATOM     74  C   UNL     1      31.652  33.132  15.496  1.00  0.00     0.047 A 
ATOM     75  C   UNL     1      30.000  31.569  16.196  1.00  0.00     0.001 A 
ATOM     76  C   UNL     1      31.170  31.838  15.524  1.00  0.00     0.004 A 
BRANCH  72  77
ATOM     77  O   UNL     1      31.500  35.436  16.072  1.00  0.00    -0.426 OA
BRANCH  77  78
ATOM     78  C   UNL     1      32.767  35.645  16.627  1.00  0.00     0.308 C 
ATOM     79  O   UNL     1      33.730  35.868  15.860  1.00  0.00    -0.252 OA
ATOM     80  C   UNL     1      32.944  35.601  18.081  1.00  0.00     0.139 C 
ENDBRANCH  77  78
ENDBRANCH  72  77
ENDBRANCH  70  71
ENDBRANCH  68  70
ENDBRANCH  64  65
ENDBRANCH  63  64
ENDBRANCH  60  63
ENDBRANCH  58  59
ENDBRANCH  55  58
ENDBRANCH   1  55
TORSDOF 33
BEGIN_RES LYS A 131
REMARK  4 active torsions:
REMARK  status: ('A' for Active; 'I' for Inactive)
REMARK    1  A    between atoms: CA   and  CB  
REMARK    2  A    between atoms: CB   and  CG  
REMARK    3  A    between atoms: CG   and  CD  
REMARK    4  A    between atoms: CD   and  CE  
ROOT
ATOM      1  CA  LYS A 131      29.867  25.555  16.977  1.00 20.52     0.186 C 
ENDROOT
BRANCH   1   2
ATOM      2  CB  LYS A 131      28.345  25.722  17.026  1.00 20.94     0.034 C 
BRANCH   2   3
ATOM      3  CG  LYS A 131      27.602  24.400  16.914  1.00 22.96     0.005 C 
BRANCH   3   4
ATOM      4  CD  LYS A 131      26.340  24.388  17.732  1.00 24.33     0.041 C 
BRANCH   4   5
ATOM      5  CE  LYS A 131      26.079  25.785  18.285  1.00 26.91     0.338 C 
ATOM      6  NZ  LYS A 131      25.860  25.731  19.750  1.00 27.40     0.618 N 
ENDBRANCH   4   5
ENDBRANCH   3   4
ENDBRANCH   2   3
ENDBRANCH   1   2
END_RES LYS A 131
BEGIN_RES LYS A 135
REMARK  4 active torsions:
REMARK  status: ('A' for Active; 'I' for Inactive)
REMARK    5  A    between atoms: CA   and  CB  
REMARK    6  A    between atoms: CB   and  CG  
REMARK    7  A    between atoms: CG   and  CD  
REMARK    8  A    between atoms: CD   and  CE  
ROOT
ATOM      7  CA  LYS A 135      33.193  34.663   9.290  1.00 25.02     0.186 C 
ENDROOT
BRANCH   7   8
ATOM      8  CB  LYS A 135      32.060  35.360  10.034  1.00 26.63     0.034 C 
BRANCH   8   9
ATOM      9  CG  LYS A 135      32.508  36.070  11.285  1.00 29.45     0.005 C 
BRANCH   9  10
ATOM     10  CD  LYS A 135      31.916  35.408  12.520  1.00 32.00     0.041 C 
BRANCH  10  11
ATOM     11  CE  LYS A 135      30.459  35.796  12.685  1.00 34.25     0.338 C 
ATOM     12  NZ  LYS A 135      29.596  34.591  12.827  1.00 35.99     0.618 N 
ENDBRANCH  10  11
ENDBRANCH   9  10
ENDBRANCH   8   9
ENDBRANCH   7   8
END_RES LYS A 135
