REMARK VINA RESULT:    -5.084      6.948     15.028
REMARK INTER + INTRA:         -21.635
REMARK INTER:                 -10.591
REMARK INTRA:                 -11.044
REMARK UNBOUND:                -9.122
REMARK SMILES CC(=O)N[C@@H]1[C@@H](O)C[C@](OC[C@H]2O[C@@H](O[C@H]3[C@H](O)[C@@H](O)[C@H](OCCN=[N+]=[N-])O[C@@H]3CO)[C@H](O)[C@@H](O)[C@H]2O)(C(=O)O)O[C@H]1C(O)[C@H](O)CNC(=O)OCc1cn(-c2ccc(Cl)cc2)nn1
REMARK SMILES IDX 9 1 8 2 6 3 5 4 42 5 41 6 10 7 11 8 12 9 14 10 13 11 32 12
REMARK SMILES IDX 34 13 36 14 15 15 16 16 29 17 28 18 21 19 17 20 19 21 30 22
REMARK SMILES IDX 31 23 22 25 23 26 24 27 25 28 26 29 27 30 18 31 20 33 33 35
REMARK SMILES IDX 35 37 37 39 38 41 39 42 40 43 7 45 43 47 44 48 45 50 46 51
REMARK SMILES IDX 47 53 48 54 49 55 50 57 51 58 52 59 53 60 54 61 64 62 55 63
REMARK SMILES IDX 63 64 56 65 57 66 62 67 58 68 61 69 59 70 60 71 4 72 2 73
REMARK SMILES IDX 1 75 3 76
REMARK H PARENT 31 24 18 32 20 34 33 36 35 38 37 40 40 44 7 46 44 49 46 52
REMARK H PARENT 48 56 4 74
REMARK Flexibility Score: inf
ROOT
ATOM      1  C   UNL     1      30.915  31.521  20.793  1.00  0.00     0.272 C 
ATOM      2  C   UNL     1      29.818  31.723  21.755  1.00  0.00     0.113 C 
ATOM      3  C   UNL     1      28.422  31.735  21.283  1.00  0.00     0.145 C 
ATOM      4  C   UNL     1      28.355  31.328  19.827  1.00  0.00     0.142 C 
ATOM      5  C   UNL     1      29.474  32.144  19.144  1.00  0.00     0.178 C 
ATOM      6  O   UNL     1      30.608  31.339  19.470  1.00  0.00    -0.332 OA
ENDROOT
BRANCH   1   7
ATOM      7  O   UNL     1      31.658  30.393  21.240  1.00  0.00    -0.338 OA
BRANCH   7   8
ATOM      8  C   UNL     1      31.466  29.276  20.474  1.00  0.00     0.199 C 
BRANCH   8   9
ATOM      9  C   UNL     1      31.944  28.011  21.182  1.00  0.00     0.179 C 
ATOM     10  C   UNL     1      32.274  27.573  23.469  1.00  0.00     0.282 C 
ATOM     11  O   UNL     1      32.626  28.288  22.324  1.00  0.00    -0.341 OA
ATOM     12  C   UNL     1      30.855  27.834  23.756  1.00  0.00     0.202 C 
ATOM     13  C   UNL     1      30.004  27.345  22.592  1.00  0.00     0.179 C 
ATOM     14  C   UNL     1      30.815  27.025  21.376  1.00  0.00     0.177 C 
BRANCH  10  15
ATOM     15  O   UNL     1      33.205  28.004  24.413  1.00  0.00    -0.341 OA
BRANCH  15  16
ATOM     16  C   UNL     1      33.863  29.131  24.162  1.00  0.00     0.184 C 
ATOM     17  C   UNL     1      35.317  29.073  24.465  1.00  0.00     0.178 C 
ATOM     18  O   UNL     1      35.993  30.148  23.899  1.00  0.00    -0.341 OA
ATOM     19  C   UNL     1      35.585  31.379  24.301  1.00  0.00     0.281 C 
ATOM     20  C   UNL     1      33.333  30.366  24.920  1.00  0.00     0.180 C 
ATOM     21  C   UNL     1      34.430  31.318  25.233  1.00  0.00     0.202 C 
BRANCH  17  22
ATOM     22  C   UNL     1      36.037  27.812  24.104  1.00  0.00     0.191 C 
BRANCH  22  23
ATOM     23  O   UNL     1      35.596  27.278  22.893  1.00  0.00    -0.394 OA
ATOM     24  H   UNL     1      36.301  27.395  22.213  1.00  0.00     0.210 HD
ENDBRANCH  22  23
ENDBRANCH  17  22
BRANCH  19  25
ATOM     25  O   UNL     1      35.204  32.149  23.197  1.00  0.00    -0.350 OA
BRANCH  25  26
ATOM     26  C   UNL     1      36.242  32.954  22.753  1.00  0.00     0.169 C 
BRANCH  26  27
ATOM     27  C   UNL     1      36.364  33.018  21.261  1.00  0.00     0.119 C 
BRANCH  27  28
ATOM     28  N   UNL     1      37.787  33.141  20.955  1.00  0.00    -0.092 NA
ATOM     29  N   UNL     1      38.122  32.755  19.820  1.00  0.00     0.001 N 
ATOM     30  N   UNL     1      38.434  32.720  18.611  1.00  0.00    -0.003 NA
ENDBRANCH  27  28
ENDBRANCH  26  27
ENDBRANCH  25  26
ENDBRANCH  19  25
BRANCH  20  31
ATOM     31  O   UNL     1      32.412  30.973  24.084  1.00  0.00    -0.387 OA
ATOM     32  H   UNL     1      32.857  31.046  23.180  1.00  0.00     0.211 HD
ENDBRANCH  20  31
BRANCH  21  33
ATOM     33  O   UNL     1      34.899  31.184  26.556  1.00  0.00    -0.385 OA
ATOM     34  H   UNL     1      35.730  31.708  26.588  1.00  0.00     0.211 HD
ENDBRANCH  21  33
ENDBRANCH  15  16
ENDBRANCH  10  15
BRANCH  12  35
ATOM     35  O   UNL     1      30.359  27.247  24.922  1.00  0.00    -0.385 OA
ATOM     36  H   UNL     1      31.101  26.822  25.461  1.00  0.00     0.211 HD
ENDBRANCH  12  35
BRANCH  13  37
ATOM     37  O   UNL     1      29.004  28.286  22.362  1.00  0.00    -0.387 OA
ATOM     38  H   UNL     1      28.164  27.920  22.043  1.00  0.00     0.211 HD
ENDBRANCH  13  37
BRANCH  14  39
ATOM     39  O   UNL     1      30.007  27.157  20.221  1.00  0.00    -0.387 OA
ATOM     40  H   UNL     1      30.388  26.567  19.546  1.00  0.00     0.211 HD
ENDBRANCH  14  39
ENDBRANCH   8   9
ENDBRANCH   7   8
ENDBRANCH   1   7
BRANCH   1  41
ATOM     41  C   UNL     1      31.869  32.682  20.901  1.00  0.00     0.364 C 
ATOM     42  O   UNL     1      32.070  33.463  19.946  1.00  0.00    -0.246 OA
BRANCH  41  43
ATOM     43  O   UNL     1      32.539  32.890  22.081  1.00  0.00    -0.477 OA
ATOM     44  H   UNL     1      32.831  33.808  22.413  1.00  0.00     0.296 HD
ENDBRANCH  41  43
ENDBRANCH   1  41
BRANCH   3  45
ATOM     45  O   UNL     1      27.639  30.824  21.991  1.00  0.00    -0.391 OA
ATOM     46  H   UNL     1      28.171  30.019  22.139  1.00  0.00     0.211 HD
ENDBRANCH   3  45
BRANCH   5  47
ATOM     47  C   UNL     1      29.342  32.191  17.664  1.00  0.00     0.176 C 
BRANCH  47  48
ATOM     48  O   UNL     1      28.907  33.462  17.316  1.00  0.00    -0.388 OA
ATOM     49  H   UNL     1      29.224  33.776  16.434  1.00  0.00     0.211 HD
ENDBRANCH  47  48
BRANCH  47  50
ATOM     50  C   UNL     1      30.458  31.750  16.816  1.00  0.00     0.165 C 
BRANCH  50  51
ATOM     51  O   UNL     1      31.429  32.814  16.905  1.00  0.00    -0.388 OA
ATOM     52  H   UNL     1      31.114  33.595  16.392  1.00  0.00     0.211 HD
ENDBRANCH  50  51
BRANCH  50  53
ATOM     53  C   UNL     1      30.127  31.751  15.331  1.00  0.00     0.154 C 
BRANCH  53  54
ATOM     54  N   UNL     1      30.752  32.810  14.588  1.00  0.00    -0.319 N 
ATOM     55  C   UNL     1      29.944  33.860  14.082  1.00  0.00     0.407 C 
ATOM     56  H   UNL     1      31.781  32.848  14.393  1.00  0.00     0.167 HD
ATOM     57  O   UNL     1      28.687  33.881  14.255  1.00  0.00    -0.225 OA
BRANCH  55  58
ATOM     58  O   UNL     1      30.503  34.908  13.377  1.00  0.00    -0.443 OA
BRANCH  58  59
ATOM     59  C   UNL     1      30.732  36.188  13.972  1.00  0.00     0.294 C 
BRANCH  59  60
ATOM     60  C   UNL     1      31.418  36.030  15.287  1.00  0.00     0.121 A 
ATOM     61  C   UNL     1      32.783  36.162  15.498  1.00  0.00     0.144 A 
ATOM     62  N   UNL     1      30.870  35.739  16.474  1.00  0.00    -0.131 NA
ATOM     63  N   UNL     1      33.019  35.949  16.799  1.00  0.00    -0.220 N 
ATOM     64  N   UNL     1      31.868  35.700  17.353  1.00  0.00    -0.062 NA
BRANCH  63  65
ATOM     65  C   UNL     1      34.330  36.008  17.364  1.00  0.00     0.066 A 
ATOM     66  C   UNL     1      35.447  36.068  16.569  1.00  0.00     0.030 A 
ATOM     67  C   UNL     1      34.500  36.007  18.721  1.00  0.00     0.030 A 
ATOM     68  C   UNL     1      36.742  36.128  17.091  1.00  0.00     0.023 A 
ATOM     69  C   UNL     1      35.774  36.065  19.267  1.00  0.00     0.023 A 
ATOM     70  C   UNL     1      36.904  36.125  18.451  1.00  0.00     0.041 A 
ATOM     71  Cl  UNL     1      38.520  36.198  19.159  1.00  0.00    -0.084 Cl
ENDBRANCH  63  65
ENDBRANCH  59  60
ENDBRANCH  58  59
ENDBRANCH  55  58
ENDBRANCH  53  54
ENDBRANCH  50  53
ENDBRANCH  47  50
ENDBRANCH   5  47
BRANCH   4  72
ATOM     72  N   UNL     1      27.063  31.527  19.288  1.00  0.00    -0.348 N 
ATOM     73  C   UNL     1      26.193  30.397  19.090  1.00  0.00     0.217 C 
ATOM     74  H   UNL     1      26.663  32.441  19.025  1.00  0.00     0.163 HD
ATOM     75  C   UNL     1      24.824  30.571  18.525  1.00  0.00     0.114 C 
ATOM     76  O   UNL     1      26.617  29.256  19.408  1.00  0.00    -0.275 OA
ENDBRANCH   4  72
TORSDOF 30
BEGIN_RES LYS A 131
REMARK  4 active torsions:
REMARK  status: ('A' for Active; 'I' for Inactive)
REMARK    1  A    between atoms: CA   and  CB  
REMARK    2  A    between atoms: CB   and  CG  
REMARK    3  A    between atoms: CG   and  CD  
REMARK    4  A    between atoms: CD   and  CE  
ROOT
ATOM      1  CA  LYS A 131      29.867  25.555  16.977  1.00 20.52     0.186 C 
ENDROOT
BRANCH   1   2
ATOM      2  CB  LYS A 131      28.345  25.722  17.026  1.00 20.94     0.034 C 
BRANCH   2   3
ATOM      3  CG  LYS A 131      27.601  24.405  16.867  1.00 22.96     0.005 C 
BRANCH   3   4
ATOM      4  CD  LYS A 131      26.174  24.501  17.332  1.00 24.33     0.041 C 
BRANCH   4   5
ATOM      5  CE  LYS A 131      25.611  23.099  17.539  1.00 26.91     0.338 C 
ATOM      6  NZ  LYS A 131      24.853  23.027  18.810  1.00 27.40     0.618 N 
ENDBRANCH   4   5
ENDBRANCH   3   4
ENDBRANCH   2   3
ENDBRANCH   1   2
END_RES LYS A 131
BEGIN_RES LYS A 135
REMARK  4 active torsions:
REMARK  status: ('A' for Active; 'I' for Inactive)
REMARK    5  A    between atoms: CA   and  CB  
REMARK    6  A    between atoms: CB   and  CG  
REMARK    7  A    between atoms: CG   and  CD  
REMARK    8  A    between atoms: CD   and  CE  
ROOT
ATOM      7  CA  LYS A 135      33.193  34.663   9.290  1.00 25.02     0.186 C 
ENDROOT
BRANCH   7   8
ATOM      8  CB  LYS A 135      32.060  35.360  10.034  1.00 26.63     0.034 C 
BRANCH   8   9
ATOM      9  CG  LYS A 135      30.732  34.661   9.900  1.00 29.45     0.005 C 
BRANCH   9  10
ATOM     10  CD  LYS A 135      30.338  34.532   8.437  1.00 32.00     0.041 C 
BRANCH  10  11
ATOM     11  CE  LYS A 135      28.829  34.539   8.288  1.00 34.25     0.338 C 
ATOM     12  NZ  LYS A 135      28.410  35.347   7.109  1.00 35.99     0.618 N 
ENDBRANCH  10  11
ENDBRANCH   9  10
ENDBRANCH   8   9
ENDBRANCH   7   8
END_RES LYS A 135
