REMARK VINA RESULT:    -4.054      3.448      7.474
REMARK INTER + INTRA:         -22.050
REMARK INTER:                 -10.986
REMARK INTRA:                 -11.064
REMARK UNBOUND:               -11.833
REMARK SMILES CC(=O)N[C@@H]1[C@@H](O)C[C@](OC[C@H]2O[C@@H](O[C@H]3[C@H](O)[C@@H](O)[C@H](OCCN=[N+]=[N-])O[C@@H]3CO)[C@H](O)[C@@H](O)[C@H]2O)(C(=O)O)O[C@H]1C(O)[C@H](O)CNC(=O)OCc1cn(-c2ccccc2C(N)=O)nn1
REMARK SMILES IDX 9 1 8 2 6 3 5 4 42 5 41 6 10 7 11 8 12 9 14 10 13 11 32 12
REMARK SMILES IDX 34 13 36 14 15 15 16 16 29 17 28 18 21 19 17 20 19 21 30 22
REMARK SMILES IDX 31 23 22 25 23 26 24 27 25 28 26 29 27 30 18 31 20 33 33 35
REMARK SMILES IDX 35 37 37 39 38 41 39 42 40 43 7 45 43 47 44 48 45 50 46 51
REMARK SMILES IDX 47 53 48 54 49 55 50 57 51 58 52 59 53 60 54 61 66 62 55 63
REMARK SMILES IDX 65 64 56 65 61 66 57 67 60 68 58 69 59 70 62 71 64 72 63 73
REMARK SMILES IDX 4 76 2 77 1 79 3 80
REMARK H PARENT 31 24 18 32 20 34 33 36 35 38 37 40 40 44 7 46 44 49 46 52
REMARK H PARENT 48 56 63 74 63 75 4 78
REMARK Flexibility Score: inf
ROOT
ATOM      1  C   UNL     1      28.470  35.365   8.851  1.00  0.00     0.272 C 
ATOM      2  C   UNL     1      28.548  34.061   9.694  1.00  0.00     0.113 C 
ATOM      3  C   UNL     1      27.539  34.241  10.793  1.00  0.00     0.145 C 
ATOM      4  C   UNL     1      28.029  35.245  11.758  1.00  0.00     0.142 C 
ATOM      5  C   UNL     1      28.838  36.272  10.946  1.00  0.00     0.178 C 
ATOM      6  O   UNL     1      28.277  36.446   9.695  1.00  0.00    -0.332 OA
ENDROOT
BRANCH   1   7
ATOM      7  O   UNL     1      27.357  35.172   8.054  1.00  0.00    -0.338 OA
BRANCH   7   8
ATOM      8  C   UNL     1      27.163  36.124   7.098  1.00  0.00     0.199 C 
BRANCH   8   9
ATOM      9  C   UNL     1      25.902  36.939   7.326  1.00  0.00     0.179 C 
ATOM     10  C   UNL     1      24.056  36.935   8.748  1.00  0.00     0.282 C 
ATOM     11  O   UNL     1      25.290  36.380   8.446  1.00  0.00    -0.341 OA
ATOM     12  C   UNL     1      23.667  38.117   7.941  1.00  0.00     0.202 C 
ATOM     13  C   UNL     1      24.778  39.062   7.591  1.00  0.00     0.179 C 
ATOM     14  C   UNL     1      26.154  38.382   7.616  1.00  0.00     0.177 C 
BRANCH  10  15
ATOM     15  O   UNL     1      24.076  37.259  10.092  1.00  0.00    -0.341 OA
BRANCH  15  16
ATOM     16  C   UNL     1      23.228  36.478  10.859  1.00  0.00     0.184 C 
ATOM     17  C   UNL     1      21.836  37.063  10.765  1.00  0.00     0.178 C 
ATOM     18  O   UNL     1      21.534  37.876  11.803  1.00  0.00    -0.341 OA
ATOM     19  C   UNL     1      21.470  37.258  12.999  1.00  0.00     0.281 C 
ATOM     20  C   UNL     1      23.726  36.586  12.296  1.00  0.00     0.180 C 
ATOM     21  C   UNL     1      22.627  36.384  13.277  1.00  0.00     0.202 C 
BRANCH  17  22
ATOM     22  C   UNL     1      20.823  35.959  10.636  1.00  0.00     0.191 C 
BRANCH  22  23
ATOM     23  O   UNL     1      21.420  34.753  10.257  1.00  0.00    -0.394 OA
ATOM     24  H   UNL     1      22.080  34.537  10.982  1.00  0.00     0.210 HD
ENDBRANCH  22  23
ENDBRANCH  17  22
BRANCH  19  25
ATOM     25  O   UNL     1      20.239  36.638  13.255  1.00  0.00    -0.350 OA
BRANCH  25  26
ATOM     26  C   UNL     1      20.293  35.673  14.229  1.00  0.00     0.169 C 
BRANCH  26  27
ATOM     27  C   UNL     1      19.750  34.383  13.712  1.00  0.00     0.119 C 
BRANCH  27  28
ATOM     28  N   UNL     1      20.679  33.319  14.000  1.00  0.00    -0.092 NA
ATOM     29  N   UNL     1      21.623  33.038  13.251  1.00  0.00     0.001 N 
ATOM     30  N   UNL     1      22.584  33.073  12.478  1.00  0.00    -0.003 NA
ENDBRANCH  27  28
ENDBRANCH  26  27
ENDBRANCH  25  26
ENDBRANCH  19  25
BRANCH  20  31
ATOM     31  O   UNL     1      24.723  35.643  12.526  1.00  0.00    -0.387 OA
ATOM     32  H   UNL     1      25.567  35.899  12.037  1.00  0.00     0.211 HD
ENDBRANCH  20  31
BRANCH  21  33
ATOM     33  O   UNL     1      23.140  36.702  14.559  1.00  0.00    -0.385 OA
ATOM     34  H   UNL     1      22.782  36.029  15.208  1.00  0.00     0.211 HD
ENDBRANCH  21  33
ENDBRANCH  15  16
ENDBRANCH  10  15
BRANCH  12  35
ATOM     35  O   UNL     1      22.916  37.764   6.799  1.00  0.00    -0.385 OA
ATOM     36  H   UNL     1      23.034  38.493   6.151  1.00  0.00     0.211 HD
ENDBRANCH  12  35
BRANCH  13  37
ATOM     37  O   UNL     1      24.836  40.117   8.504  1.00  0.00    -0.387 OA
ATOM     38  H   UNL     1      25.779  40.291   8.806  1.00  0.00     0.211 HD
ENDBRANCH  13  37
BRANCH  14  39
ATOM     39  O   UNL     1      26.678  38.481   8.918  1.00  0.00    -0.387 OA
ATOM     40  H   UNL     1      27.645  38.541   8.950  1.00  0.00     0.211 HD
ENDBRANCH  14  39
ENDBRANCH   8   9
ENDBRANCH   7   8
ENDBRANCH   1   7
BRANCH   1  41
ATOM     41  C   UNL     1      29.717  35.530   8.100  1.00  0.00     0.364 C 
ATOM     42  O   UNL     1      30.302  34.518   7.580  1.00  0.00    -0.246 OA
BRANCH  41  43
ATOM     43  O   UNL     1      30.283  36.799   7.944  1.00  0.00    -0.477 OA
ATOM     44  H   UNL     1      30.222  37.420   8.748  1.00  0.00     0.296 HD
ENDBRANCH  41  43
ENDBRANCH   1  41
BRANCH   3  45
ATOM     45  O   UNL     1      26.390  34.801  10.178  1.00  0.00    -0.391 OA
ATOM     46  H   UNL     1      26.126  34.226   9.414  1.00  0.00     0.211 HD
ENDBRANCH   3  45
BRANCH   5  47
ATOM     47  C   UNL     1      29.026  37.534  11.739  1.00  0.00     0.176 C 
BRANCH  47  48
ATOM     48  O   UNL     1      29.392  38.534  10.817  1.00  0.00    -0.388 OA
ATOM     49  H   UNL     1      28.937  38.372   9.947  1.00  0.00     0.211 HD
ENDBRANCH  47  48
BRANCH  47  50
ATOM     50  C   UNL     1      27.698  38.018  12.329  1.00  0.00     0.165 C 
BRANCH  50  51
ATOM     51  O   UNL     1      26.661  37.643  11.460  1.00  0.00    -0.388 OA
ATOM     52  H   UNL     1      25.938  38.311  11.602  1.00  0.00     0.211 HD
ENDBRANCH  50  51
BRANCH  50  53
ATOM     53  C   UNL     1      27.666  39.497  12.513  1.00  0.00     0.154 C 
BRANCH  53  54
ATOM     54  N   UNL     1      27.195  40.166  11.331  1.00  0.00    -0.319 N 
ATOM     55  C   UNL     1      27.427  41.535  11.047  1.00  0.00     0.407 C 
ATOM     56  H   UNL     1      26.641  39.588  10.635  1.00  0.00     0.167 HD
ATOM     57  O   UNL     1      28.064  42.321  11.750  1.00  0.00    -0.225 OA
BRANCH  55  58
ATOM     58  O   UNL     1      26.894  42.087   9.857  1.00  0.00    -0.443 OA
BRANCH  58  59
ATOM     59  C   UNL     1      27.778  42.664   8.893  1.00  0.00     0.294 C 
BRANCH  59  60
ATOM     60  C   UNL     1      28.701  41.650   8.352  1.00  0.00     0.121 A 
ATOM     61  C   UNL     1      29.830  41.837   7.591  1.00  0.00     0.144 A 
ATOM     62  N   UNL     1      28.599  40.319   8.509  1.00  0.00    -0.131 NA
ATOM     63  N   UNL     1      30.384  40.639   7.302  1.00  0.00    -0.220 N 
ATOM     64  N   UNL     1      29.598  39.729   7.885  1.00  0.00    -0.062 NA
BRANCH  63  65
ATOM     65  C   UNL     1      31.545  40.352   6.544  1.00  0.00     0.079 A 
ATOM     66  C   UNL     1      32.685  39.971   7.205  1.00  0.00     0.065 A 
ATOM     67  C   UNL     1      31.546  40.450   5.167  1.00  0.00     0.029 A 
ATOM     68  C   UNL     1      33.855  39.677   6.511  1.00  0.00     0.016 A 
ATOM     69  C   UNL     1      32.711  40.160   4.453  1.00  0.00     0.002 A 
ATOM     70  C   UNL     1      33.845  39.780   5.135  1.00  0.00     0.001 A 
BRANCH  66  71
ATOM     71  C   UNL     1      32.676  39.870   8.650  1.00  0.00     0.250 C 
ATOM     72  O   UNL     1      33.068  40.854   9.327  1.00  0.00    -0.269 OA
ATOM     73  N   UNL     1      32.253  38.726   9.357  1.00  0.00    -0.366 N 
ATOM     74  H   UNL     1      31.471  38.796  10.026  1.00  0.00     0.159 HD
ATOM     75  H   UNL     1      32.726  37.824   9.202  1.00  0.00     0.159 HD
ENDBRANCH  66  71
ENDBRANCH  63  65
ENDBRANCH  59  60
ENDBRANCH  58  59
ENDBRANCH  55  58
ENDBRANCH  53  54
ENDBRANCH  50  53
ENDBRANCH  47  50
ENDBRANCH   5  47
BRANCH   4  76
ATOM     76  N   UNL     1      28.851  34.792  12.811  1.00  0.00    -0.348 N 
ATOM     77  C   UNL     1      28.376  34.572  14.129  1.00  0.00     0.217 C 
ATOM     78  H   UNL     1      29.864  34.607  12.618  1.00  0.00     0.163 HD
ATOM     79  C   UNL     1      29.207  34.099  15.256  1.00  0.00     0.114 C 
ATOM     80  O   UNL     1      27.137  34.817  14.289  1.00  0.00    -0.275 OA
ENDBRANCH   4  76
TORSDOF 31
BEGIN_RES LYS A 131
REMARK  4 active torsions:
REMARK  status: ('A' for Active; 'I' for Inactive)
REMARK    1  A    between atoms: CA   and  CB  
REMARK    2  A    between atoms: CB   and  CG  
REMARK    3  A    between atoms: CG   and  CD  
REMARK    4  A    between atoms: CD   and  CE  
ROOT
ATOM      1  CA  LYS A 131      29.867  25.555  16.977  1.00 20.52     0.186 C 
ENDROOT
BRANCH   1   2
ATOM      2  CB  LYS A 131      28.345  25.722  17.026  1.00 20.94     0.034 C 
BRANCH   2   3
ATOM      3  CG  LYS A 131      27.601  24.403  16.888  1.00 22.96     0.005 C 
BRANCH   3   4
ATOM      4  CD  LYS A 131      26.363  24.359  17.739  1.00 24.33     0.041 C 
BRANCH   4   5
ATOM      5  CE  LYS A 131      25.668  23.013  17.558  1.00 26.91     0.338 C 
ATOM      6  NZ  LYS A 131      24.257  23.208  17.149  1.00 27.40     0.618 N 
ENDBRANCH   4   5
ENDBRANCH   3   4
ENDBRANCH   2   3
ENDBRANCH   1   2
END_RES LYS A 131
BEGIN_RES LYS A 135
REMARK  4 active torsions:
REMARK  status: ('A' for Active; 'I' for Inactive)
REMARK    5  A    between atoms: CA   and  CB  
REMARK    6  A    between atoms: CB   and  CG  
REMARK    7  A    between atoms: CG   and  CD  
REMARK    8  A    between atoms: CD   and  CE  
ROOT
ATOM      7  CA  LYS A 135      33.193  34.663   9.290  1.00 25.02     0.186 C 
ENDROOT
BRANCH   7   8
ATOM      8  CB  LYS A 135      32.060  35.360  10.034  1.00 26.63     0.034 C 
BRANCH   8   9
ATOM      9  CG  LYS A 135      32.498  36.021  11.316  1.00 29.45     0.005 C 
BRANCH   9  10
ATOM     10  CD  LYS A 135      32.021  35.225  12.520  1.00 32.00     0.041 C 
BRANCH  10  11
ATOM     11  CE  LYS A 135      32.538  35.842  13.805  1.00 34.25     0.338 C 
ATOM     12  NZ  LYS A 135      32.959  34.792  14.774  1.00 35.99     0.618 N 
ENDBRANCH  10  11
ENDBRANCH   9  10
ENDBRANCH   8   9
ENDBRANCH   7   8
END_RES LYS A 135
