REMARK VINA RESULT:    -4.917      0.000      0.000
REMARK INTER + INTRA:         -23.838
REMARK INTER:                 -11.824
REMARK INTRA:                 -12.014
REMARK UNBOUND:               -11.447
REMARK SMILES CC(=O)N[C@@H]1[C@@H](O)C[C@](OC[C@H]2O[C@@H](O[C@H]3[C@H](O)[C@@H](O)[C@H](OCCN=[N+]=[N-])O[C@@H]3CO)[C@H](O)[C@@H](O)[C@H]2O)(C(=O)O)O[C@H]1C(O)[C@H](O)CNC(=O)OCc1cn(-c2ccccc2C(C)C)nn1
REMARK SMILES IDX 9 1 8 2 6 3 5 4 42 5 41 6 10 7 11 8 12 9 14 10 13 11 32 12
REMARK SMILES IDX 34 13 36 14 15 15 16 16 29 17 28 18 21 19 17 20 19 21 30 22
REMARK SMILES IDX 31 23 22 25 23 26 24 27 25 28 26 29 27 30 18 31 20 33 33 35
REMARK SMILES IDX 35 37 37 39 38 41 39 42 40 43 7 45 43 47 44 48 45 50 46 51
REMARK SMILES IDX 47 53 48 54 49 55 50 57 51 58 52 59 53 60 54 61 66 62 55 63
REMARK SMILES IDX 65 64 56 65 61 66 57 67 60 68 58 69 59 70 62 71 63 72 64 73
REMARK SMILES IDX 4 74 2 75 1 77 3 78
REMARK H PARENT 31 24 18 32 20 34 33 36 35 38 37 40 40 44 7 46 44 49 46 52
REMARK H PARENT 48 56 4 76
REMARK Flexibility Score: inf
ROOT
ATOM      1  C   UNL     1      28.226  39.956   5.709  1.00  0.00     0.272 C 
ATOM      2  C   UNL     1      27.872  41.425   5.710  1.00  0.00     0.113 C 
ATOM      3  C   UNL     1      27.509  41.807   7.137  1.00  0.00     0.145 C 
ATOM      4  C   UNL     1      26.182  41.099   7.462  1.00  0.00     0.142 C 
ATOM      5  C   UNL     1      26.342  39.670   7.102  1.00  0.00     0.178 C 
ATOM      6  O   UNL     1      27.685  39.386   6.900  1.00  0.00    -0.332 OA
ENDROOT
BRANCH   1   7
ATOM      7  O   UNL     1      29.550  39.746   5.836  1.00  0.00    -0.338 OA
BRANCH   7   8
ATOM      8  C   UNL     1      30.570  40.480   5.555  1.00  0.00     0.199 C 
BRANCH   8   9
ATOM      9  C   UNL     1      31.642  40.858   6.525  1.00  0.00     0.179 C 
ATOM     10  C   UNL     1      32.173  41.037   8.727  1.00  0.00     0.282 C 
ATOM     11  O   UNL     1      31.194  41.001   7.814  1.00  0.00    -0.341 OA
ATOM     12  C   UNL     1      33.578  41.309   8.208  1.00  0.00     0.202 C 
ATOM     13  C   UNL     1      33.963  40.348   7.115  1.00  0.00     0.179 C 
ATOM     14  C   UNL     1      32.715  39.744   6.542  1.00  0.00     0.177 C 
BRANCH  10  15
ATOM     15  O   UNL     1      32.254  40.017   9.625  1.00  0.00    -0.341 OA
BRANCH  15  16
ATOM     16  C   UNL     1      31.179  39.737  10.430  1.00  0.00     0.184 C 
ATOM     17  C   UNL     1      31.502  39.741  11.887  1.00  0.00     0.178 C 
ATOM     18  O   UNL     1      31.232  38.573  12.511  1.00  0.00    -0.341 OA
ATOM     19  C   UNL     1      29.990  38.025  12.433  1.00  0.00     0.281 C 
ATOM     20  C   UNL     1      30.391  38.550  10.050  1.00  0.00     0.180 C 
ATOM     21  C   UNL     1      29.312  38.345  11.100  1.00  0.00     0.202 C 
BRANCH  17  22
ATOM     22  C   UNL     1      30.802  40.867  12.664  1.00  0.00     0.191 C 
BRANCH  22  23
ATOM     23  O   UNL     1      31.199  40.747  14.016  1.00  0.00    -0.394 OA
ATOM     24  H   UNL     1      31.594  39.823  14.101  1.00  0.00     0.210 HD
ENDBRANCH  22  23
ENDBRANCH  17  22
BRANCH  19  25
ATOM     25  O   UNL     1      29.185  38.501  13.433  1.00  0.00    -0.350 OA
BRANCH  25  26
ATOM     26  C   UNL     1      27.863  38.677  13.170  1.00  0.00     0.169 C 
BRANCH  26  27
ATOM     27  C   UNL     1      27.171  39.836  13.785  1.00  0.00     0.119 C 
BRANCH  27  28
ATOM     28  N   UNL     1      26.540  40.662  12.812  1.00  0.00    -0.092 NA
ATOM     29  N   UNL     1      27.048  41.162  11.829  1.00  0.00     0.001 N 
ATOM     30  N   UNL     1      27.666  41.462  10.813  1.00  0.00    -0.003 NA
ENDBRANCH  27  28
ENDBRANCH  26  27
ENDBRANCH  25  26
ENDBRANCH  19  25
BRANCH  20  31
ATOM     31  O   UNL     1      29.726  38.663   8.831  1.00  0.00    -0.387 OA
ATOM     32  H   UNL     1      30.332  39.096   8.190  1.00  0.00     0.211 HD
ENDBRANCH  20  31
BRANCH  21  33
ATOM     33  O   UNL     1      28.497  37.262  10.764  1.00  0.00    -0.385 OA
ATOM     34  H   UNL     1      28.637  36.572  11.461  1.00  0.00     0.211 HD
ENDBRANCH  21  33
ENDBRANCH  15  16
ENDBRANCH  10  15
BRANCH  12  35
ATOM     35  O   UNL     1      33.619  42.617   7.757  1.00  0.00    -0.385 OA
ATOM     36  H   UNL     1      34.571  42.875   7.546  1.00  0.00     0.211 HD
ENDBRANCH  12  35
BRANCH  13  37
ATOM     37  O   UNL     1      34.811  39.366   7.645  1.00  0.00    -0.387 OA
ATOM     38  H   UNL     1      34.231  38.736   8.142  1.00  0.00     0.211 HD
ENDBRANCH  13  37
BRANCH  14  39
ATOM     39  O   UNL     1      32.251  38.748   7.375  1.00  0.00    -0.387 OA
ATOM     40  H   UNL     1      32.030  37.961   6.816  1.00  0.00     0.211 HD
ENDBRANCH  14  39
ENDBRANCH   8   9
ENDBRANCH   7   8
ENDBRANCH   1   7
BRANCH   1  41
ATOM     41  C   UNL     1      27.633  39.252   4.566  1.00  0.00     0.364 C 
ATOM     42  O   UNL     1      27.018  39.980   3.707  1.00  0.00    -0.246 OA
BRANCH  41  43
ATOM     43  O   UNL     1      27.640  37.911   4.284  1.00  0.00    -0.477 OA
ATOM     44  H   UNL     1      28.214  37.441   3.609  1.00  0.00     0.296 HD
ENDBRANCH  41  43
ENDBRANCH   1  41
BRANCH   3  45
ATOM     45  O   UNL     1      28.438  41.250   8.024  1.00  0.00    -0.391 OA
ATOM     46  H   UNL     1      27.965  40.550   8.538  1.00  0.00     0.211 HD
ENDBRANCH   3  45
BRANCH   5  47
ATOM     47  C   UNL     1      25.870  38.652   8.095  1.00  0.00     0.176 C 
BRANCH  47  48
ATOM     48  O   UNL     1      26.696  38.907   9.245  1.00  0.00    -0.388 OA
ATOM     49  H   UNL     1      27.558  39.200   8.809  1.00  0.00     0.211 HD
ENDBRANCH  47  48
BRANCH  47  50
ATOM     50  C   UNL     1      26.105  37.215   7.753  1.00  0.00     0.165 C 
BRANCH  50  51
ATOM     51  O   UNL     1      26.018  36.935   6.416  1.00  0.00    -0.388 OA
ATOM     52  H   UNL     1      25.073  37.082   6.154  1.00  0.00     0.211 HD
ENDBRANCH  50  51
BRANCH  50  53
ATOM     53  C   UNL     1      25.491  36.261   8.707  1.00  0.00     0.154 C 
BRANCH  53  54
ATOM     54  N   UNL     1      26.377  35.750   9.735  1.00  0.00    -0.319 N 
ATOM     55  C   UNL     1      25.892  35.365  11.008  1.00  0.00     0.407 C 
ATOM     56  H   UNL     1      27.403  35.642   9.583  1.00  0.00     0.167 HD
ATOM     57  O   UNL     1      24.689  35.437  11.345  1.00  0.00    -0.225 OA
BRANCH  55  58
ATOM     58  O   UNL     1      26.736  34.857  12.025  1.00  0.00    -0.443 OA
BRANCH  58  59
ATOM     59  C   UNL     1      26.245  34.693  13.320  1.00  0.00     0.294 C 
BRANCH  59  60
ATOM     60  C   UNL     1      27.300  35.113  14.284  1.00  0.00     0.121 A 
ATOM     61  C   UNL     1      28.673  35.061  14.187  1.00  0.00     0.144 A 
ATOM     62  N   UNL     1      27.079  35.664  15.520  1.00  0.00    -0.131 NA
ATOM     63  N   UNL     1      29.256  35.551  15.294  1.00  0.00    -0.220 N 
ATOM     64  N   UNL     1      28.240  35.912  16.090  1.00  0.00    -0.062 NA
BRANCH  63  65
ATOM     65  C   UNL     1      30.637  35.691  15.607  1.00  0.00     0.070 A 
ATOM     66  C   UNL     1      31.318  34.624  16.150  1.00  0.00    -0.020 A 
ATOM     67  C   UNL     1      31.345  36.855  15.406  1.00  0.00     0.029 A 
ATOM     68  C   UNL     1      32.655  34.724  16.480  1.00  0.00     0.006 A 
ATOM     69  C   UNL     1      32.684  36.971  15.730  1.00  0.00     0.002 A 
ATOM     70  C   UNL     1      33.350  35.892  16.275  1.00  0.00     0.000 A 
BRANCH  66  71
ATOM     71  C   UNL     1      30.599  33.353  16.372  1.00  0.00     0.015 C 
ATOM     72  C   UNL     1      30.806  32.941  17.822  1.00  0.00     0.012 C 
ATOM     73  C   UNL     1      31.213  32.259  15.484  1.00  0.00     0.012 C 
ENDBRANCH  66  71
ENDBRANCH  63  65
ENDBRANCH  59  60
ENDBRANCH  58  59
ENDBRANCH  55  58
ENDBRANCH  53  54
ENDBRANCH  50  53
ENDBRANCH  47  50
ENDBRANCH   5  47
BRANCH   4  74
ATOM     74  N   UNL     1      25.153  41.764   6.696  1.00  0.00    -0.348 N 
ATOM     75  C   UNL     1      24.039  42.423   7.240  1.00  0.00     0.217 C 
ATOM     76  H   UNL     1      25.241  41.750   5.636  1.00  0.00     0.163 HD
ATOM     77  C   UNL     1      23.053  43.064   6.306  1.00  0.00     0.114 C 
ATOM     78  O   UNL     1      23.867  42.478   8.465  1.00  0.00    -0.275 OA
ENDBRANCH   4  74
TORSDOF 31
BEGIN_RES LYS A 131
REMARK  4 active torsions:
REMARK  status: ('A' for Active; 'I' for Inactive)
REMARK    1  A    between atoms: CA   and  CB  
REMARK    2  A    between atoms: CB   and  CG  
REMARK    3  A    between atoms: CG   and  CD  
REMARK    4  A    between atoms: CD   and  CE  
ROOT
ATOM      1  CA  LYS A 131      29.867  25.555  16.977  1.00 20.52     0.186 C 
ENDROOT
BRANCH   1   2
ATOM      2  CB  LYS A 131      28.345  25.722  17.026  1.00 20.94     0.034 C 
BRANCH   2   3
ATOM      3  CG  LYS A 131      27.604  24.394  17.000  1.00 22.96     0.005 C 
BRANCH   3   4
ATOM      4  CD  LYS A 131      26.239  24.495  17.623  1.00 24.33     0.041 C 
BRANCH   4   5
ATOM      5  CE  LYS A 131      25.517  23.159  17.485  1.00 26.91     0.338 C 
ATOM      6  NZ  LYS A 131      24.300  23.137  18.332  1.00 27.40     0.618 N 
ENDBRANCH   4   5
ENDBRANCH   3   4
ENDBRANCH   2   3
ENDBRANCH   1   2
END_RES LYS A 131
BEGIN_RES LYS A 135
REMARK  4 active torsions:
REMARK  status: ('A' for Active; 'I' for Inactive)
REMARK    5  A    between atoms: CA   and  CB  
REMARK    6  A    between atoms: CB   and  CG  
REMARK    7  A    between atoms: CG   and  CD  
REMARK    8  A    between atoms: CD   and  CE  
ROOT
ATOM      7  CA  LYS A 135      33.193  34.663   9.290  1.00 25.02     0.186 C 
ENDROOT
BRANCH   7   8
ATOM      8  CB  LYS A 135      32.060  35.360  10.034  1.00 26.63     0.034 C 
BRANCH   8   9
ATOM      9  CG  LYS A 135      30.703  34.766   9.758  1.00 29.45     0.005 C 
BRANCH   9  10
ATOM     10  CD  LYS A 135      30.518  34.520   8.268  1.00 32.00     0.041 C 
BRANCH  10  11
ATOM     11  CE  LYS A 135      29.120  34.914   7.833  1.00 34.25     0.338 C 
ATOM     12  NZ  LYS A 135      29.147  35.643   6.534  1.00 35.99     0.618 N 
ENDBRANCH  10  11
ENDBRANCH   9  10
ENDBRANCH   8   9
ENDBRANCH   7   8
END_RES LYS A 135
