REMARK VINA RESULT:    -4.788      3.906      7.206
REMARK INTER + INTRA:         -24.115
REMARK INTER:                 -11.391
REMARK INTRA:                 -12.724
REMARK UNBOUND:               -11.071
REMARK SMILES CC(=O)N[C@@H]1[C@@H](O)C[C@](OC[C@H]2O[C@@H](O[C@H]3[C@H](O)[C@@H](O)[C@H](OCCN=[N+]=[N-])O[C@@H]3CO)[C@H](O)[C@@H](O)[C@H]2O)(C(=O)O)O[C@H]1C(O)[C@H](O)CNC(=O)OCc1cn(CC(O)CCc2ccccc2)nn1
REMARK SMILES IDX 43 1 42 2 9 3 8 4 41 5 6 6 5 7 10 8 11 9 12 10 14 11 13 12
REMARK SMILES IDX 32 13 34 14 36 15 15 16 16 17 29 18 28 19 21 20 17 21 19 22
REMARK SMILES IDX 30 23 31 24 22 26 23 27 24 28 25 29 26 30 27 31 18 32 20 34
REMARK SMILES IDX 33 36 35 38 37 40 38 42 39 43 40 44 7 46 4 48 2 49 1 51 3 52
REMARK SMILES IDX 44 53 45 55 46 56 47 58 48 59 49 60 50 62 51 63 52 64 53 65
REMARK SMILES IDX 54 66 68 67 55 68 67 69 56 70 57 71 58 72 59 74 60 75 61 76
REMARK SMILES IDX 62 77 66 78 63 79 65 80 64 81
REMARK H PARENT 31 25 18 33 20 35 33 37 35 39 37 41 40 45 7 47 4 50 44 54
REMARK H PARENT 46 57 48 61 58 73
REMARK Flexibility Score: inf
ROOT
ATOM      1  C   UNL     1      29.002  41.342  10.461  1.00  0.00     0.176 C 
ENDROOT
BRANCH   1   2
ATOM      2  C   UNL     1      30.508  41.272  10.148  1.00  0.00     0.178 C 
ATOM      3  C   UNL     1      31.544  40.093   8.369  1.00  0.00     0.272 C 
ATOM      4  C   UNL     1      31.514  38.893   9.256  1.00  0.00     0.113 C 
ATOM      5  O   UNL     1      30.664  41.028   8.846  1.00  0.00    -0.332 OA
ATOM      6  C   UNL     1      31.895  39.242  10.650  1.00  0.00     0.145 C 
ATOM      7  C   UNL     1      31.163  40.438  11.181  1.00  0.00     0.142 C 
BRANCH   3   8
ATOM      8  O   UNL     1      31.255  39.735   7.037  1.00  0.00    -0.338 OA
BRANCH   8   9
ATOM      9  C   UNL     1      30.399  40.532   6.365  1.00  0.00     0.199 C 
BRANCH   9  10
ATOM     10  C   UNL     1      29.015  39.859   6.205  1.00  0.00     0.179 C 
ATOM     11  C   UNL     1      26.899  39.718   7.014  1.00  0.00     0.282 C 
ATOM     12  O   UNL     1      28.186  40.140   7.231  1.00  0.00    -0.341 OA
ATOM     13  C   UNL     1      26.423  40.522   5.772  1.00  0.00     0.202 C 
ATOM     14  C   UNL     1      27.122  39.784   4.625  1.00  0.00     0.179 C 
ATOM     15  C   UNL     1      28.578  40.113   4.809  1.00  0.00     0.177 C 
BRANCH  11  16
ATOM     16  O   UNL     1      26.088  40.045   8.042  1.00  0.00    -0.341 OA
BRANCH  16  17
ATOM     17  C   UNL     1      25.520  39.050   8.802  1.00  0.00     0.184 C 
ATOM     18  C   UNL     1      26.039  37.686   8.490  1.00  0.00     0.178 C 
ATOM     19  O   UNL     1      25.132  36.740   8.131  1.00  0.00    -0.341 OA
ATOM     20  C   UNL     1      23.876  36.814   8.653  1.00  0.00     0.281 C 
ATOM     21  C   UNL     1      24.032  39.231   8.725  1.00  0.00     0.180 C 
ATOM     22  C   UNL     1      23.253  38.099   8.162  1.00  0.00     0.202 C 
BRANCH  18  23
ATOM     23  C   UNL     1      26.801  37.157   9.686  1.00  0.00     0.191 C 
BRANCH  23  24
ATOM     24  O   UNL     1      26.506  37.882  10.839  1.00  0.00    -0.394 OA
ATOM     25  H   UNL     1      26.894  37.353  11.600  1.00  0.00     0.210 HD
ENDBRANCH  23  24
ENDBRANCH  18  23
BRANCH  20  26
ATOM     26  O   UNL     1      23.825  36.689  10.031  1.00  0.00    -0.350 OA
BRANCH  26  27
ATOM     27  C   UNL     1      23.073  35.562  10.370  1.00  0.00     0.169 C 
BRANCH  27  28
ATOM     28  C   UNL     1      23.818  34.862  11.505  1.00  0.00     0.119 C 
BRANCH  28  29
ATOM     29  N   UNL     1      24.624  35.789  12.251  1.00  0.00    -0.092 NA
ATOM     30  N   UNL     1      25.703  35.397  12.744  1.00  0.00     0.001 N 
ATOM     31  N   UNL     1      26.611  34.935  13.460  1.00  0.00    -0.003 NA
ENDBRANCH  28  29
ENDBRANCH  27  28
ENDBRANCH  26  27
ENDBRANCH  20  26
BRANCH  21  32
ATOM     32  O   UNL     1      23.480  39.481  10.010  1.00  0.00    -0.387 OA
ATOM     33  H   UNL     1      23.834  38.862  10.689  1.00  0.00     0.211 HD
ENDBRANCH  21  32
BRANCH  22  34
ATOM     34  O   UNL     1      23.314  38.092   6.765  1.00  0.00    -0.385 OA
ATOM     35  H   UNL     1      24.196  38.349   6.429  1.00  0.00     0.211 HD
ENDBRANCH  22  34
ENDBRANCH  16  17
ENDBRANCH  11  16
BRANCH  13  36
ATOM     36  O   UNL     1      25.075  40.581   5.645  1.00  0.00    -0.385 OA
ATOM     37  H   UNL     1      24.696  41.303   5.118  1.00  0.00     0.211 HD
ENDBRANCH  13  36
BRANCH  14  38
ATOM     38  O   UNL     1      26.635  40.203   3.391  1.00  0.00    -0.387 OA
ATOM     39  H   UNL     1      26.386  39.428   2.839  1.00  0.00     0.211 HD
ENDBRANCH  14  38
BRANCH  15  40
ATOM     40  O   UNL     1      28.714  41.471   4.503  1.00  0.00    -0.387 OA
ATOM     41  H   UNL     1      28.139  42.028   5.078  1.00  0.00     0.211 HD
ENDBRANCH  15  40
ENDBRANCH   9  10
ENDBRANCH   8   9
ENDBRANCH   3   8
BRANCH   3  42
ATOM     42  C   UNL     1      32.936  40.601   8.291  1.00  0.00     0.364 C 
ATOM     43  O   UNL     1      33.147  41.831   8.490  1.00  0.00    -0.246 OA
BRANCH  42  44
ATOM     44  O   UNL     1      34.014  39.807   8.014  1.00  0.00    -0.477 OA
ATOM     45  H   UNL     1      34.822  40.203   7.555  1.00  0.00     0.296 HD
ENDBRANCH  42  44
ENDBRANCH   3  42
BRANCH   6  46
ATOM     46  O   UNL     1      31.624  38.079  11.423  1.00  0.00    -0.391 OA
ATOM     47  H   UNL     1      31.493  37.289  10.862  1.00  0.00     0.211 HD
ENDBRANCH   6  46
BRANCH   7  48
ATOM     48  N   UNL     1      31.948  41.218  12.104  1.00  0.00    -0.348 N 
ATOM     49  C   UNL     1      31.431  41.781  13.302  1.00  0.00     0.217 C 
ATOM     50  H   UNL     1      32.975  41.410  11.907  1.00  0.00     0.163 HD
ATOM     51  C   UNL     1      32.341  42.558  14.170  1.00  0.00     0.114 C 
ATOM     52  O   UNL     1      30.246  41.623  13.616  1.00  0.00    -0.275 OA
ENDBRANCH   7  48
ENDBRANCH   1   2
BRANCH   1  53
ATOM     53  O   UNL     1      28.399  40.139  10.149  1.00  0.00    -0.388 OA
ATOM     54  H   UNL     1      27.563  39.983  10.651  1.00  0.00     0.211 HD
ENDBRANCH   1  53
BRANCH   1  55
ATOM     55  C   UNL     1      28.317  42.564   9.977  1.00  0.00     0.165 C 
BRANCH  55  56
ATOM     56  O   UNL     1      29.236  43.473   9.518  1.00  0.00    -0.388 OA
ATOM     57  H   UNL     1      29.790  43.136   8.786  1.00  0.00     0.211 HD
ENDBRANCH  55  56
BRANCH  55  58
ATOM     58  C   UNL     1      27.520  43.122  11.134  1.00  0.00     0.154 C 
BRANCH  58  59
ATOM     59  N   UNL     1      27.581  42.411  12.354  1.00  0.00    -0.319 N 
ATOM     60  C   UNL     1      26.499  42.024  13.190  1.00  0.00     0.407 C 
ATOM     61  H   UNL     1      28.538  42.099  12.742  1.00  0.00     0.167 HD
ATOM     62  O   UNL     1      25.335  42.290  12.869  1.00  0.00    -0.225 OA
BRANCH  60  63
ATOM     63  O   UNL     1      26.721  41.343  14.376  1.00  0.00    -0.443 OA
BRANCH  63  64
ATOM     64  C   UNL     1      26.561  39.995  14.622  1.00  0.00     0.294 C 
BRANCH  64  65
ATOM     65  C   UNL     1      27.570  39.083  14.063  1.00  0.00     0.120 A 
ATOM     66  C   UNL     1      28.225  38.048  14.720  1.00  0.00     0.138 A 
ATOM     67  N   UNL     1      28.068  39.115  12.809  1.00  0.00    -0.132 NA
ATOM     68  N   UNL     1      29.073  37.519  13.843  1.00  0.00    -0.250 N 
ATOM     69  N   UNL     1      28.969  38.162  12.707  1.00  0.00    -0.067 NA
BRANCH  68  70
ATOM     70  C   UNL     1      29.983  36.390  14.173  1.00  0.00     0.177 C 
BRANCH  70  71
ATOM     71  C   UNL     1      31.223  37.002  14.730  1.00  0.00     0.136 C 
BRANCH  71  72
ATOM     72  O   UNL     1      31.466  38.275  14.185  1.00  0.00    -0.391 OA
ATOM     73  H   UNL     1      31.859  38.889  14.840  1.00  0.00     0.211 HD
ENDBRANCH  71  72
BRANCH  71  74
ATOM     74  C   UNL     1      32.434  36.159  14.652  1.00  0.00     0.038 C 
BRANCH  74  75
ATOM     75  C   UNL     1      32.890  35.342  15.771  1.00  0.00     0.038 C 
BRANCH  75  76
ATOM     76  C   UNL     1      32.119  34.194  16.200  1.00  0.00    -0.048 A 
ATOM     77  C   UNL     1      31.824  33.160  15.316  1.00  0.00     0.004 A 
ATOM     78  C   UNL     1      31.577  34.116  17.483  1.00  0.00     0.004 A 
ATOM     79  C   UNL     1      31.035  32.117  15.701  1.00  0.00     0.000 A 
ATOM     80  C   UNL     1      30.786  33.051  17.840  1.00  0.00     0.000 A 
ATOM     81  C   UNL     1      30.490  32.020  16.959  1.00  0.00     0.000 A 
ENDBRANCH  75  76
ENDBRANCH  74  75
ENDBRANCH  71  74
ENDBRANCH  70  71
ENDBRANCH  68  70
ENDBRANCH  64  65
ENDBRANCH  63  64
ENDBRANCH  60  63
ENDBRANCH  58  59
ENDBRANCH  55  58
ENDBRANCH   1  55
TORSDOF 35
BEGIN_RES LYS A 131
REMARK  4 active torsions:
REMARK  status: ('A' for Active; 'I' for Inactive)
REMARK    1  A    between atoms: CA   and  CB  
REMARK    2  A    between atoms: CB   and  CG  
REMARK    3  A    between atoms: CG   and  CD  
REMARK    4  A    between atoms: CD   and  CE  
ROOT
ATOM      1  CA  LYS A 131      29.867  25.555  16.977  1.00 20.52     0.186 C 
ENDROOT
BRANCH   1   2
ATOM      2  CB  LYS A 131      28.345  25.722  17.026  1.00 20.94     0.034 C 
BRANCH   2   3
ATOM      3  CG  LYS A 131      27.601  24.403  16.888  1.00 22.96     0.005 C 
BRANCH   3   4
ATOM      4  CD  LYS A 131      26.613  24.190  18.001  1.00 24.33     0.041 C 
BRANCH   4   5
ATOM      5  CE  LYS A 131      25.389  23.457  17.463  1.00 26.91     0.338 C 
ATOM      6  NZ  LYS A 131      24.443  24.414  16.842  1.00 27.40     0.618 N 
ENDBRANCH   4   5
ENDBRANCH   3   4
ENDBRANCH   2   3
ENDBRANCH   1   2
END_RES LYS A 131
BEGIN_RES LYS A 135
REMARK  4 active torsions:
REMARK  status: ('A' for Active; 'I' for Inactive)
REMARK    5  A    between atoms: CA   and  CB  
REMARK    6  A    between atoms: CB   and  CG  
REMARK    7  A    between atoms: CG   and  CD  
REMARK    8  A    between atoms: CD   and  CE  
ROOT
ATOM      7  CA  LYS A 135      33.193  34.663   9.290  1.00 25.02     0.186 C 
ENDROOT
BRANCH   7   8
ATOM      8  CB  LYS A 135      32.060  35.360  10.034  1.00 26.63     0.034 C 
BRANCH   8   9
ATOM      9  CG  LYS A 135      30.755  35.361   9.280  1.00 29.45     0.005 C 
BRANCH   9  10
ATOM     10  CD  LYS A 135      29.668  34.671  10.089  1.00 32.00     0.041 C 
BRANCH  10  11
ATOM     11  CE  LYS A 135      28.673  33.988   9.170  1.00 34.25     0.338 C 
ATOM     12  NZ  LYS A 135      28.588  34.687   7.857  1.00 35.99     0.618 N 
ENDBRANCH  10  11
ENDBRANCH   9  10
ENDBRANCH   8   9
ENDBRANCH   7   8
END_RES LYS A 135
