REMARK VINA RESULT:    -4.325      2.768      8.341
REMARK INTER + INTRA:         -22.732
REMARK INTER:                 -11.129
REMARK INTRA:                 -11.604
REMARK UNBOUND:               -11.833
REMARK SMILES CC(=O)N[C@@H]1[C@@H](O)C[C@](OC[C@H]2O[C@@H](O[C@H]3[C@H](O)[C@@H](O)[C@H](OCCN=[N+]=[N-])O[C@@H]3CO)[C@H](O)[C@@H](O)[C@H]2O)(C(=O)O)O[C@H]1C(O)[C@H](O)CNC(=O)OCc1cn(-c2ccccc2C(N)=O)nn1
REMARK SMILES IDX 9 1 8 2 6 3 5 4 42 5 41 6 10 7 11 8 12 9 14 10 13 11 32 12
REMARK SMILES IDX 34 13 36 14 15 15 16 16 29 17 28 18 21 19 17 20 19 21 30 22
REMARK SMILES IDX 31 23 22 25 23 26 24 27 25 28 26 29 27 30 18 31 20 33 33 35
REMARK SMILES IDX 35 37 37 39 38 41 39 42 40 43 7 45 43 47 44 48 45 50 46 51
REMARK SMILES IDX 47 53 48 54 49 55 50 57 51 58 52 59 53 60 54 61 66 62 55 63
REMARK SMILES IDX 65 64 56 65 61 66 57 67 60 68 58 69 59 70 62 71 64 72 63 73
REMARK SMILES IDX 4 76 2 77 1 79 3 80
REMARK H PARENT 31 24 18 32 20 34 33 36 35 38 37 40 40 44 7 46 44 49 46 52
REMARK H PARENT 48 56 63 74 63 75 4 78
REMARK Flexibility Score: inf
ROOT
ATOM      1  C   UNL     1      23.527  30.344  14.746  1.00  0.00     0.272 C 
ATOM      2  C   UNL     1      23.372  30.587  13.218  1.00  0.00     0.113 C 
ATOM      3  C   UNL     1      23.950  31.952  12.974  1.00  0.00     0.145 C 
ATOM      4  C   UNL     1      23.047  32.980  13.529  1.00  0.00     0.142 C 
ATOM      5  C   UNL     1      22.399  32.362  14.781  1.00  0.00     0.178 C 
ATOM      6  O   UNL     1      23.293  31.528  15.425  1.00  0.00    -0.332 OA
ENDROOT
BRANCH   1   7
ATOM      7  O   UNL     1      24.849  29.964  14.883  1.00  0.00    -0.338 OA
BRANCH   7   8
ATOM      8  C   UNL     1      25.203  29.554  16.133  1.00  0.00     0.199 C 
BRANCH   8   9
ATOM      9  C   UNL     1      26.405  30.304  16.680  1.00  0.00     0.179 C 
ATOM     10  C   UNL     1      28.281  31.423  15.867  1.00  0.00     0.282 C 
ATOM     11  O   UNL     1      27.084  30.792  15.565  1.00  0.00    -0.341 OA
ATOM     12  C   UNL     1      28.561  31.613  17.312  1.00  0.00     0.202 C 
ATOM     13  C   UNL     1      27.375  31.943  18.169  1.00  0.00     0.179 C 
ATOM     14  C   UNL     1      26.054  31.468  17.547  1.00  0.00     0.177 C 
BRANCH  10  15
ATOM     15  O   UNL     1      28.269  32.643  15.217  1.00  0.00    -0.341 OA
BRANCH  15  16
ATOM     16  C   UNL     1      29.323  33.467  15.574  1.00  0.00     0.184 C 
ATOM     17  C   UNL     1      28.814  34.891  15.613  1.00  0.00     0.178 C 
ATOM     18  O   UNL     1      29.064  35.573  14.472  1.00  0.00    -0.341 OA
ATOM     19  C   UNL     1      30.371  35.776  14.215  1.00  0.00     0.281 C 
ATOM     20  C   UNL     1      30.367  33.333  14.470  1.00  0.00     0.180 C 
ATOM     21  C   UNL     1      31.198  34.559  14.346  1.00  0.00     0.202 C 
BRANCH  17  22
ATOM     22  C   UNL     1      29.389  35.610  16.803  1.00  0.00     0.191 C 
BRANCH  22  23
ATOM     23  O   UNL     1      28.411  35.879  17.766  1.00  0.00    -0.394 OA
ATOM     24  H   UNL     1      28.092  34.981  18.086  1.00  0.00     0.210 HD
ENDBRANCH  22  23
ENDBRANCH  17  22
BRANCH  19  25
ATOM     25  O   UNL     1      30.917  36.884  14.880  1.00  0.00    -0.350 OA
BRANCH  25  26
ATOM     26  C   UNL     1      30.922  38.036  14.133  1.00  0.00     0.169 C 
BRANCH  26  27
ATOM     27  C   UNL     1      31.101  37.715  12.688  1.00  0.00     0.119 C 
BRANCH  27  28
ATOM     28  N   UNL     1      31.444  38.915  11.966  1.00  0.00    -0.092 NA
ATOM     29  N   UNL     1      30.596  39.736  11.596  1.00  0.00     0.001 N 
ATOM     30  N   UNL     1      29.624  40.491  11.510  1.00  0.00    -0.003 NA
ENDBRANCH  27  28
ENDBRANCH  26  27
ENDBRANCH  25  26
ENDBRANCH  19  25
BRANCH  20  31
ATOM     31  O   UNL     1      31.195  32.245  14.729  1.00  0.00    -0.387 OA
ATOM     32  H   UNL     1      32.069  32.556  15.124  1.00  0.00     0.211 HD
ENDBRANCH  20  31
BRANCH  21  33
ATOM     33  O   UNL     1      31.988  34.419  13.179  1.00  0.00    -0.385 OA
ATOM     34  H   UNL     1      32.047  33.444  12.963  1.00  0.00     0.211 HD
ENDBRANCH  21  33
ENDBRANCH  15  16
ENDBRANCH  10  15
BRANCH  12  35
ATOM     35  O   UNL     1      29.308  30.548  17.858  1.00  0.00    -0.385 OA
ATOM     36  H   UNL     1      30.225  30.648  17.521  1.00  0.00     0.211 HD
ENDBRANCH  12  35
BRANCH  13  37
ATOM     37  O   UNL     1      27.261  33.322  18.346  1.00  0.00    -0.387 OA
ATOM     38  H   UNL     1      26.331  33.645  18.143  1.00  0.00     0.211 HD
ENDBRANCH  13  37
BRANCH  14  39
ATOM     39  O   UNL     1      25.557  32.492  16.721  1.00  0.00    -0.387 OA
ATOM     40  H   UNL     1      24.745  32.256  16.244  1.00  0.00     0.211 HD
ENDBRANCH  14  39
ENDBRANCH   8   9
ENDBRANCH   7   8
ENDBRANCH   1   7
BRANCH   1  41
ATOM     41  C   UNL     1      22.568  29.322  15.173  1.00  0.00     0.364 C 
ATOM     42  O   UNL     1      21.856  29.497  16.221  1.00  0.00    -0.246 OA
BRANCH  41  43
ATOM     43  O   UNL     1      22.420  28.143  14.436  1.00  0.00    -0.477 OA
ATOM     44  H   UNL     1      22.417  28.243  13.424  1.00  0.00     0.296 HD
ENDBRANCH  41  43
ENDBRANCH   1  41
BRANCH   3  45
ATOM     45  O   UNL     1      25.143  32.011  13.738  1.00  0.00    -0.391 OA
ATOM     46  H   UNL     1      25.801  32.576  13.257  1.00  0.00     0.211 HD
ENDBRANCH   3  45
BRANCH   5  47
ATOM     47  C   UNL     1      21.797  33.435  15.642  1.00  0.00     0.176 C 
BRANCH  47  48
ATOM     48  O   UNL     1      20.965  32.781  16.572  1.00  0.00    -0.388 OA
ATOM     49  H   UNL     1      21.506  32.469  17.347  1.00  0.00     0.211 HD
ENDBRANCH  47  48
BRANCH  47  50
ATOM     50  C   UNL     1      22.868  34.122  16.497  1.00  0.00     0.165 C 
BRANCH  50  51
ATOM     51  O   UNL     1      22.886  33.513  17.762  1.00  0.00    -0.388 OA
ATOM     52  H   UNL     1      22.388  34.127  18.362  1.00  0.00     0.211 HD
ENDBRANCH  50  51
BRANCH  50  53
ATOM     53  C   UNL     1      22.609  35.580  16.664  1.00  0.00     0.154 C 
BRANCH  53  54
ATOM     54  N   UNL     1      23.746  36.367  16.267  1.00  0.00    -0.319 N 
ATOM     55  C   UNL     1      25.049  36.202  16.798  1.00  0.00     0.407 C 
ATOM     56  H   UNL     1      23.585  37.114  15.531  1.00  0.00     0.167 HD
ATOM     57  O   UNL     1      25.386  35.370  17.642  1.00  0.00    -0.225 OA
BRANCH  55  58
ATOM     58  O   UNL     1      26.086  37.052  16.343  1.00  0.00    -0.443 OA
BRANCH  58  59
ATOM     59  C   UNL     1      25.792  38.064  15.377  1.00  0.00     0.294 C 
BRANCH  59  60
ATOM     60  C   UNL     1      26.344  37.708  14.058  1.00  0.00     0.121 A 
ATOM     61  C   UNL     1      25.957  36.698  13.210  1.00  0.00     0.144 A 
ATOM     62  N   UNL     1      27.360  38.324  13.429  1.00  0.00    -0.131 NA
ATOM     63  N   UNL     1      26.729  36.717  12.102  1.00  0.00    -0.220 N 
ATOM     64  N   UNL     1      27.581  37.731  12.274  1.00  0.00    -0.062 NA
BRANCH  63  65
ATOM     65  C   UNL     1      26.692  35.864  10.972  1.00  0.00     0.079 A 
ATOM     66  C   UNL     1      25.990  36.266   9.865  1.00  0.00     0.065 A 
ATOM     67  C   UNL     1      27.342  34.646  10.971  1.00  0.00     0.029 A 
ATOM     68  C   UNL     1      25.917  35.468   8.728  1.00  0.00     0.016 A 
ATOM     69  C   UNL     1      27.281  33.830   9.839  1.00  0.00     0.002 A 
ATOM     70  C   UNL     1      26.571  34.253   8.738  1.00  0.00     0.001 A 
BRANCH  66  71
ATOM     71  C   UNL     1      25.309  37.545   9.875  1.00  0.00     0.250 C 
ATOM     72  O   UNL     1      25.909  38.554   9.425  1.00  0.00    -0.269 OA
ATOM     73  N   UNL     1      24.000  37.736  10.363  1.00  0.00    -0.366 N 
ATOM     74  H   UNL     1      23.268  38.107   9.739  1.00  0.00     0.159 HD
ATOM     75  H   UNL     1      23.779  37.505  11.342  1.00  0.00     0.159 HD
ENDBRANCH  66  71
ENDBRANCH  63  65
ENDBRANCH  59  60
ENDBRANCH  58  59
ENDBRANCH  55  58
ENDBRANCH  53  54
ENDBRANCH  50  53
ENDBRANCH  47  50
ENDBRANCH   5  47
BRANCH   4  76
ATOM     76  N   UNL     1      22.008  33.452  12.701  1.00  0.00    -0.348 N 
ATOM     77  C   UNL     1      22.158  34.547  11.813  1.00  0.00     0.217 C 
ATOM     78  H   UNL     1      21.075  32.976  12.738  1.00  0.00     0.163 HD
ATOM     79  C   UNL     1      21.093  35.070  10.930  1.00  0.00     0.114 C 
ATOM     80  O   UNL     1      23.317  35.075  11.820  1.00  0.00    -0.275 OA
ENDBRANCH   4  76
TORSDOF 31
BEGIN_RES LYS A 131
REMARK  4 active torsions:
REMARK  status: ('A' for Active; 'I' for Inactive)
REMARK    1  A    between atoms: CA   and  CB  
REMARK    2  A    between atoms: CB   and  CG  
REMARK    3  A    between atoms: CG   and  CD  
REMARK    4  A    between atoms: CD   and  CE  
ROOT
ATOM      1  CA  LYS A 131      29.867  25.555  16.977  1.00 20.52     0.186 C 
ENDROOT
BRANCH   1   2
ATOM      2  CB  LYS A 131      28.345  25.722  17.026  1.00 20.94     0.034 C 
BRANCH   2   3
ATOM      3  CG  LYS A 131      27.601  24.401  16.898  1.00 22.96     0.005 C 
BRANCH   3   4
ATOM      4  CD  LYS A 131      26.149  24.532  17.264  1.00 24.33     0.041 C 
BRANCH   4   5
ATOM      5  CE  LYS A 131      25.999  25.531  18.406  1.00 26.91     0.338 C 
ATOM      6  NZ  LYS A 131      24.931  26.512  18.101  1.00 27.40     0.618 N 
ENDBRANCH   4   5
ENDBRANCH   3   4
ENDBRANCH   2   3
ENDBRANCH   1   2
END_RES LYS A 131
BEGIN_RES LYS A 135
REMARK  4 active torsions:
REMARK  status: ('A' for Active; 'I' for Inactive)
REMARK    5  A    between atoms: CA   and  CB  
REMARK    6  A    between atoms: CB   and  CG  
REMARK    7  A    between atoms: CG   and  CD  
REMARK    8  A    between atoms: CD   and  CE  
ROOT
ATOM      7  CA  LYS A 135      33.193  34.663   9.290  1.00 25.02     0.186 C 
ENDROOT
BRANCH   7   8
ATOM      8  CB  LYS A 135      32.060  35.360  10.034  1.00 26.63     0.034 C 
BRANCH   8   9
ATOM      9  CG  LYS A 135      30.689  34.883   9.628  1.00 29.45     0.005 C 
BRANCH   9  10
ATOM     10  CD  LYS A 135      30.065  35.837   8.622  1.00 32.00     0.041 C 
BRANCH  10  11
ATOM     11  CE  LYS A 135      29.736  35.109   7.332  1.00 34.25     0.338 C 
ATOM     12  NZ  LYS A 135      28.808  35.910   6.486  1.00 35.99     0.618 N 
ENDBRANCH  10  11
ENDBRANCH   9  10
ENDBRANCH   8   9
ENDBRANCH   7   8
END_RES LYS A 135
