REMARK VINA RESULT:    -4.554      3.675      9.068
REMARK INTER + INTRA:         -22.676
REMARK INTER:                 -11.608
REMARK INTRA:                 -11.068
REMARK UNBOUND:               -11.068
REMARK SMILES CC(=O)N[C@@H]1[C@@H](O)C[C@](OC[C@H]2O[C@@H](O[C@H]3[C@H](O)[C@@H](O)[C@H](OCCN=[N+]=[N-])O[C@@H]3CO)[C@H](O)[C@@H](O)[C@H]2O)(C(=O)O)O[C@H]1C(O)[C@H](O)CNC(=O)OCc1cn(Cc2cc(Br)cc(Br)c2O)nn1
REMARK SMILES IDX 9 1 8 2 6 3 5 4 42 5 41 6 10 7 11 8 12 9 14 10 13 11 32 12
REMARK SMILES IDX 34 13 36 14 15 15 16 16 29 17 28 18 21 19 17 20 19 21 30 22
REMARK SMILES IDX 31 23 22 25 23 26 24 27 25 28 26 29 27 30 18 31 20 33 33 35
REMARK SMILES IDX 35 37 37 39 38 41 39 42 40 43 7 45 43 47 44 48 45 50 46 51
REMARK SMILES IDX 47 53 48 54 49 55 50 57 51 58 52 59 53 60 54 61 67 62 55 63
REMARK SMILES IDX 66 64 56 65 57 66 58 67 64 68 59 69 62 70 60 71 61 72 63 73
REMARK SMILES IDX 65 74 4 76 2 77 1 79 3 80
REMARK H PARENT 31 24 18 32 20 34 33 36 35 38 37 40 40 44 7 46 44 49 46 52
REMARK H PARENT 48 56 65 75 4 78
REMARK Flexibility Score: inf
ROOT
ATOM      1  C   UNL     1      19.872  35.811   9.078  1.00  0.00     0.272 C 
ATOM      2  C   UNL     1      19.248  36.906  10.068  1.00  0.00     0.113 C 
ATOM      3  C   UNL     1      18.194  36.295  10.897  1.00  0.00     0.145 C 
ATOM      4  C   UNL     1      18.737  35.100  11.636  1.00  0.00     0.142 C 
ATOM      5  C   UNL     1      19.983  34.500  11.060  1.00  0.00     0.178 C 
ATOM      6  O   UNL     1      20.405  34.839   9.847  1.00  0.00    -0.332 OA
ENDROOT
BRANCH   1   7
ATOM      7  O   UNL     1      20.839  36.560   8.498  1.00  0.00    -0.338 OA
BRANCH   7   8
ATOM      8  C   UNL     1      22.058  36.760   8.957  1.00  0.00     0.199 C 
BRANCH   8   9
ATOM      9  C   UNL     1      22.635  38.127   9.085  1.00  0.00     0.179 C 
ATOM     10  C   UNL     1      24.583  37.554  10.227  1.00  0.00     0.282 C 
ATOM     11  O   UNL     1      23.439  38.280  10.162  1.00  0.00    -0.341 OA
ATOM     12  C   UNL     1      25.312  37.506   8.924  1.00  0.00     0.202 C 
ATOM     13  C   UNL     1      24.825  38.589   8.000  1.00  0.00     0.179 C 
ATOM     14  C   UNL     1      23.338  38.569   7.800  1.00  0.00     0.177 C 
BRANCH  10  15
ATOM     15  O   UNL     1      24.348  36.287  10.785  1.00  0.00    -0.341 OA
BRANCH  15  16
ATOM     16  C   UNL     1      25.024  36.052  11.960  1.00  0.00     0.184 C 
ATOM     17  C   UNL     1      25.584  34.649  12.009  1.00  0.00     0.178 C 
ATOM     18  O   UNL     1      26.043  34.266  13.237  1.00  0.00    -0.341 OA
ATOM     19  C   UNL     1      26.217  35.273  14.169  1.00  0.00     0.281 C 
ATOM     20  C   UNL     1      24.082  36.121  13.167  1.00  0.00     0.180 C 
ATOM     21  C   UNL     1      24.979  36.100  14.382  1.00  0.00     0.202 C 
BRANCH  17  22
ATOM     22  C   UNL     1      26.644  34.408  10.954  1.00  0.00     0.191 C 
BRANCH  22  23
ATOM     23  O   UNL     1      27.493  35.487  10.834  1.00  0.00    -0.394 OA
ATOM     24  H   UNL     1      27.068  36.152  10.244  1.00  0.00     0.210 HD
ENDBRANCH  22  23
ENDBRANCH  17  22
BRANCH  19  25
ATOM     25  O   UNL     1      27.315  36.036  13.803  1.00  0.00    -0.350 OA
BRANCH  25  26
ATOM     26  C   UNL     1      28.467  35.543  14.354  1.00  0.00     0.169 C 
BRANCH  26  27
ATOM     27  C   UNL     1      29.722  35.811  13.595  1.00  0.00     0.119 C 
BRANCH  27  28
ATOM     28  N   UNL     1      29.528  36.723  12.487  1.00  0.00    -0.092 NA
ATOM     29  N   UNL     1      30.170  37.747  12.356  1.00  0.00     0.001 N 
ATOM     30  N   UNL     1      30.895  38.654  11.954  1.00  0.00    -0.003 NA
ENDBRANCH  27  28
ENDBRANCH  26  27
ENDBRANCH  25  26
ENDBRANCH  19  25
BRANCH  20  31
ATOM     31  O   UNL     1      23.230  37.191  13.139  1.00  0.00    -0.387 OA
ATOM     32  H   UNL     1      22.727  37.124  12.265  1.00  0.00     0.211 HD
ENDBRANCH  20  31
BRANCH  21  33
ATOM     33  O   UNL     1      24.306  35.640  15.508  1.00  0.00    -0.385 OA
ATOM     34  H   UNL     1      23.507  36.170  15.672  1.00  0.00     0.211 HD
ENDBRANCH  21  33
ENDBRANCH  15  16
ENDBRANCH  10  15
BRANCH  12  35
ATOM     35  O   UNL     1      26.689  37.690   9.200  1.00  0.00    -0.385 OA
ATOM     36  H   UNL     1      26.811  38.669   9.226  1.00  0.00     0.211 HD
ENDBRANCH  12  35
BRANCH  13  37
ATOM     37  O   UNL     1      25.496  38.574   6.778  1.00  0.00    -0.387 OA
ATOM     38  H   UNL     1      26.414  38.260   6.977  1.00  0.00     0.211 HD
ENDBRANCH  13  37
BRANCH  14  39
ATOM     39  O   UNL     1      23.016  37.694   6.779  1.00  0.00    -0.387 OA
ATOM     40  H   UNL     1      23.508  36.836   6.881  1.00  0.00     0.211 HD
ENDBRANCH  14  39
ENDBRANCH   8   9
ENDBRANCH   7   8
ENDBRANCH   1   7
BRANCH   1  41
ATOM     41  C   UNL     1      18.756  35.373   8.246  1.00  0.00     0.364 C 
ATOM     42  O   UNL     1      18.468  34.123   8.126  1.00  0.00    -0.246 OA
BRANCH  41  43
ATOM     43  O   UNL     1      17.929  36.210   7.544  1.00  0.00    -0.477 OA
ATOM     44  H   UNL     1      17.049  36.518   7.931  1.00  0.00     0.296 HD
ENDBRANCH  41  43
ENDBRANCH   1  41
BRANCH   3  45
ATOM     45  O   UNL     1      17.698  37.267  11.786  1.00  0.00    -0.391 OA
ATOM     46  H   UNL     1      18.204  38.104  11.679  1.00  0.00     0.211 HD
ENDBRANCH   3  45
BRANCH   5  47
ATOM     47  C   UNL     1      21.053  34.549  12.133  1.00  0.00     0.176 C 
BRANCH  47  48
ATOM     48  O   UNL     1      20.626  35.406  13.179  1.00  0.00    -0.388 OA
ATOM     49  H   UNL     1      21.210  36.187  13.248  1.00  0.00     0.211 HD
ENDBRANCH  47  48
BRANCH  47  50
ATOM     50  C   UNL     1      21.516  33.247  12.644  1.00  0.00     0.165 C 
BRANCH  50  51
ATOM     51  O   UNL     1      20.972  32.183  11.959  1.00  0.00    -0.388 OA
ATOM     52  H   UNL     1      20.648  31.456  12.548  1.00  0.00     0.211 HD
ENDBRANCH  50  51
BRANCH  50  53
ATOM     53  C   UNL     1      21.459  33.010  14.114  1.00  0.00     0.154 C 
BRANCH  53  54
ATOM     54  N   UNL     1      22.619  33.348  14.864  1.00  0.00    -0.319 N 
ATOM     55  C   UNL     1      23.166  32.342  15.731  1.00  0.00     0.407 C 
ATOM     56  H   UNL     1      23.082  34.271  14.846  1.00  0.00     0.167 HD
ATOM     57  O   UNL     1      22.593  31.200  15.788  1.00  0.00    -0.225 OA
BRANCH  55  58
ATOM     58  O   UNL     1      24.280  32.611  16.474  1.00  0.00    -0.443 OA
BRANCH  58  59
ATOM     59  C   UNL     1      25.018  31.612  17.130  1.00  0.00     0.294 C 
BRANCH  59  60
ATOM     60  C   UNL     1      26.440  31.663  16.723  1.00  0.00     0.120 A 
ATOM     61  C   UNL     1      27.564  31.168  17.372  1.00  0.00     0.138 A 
ATOM     62  N   UNL     1      26.926  32.213  15.598  1.00  0.00    -0.132 NA
ATOM     63  N   UNL     1      28.665  31.424  16.652  1.00  0.00    -0.248 N 
ATOM     64  N   UNL     1      28.236  32.069  15.564  1.00  0.00    -0.067 NA
BRANCH  63  65
ATOM     65  C   UNL     1      30.069  31.101  16.931  1.00  0.00     0.185 C 
BRANCH  65  66
ATOM     66  C   UNL     1      30.811  32.379  17.016  1.00  0.00     0.018 A 
ATOM     67  C   UNL     1      30.833  33.058  18.218  1.00  0.00     0.025 A 
ATOM     68  C   UNL     1      31.487  32.921  15.928  1.00  0.00     0.134 A 
ATOM     69  C   UNL     1      31.510  34.259  18.369  1.00  0.00     0.019 A 
ATOM     70  C   UNL     1      32.172  34.119  16.047  1.00  0.00     0.061 A 
ATOM     71  Br  UNL     1      31.512  35.160  20.046  1.00  0.00    -0.051 Br
ATOM     72  C   UNL     1      32.170  34.773  17.279  1.00  0.00     0.035 A 
ATOM     73  Br  UNL     1      33.084  34.833  14.556  1.00  0.00    -0.047 Br
BRANCH  68  74
ATOM     74  O   UNL     1      31.425  32.194  14.755  1.00  0.00    -0.506 OA
ATOM     75  H   UNL     1      31.634  31.209  14.771  1.00  0.00     0.293 HD
ENDBRANCH  68  74
ENDBRANCH  65  66
ENDBRANCH  63  65
ENDBRANCH  59  60
ENDBRANCH  58  59
ENDBRANCH  55  58
ENDBRANCH  53  54
ENDBRANCH  50  53
ENDBRANCH  47  50
ENDBRANCH   5  47
BRANCH   4  76
ATOM     76  N   UNL     1      17.673  34.148  11.874  1.00  0.00    -0.348 N 
ATOM     77  C   UNL     1      17.413  33.723  13.202  1.00  0.00     0.217 C 
ATOM     78  H   UNL     1      17.081  33.750  11.108  1.00  0.00     0.163 HD
ATOM     79  C   UNL     1      16.313  32.739  13.447  1.00  0.00     0.114 C 
ATOM     80  O   UNL     1      18.113  34.181  14.166  1.00  0.00    -0.275 OA
ENDBRANCH   4  76
TORSDOF 32
BEGIN_RES LYS A 131
REMARK  4 active torsions:
REMARK  status: ('A' for Active; 'I' for Inactive)
REMARK    1  A    between atoms: CA   and  CB  
REMARK    2  A    between atoms: CB   and  CG  
REMARK    3  A    between atoms: CG   and  CD  
REMARK    4  A    between atoms: CD   and  CE  
ROOT
ATOM      1  CA  LYS A 131      29.867  25.555  16.977  1.00 20.52     0.186 C 
ENDROOT
BRANCH   1   2
ATOM      2  CB  LYS A 131      28.345  25.722  17.026  1.00 20.94     0.034 C 
BRANCH   2   3
ATOM      3  CG  LYS A 131      27.599  24.431  16.726  1.00 22.96     0.005 C 
BRANCH   3   4
ATOM      4  CD  LYS A 131      26.960  23.848  17.956  1.00 24.33     0.041 C 
BRANCH   4   5
ATOM      5  CE  LYS A 131      25.607  23.246  17.589  1.00 26.91     0.338 C 
ATOM      6  NZ  LYS A 131      24.764  24.248  16.895  1.00 27.40     0.618 N 
ENDBRANCH   4   5
ENDBRANCH   3   4
ENDBRANCH   2   3
ENDBRANCH   1   2
END_RES LYS A 131
BEGIN_RES LYS A 135
REMARK  4 active torsions:
REMARK  status: ('A' for Active; 'I' for Inactive)
REMARK    5  A    between atoms: CA   and  CB  
REMARK    6  A    between atoms: CB   and  CG  
REMARK    7  A    between atoms: CG   and  CD  
REMARK    8  A    between atoms: CD   and  CE  
ROOT
ATOM      7  CA  LYS A 135      33.193  34.663   9.290  1.00 25.02     0.186 C 
ENDROOT
BRANCH   7   8
ATOM      8  CB  LYS A 135      32.060  35.360  10.034  1.00 26.63     0.034 C 
BRANCH   8   9
ATOM      9  CG  LYS A 135      30.708  34.742   9.789  1.00 29.45     0.005 C 
BRANCH   9  10
ATOM     10  CD  LYS A 135      30.491  34.498   8.303  1.00 32.00     0.041 C 
BRANCH  10  11
ATOM     11  CE  LYS A 135      29.047  34.770   7.924  1.00 34.25     0.338 C 
ATOM     12  NZ  LYS A 135      28.964  35.628   6.710  1.00 35.99     0.618 N 
ENDBRANCH  10  11
ENDBRANCH   9  10
ENDBRANCH   8   9
ENDBRANCH   7   8
END_RES LYS A 135
