REMARK VINA RESULT:    -4.044      3.006      7.205
REMARK INTER + INTRA:         -21.130
REMARK INTER:                  -9.101
REMARK INTRA:                 -12.030
REMARK UNBOUND:               -10.939
REMARK SMILES CC(=O)N[C@@H]1[C@@H](O)C[C@](OC[C@H]2O[C@@H](O[C@H]3[C@H](O)[C@@H](O)[C@H](OCCN=[N+]=[N-])O[C@@H]3CO)[C@H](O)[C@@H](O)[C@H]2O)(C(=O)O)O[C@H]1C(O)[C@H](O)CNC(=O)OCc1cn(Cc2ccsc2)nn1
REMARK SMILES IDX 9 1 8 2 6 3 5 4 42 5 41 6 10 7 11 8 12 9 14 10 13 11 32 12
REMARK SMILES IDX 34 13 36 14 15 15 16 16 29 17 28 18 21 19 17 20 19 21 30 22
REMARK SMILES IDX 31 23 22 25 23 26 24 27 25 28 26 29 27 30 18 31 20 33 33 35
REMARK SMILES IDX 35 37 37 39 38 41 39 42 40 43 7 45 43 47 44 48 45 50 46 51
REMARK SMILES IDX 47 53 48 54 49 55 50 57 51 58 52 59 53 60 54 61 63 62 55 63
REMARK SMILES IDX 62 64 56 65 57 66 58 67 61 68 59 69 60 70 4 71 2 72 1 74
REMARK SMILES IDX 3 75
REMARK H PARENT 31 24 18 32 20 34 33 36 35 38 37 40 40 44 7 46 44 49 46 52
REMARK H PARENT 48 56 4 73
REMARK Flexibility Score: inf
ROOT
ATOM      1  C   UNL     1      29.907  36.807  17.617  1.00  0.00     0.272 C 
ATOM      2  C   UNL     1      28.418  36.641  17.673  1.00  0.00     0.113 C 
ATOM      3  C   UNL     1      27.641  37.582  16.793  1.00  0.00     0.145 C 
ATOM      4  C   UNL     1      28.238  37.752  15.450  1.00  0.00     0.142 C 
ATOM      5  C   UNL     1      29.739  37.544  15.392  1.00  0.00     0.178 C 
ATOM      6  O   UNL     1      30.243  36.606  16.221  1.00  0.00    -0.332 OA
ENDROOT
BRANCH   1   7
ATOM      7  O   UNL     1      30.509  35.746  18.194  1.00  0.00    -0.338 OA
BRANCH   7   8
ATOM      8  C   UNL     1      29.917  34.618  18.543  1.00  0.00     0.199 C 
BRANCH   8   9
ATOM      9  C   UNL     1      29.855  33.401  17.717  1.00  0.00     0.179 C 
ATOM     10  C   UNL     1      28.439  32.504  16.181  1.00  0.00     0.282 C 
ATOM     11  O   UNL     1      28.996  33.733  16.603  1.00  0.00    -0.341 OA
ATOM     12  C   UNL     1      29.463  31.440  15.987  1.00  0.00     0.202 C 
ATOM     13  C   UNL     1      30.885  31.854  16.114  1.00  0.00     0.179 C 
ATOM     14  C   UNL     1      31.146  33.036  17.003  1.00  0.00     0.177 C 
BRANCH  10  15
ATOM     15  O   UNL     1      27.679  32.750  15.065  1.00  0.00    -0.341 OA
BRANCH  15  16
ATOM     16  C   UNL     1      26.475  33.421  15.336  1.00  0.00     0.184 C 
ATOM     17  C   UNL     1      25.524  32.574  16.105  1.00  0.00     0.178 C 
ATOM     18  O   UNL     1      24.576  31.896  15.402  1.00  0.00    -0.341 OA
ATOM     19  C   UNL     1      24.677  32.012  14.005  1.00  0.00     0.281 C 
ATOM     20  C   UNL     1      25.916  34.084  14.117  1.00  0.00     0.180 C 
ATOM     21  C   UNL     1      24.562  33.483  13.713  1.00  0.00     0.202 C 
BRANCH  17  22
ATOM     22  C   UNL     1      24.834  33.338  17.224  1.00  0.00     0.191 C 
BRANCH  22  23
ATOM     23  O   UNL     1      25.748  34.284  17.686  1.00  0.00    -0.394 OA
ATOM     24  H   UNL     1      26.694  33.983  17.545  1.00  0.00     0.210 HD
ENDBRANCH  22  23
ENDBRANCH  17  22
BRANCH  19  25
ATOM     25  O   UNL     1      23.699  31.225  13.459  1.00  0.00    -0.350 OA
BRANCH  25  26
ATOM     26  C   UNL     1      24.171  30.081  12.846  1.00  0.00     0.169 C 
BRANCH  26  27
ATOM     27  C   UNL     1      23.226  28.925  12.809  1.00  0.00     0.119 C 
BRANCH  27  28
ATOM     28  N   UNL     1      21.864  29.362  12.968  1.00  0.00    -0.092 NA
ATOM     29  N   UNL     1      21.066  28.595  13.528  1.00  0.00     0.001 N 
ATOM     30  N   UNL     1      20.103  28.105  14.118  1.00  0.00    -0.003 NA
ENDBRANCH  27  28
ENDBRANCH  26  27
ENDBRANCH  25  26
ENDBRANCH  19  25
BRANCH  20  31
ATOM     31  O   UNL     1      25.839  35.457  14.199  1.00  0.00    -0.387 OA
ATOM     32  H   UNL     1      25.270  35.741  14.944  1.00  0.00     0.211 HD
ENDBRANCH  20  31
BRANCH  21  33
ATOM     33  O   UNL     1      24.240  33.742  12.406  1.00  0.00    -0.385 OA
ATOM     34  H   UNL     1      24.879  33.327  11.764  1.00  0.00     0.211 HD
ENDBRANCH  21  33
ENDBRANCH  15  16
ENDBRANCH  10  15
BRANCH  12  35
ATOM     35  O   UNL     1      29.179  30.297  16.779  1.00  0.00    -0.385 OA
ATOM     36  H   UNL     1      28.395  30.480  17.360  1.00  0.00     0.211 HD
ENDBRANCH  12  35
BRANCH  13  37
ATOM     37  O   UNL     1      31.375  32.189  14.836  1.00  0.00    -0.387 OA
ATOM     38  H   UNL     1      32.338  31.987  14.814  1.00  0.00     0.211 HD
ENDBRANCH  13  37
BRANCH  14  39
ATOM     39  O   UNL     1      31.460  34.178  16.225  1.00  0.00    -0.387 OA
ATOM     40  H   UNL     1      31.831  33.800  15.369  1.00  0.00     0.211 HD
ENDBRANCH  14  39
ENDBRANCH   8   9
ENDBRANCH   7   8
ENDBRANCH   1   7
BRANCH   1  41
ATOM     41  C   UNL     1      30.392  38.157  17.906  1.00  0.00     0.364 C 
ATOM     42  O   UNL     1      31.524  38.560  17.577  1.00  0.00    -0.246 OA
BRANCH  41  43
ATOM     43  O   UNL     1      29.603  39.104  18.584  1.00  0.00    -0.477 OA
ATOM     44  H   UNL     1      29.803  39.357  19.542  1.00  0.00     0.296 HD
ENDBRANCH  41  43
ENDBRANCH   1  41
BRANCH   3  45
ATOM     45  O   UNL     1      26.378  36.949  16.633  1.00  0.00    -0.391 OA
ATOM     46  H   UNL     1      26.050  37.078  15.699  1.00  0.00     0.211 HD
ENDBRANCH   3  45
BRANCH   5  47
ATOM     47  C   UNL     1      30.092  37.053  13.966  1.00  0.00     0.176 C 
BRANCH  47  48
ATOM     48  O   UNL     1      29.895  38.099  13.068  1.00  0.00    -0.388 OA
ATOM     49  H   UNL     1      30.756  38.379  12.683  1.00  0.00     0.211 HD
ENDBRANCH  47  48
BRANCH  47  50
ATOM     50  C   UNL     1      29.153  35.954  13.618  1.00  0.00     0.165 C 
BRANCH  50  51
ATOM     51  O   UNL     1      29.687  34.743  14.056  1.00  0.00    -0.388 OA
ATOM     52  H   UNL     1      30.336  34.885  14.788  1.00  0.00     0.211 HD
ENDBRANCH  50  51
BRANCH  50  53
ATOM     53  C   UNL     1      28.859  35.821  12.147  1.00  0.00     0.154 C 
BRANCH  53  54
ATOM     54  N   UNL     1      27.623  36.431  11.758  1.00  0.00    -0.319 N 
ATOM     55  C   UNL     1      27.488  37.473  10.833  1.00  0.00     0.407 C 
ATOM     56  H   UNL     1      26.734  36.060  12.211  1.00  0.00     0.167 HD
ATOM     57  O   UNL     1      28.510  37.933  10.280  1.00  0.00    -0.225 OA
BRANCH  55  58
ATOM     58  O   UNL     1      26.234  37.970  10.549  1.00  0.00    -0.443 OA
BRANCH  58  59
ATOM     59  C   UNL     1      25.557  37.758   9.344  1.00  0.00     0.294 C 
BRANCH  59  60
ATOM     60  C   UNL     1      24.406  36.863   9.584  1.00  0.00     0.120 A 
ATOM     61  C   UNL     1      23.089  37.184   9.487  1.00  0.00     0.138 A 
ATOM     62  N   UNL     1      24.493  35.573   9.939  1.00  0.00    -0.132 NA
ATOM     63  N   UNL     1      22.392  36.074   9.787  1.00  0.00    -0.248 N 
ATOM     64  N   UNL     1      23.246  35.109  10.058  1.00  0.00    -0.067 NA
BRANCH  63  65
ATOM     65  C   UNL     1      20.955  35.976   9.803  1.00  0.00     0.182 C 
BRANCH  65  66
ATOM     66  C   UNL     1      20.519  35.455  11.178  1.00  0.00    -0.016 A 
ATOM     67  C   UNL     1      20.002  34.259  11.378  1.00  0.00     0.017 A 
ATOM     68  C   UNL     1      20.688  36.310  12.266  1.00  0.00     0.070 A 
ATOM     69  C   UNL     1      19.627  33.839  12.641  1.00  0.00     0.065 A 
ATOM     70  S   UNL     1      20.062  35.316  13.634  1.00  0.00    -0.152 S 
ENDBRANCH  65  66
ENDBRANCH  63  65
ENDBRANCH  59  60
ENDBRANCH  58  59
ENDBRANCH  55  58
ENDBRANCH  53  54
ENDBRANCH  50  53
ENDBRANCH  47  50
ENDBRANCH   5  47
BRANCH   4  71
ATOM     71  N   UNL     1      27.953  39.005  14.819  1.00  0.00    -0.348 N 
ATOM     72  C   UNL     1      26.809  39.212  14.004  1.00  0.00     0.217 C 
ATOM     73  H   UNL     1      28.598  39.815  14.950  1.00  0.00     0.163 HD
ATOM     74  C   UNL     1      26.501  40.516  13.341  1.00  0.00     0.114 C 
ATOM     75  O   UNL     1      26.049  38.210  13.867  1.00  0.00    -0.275 OA
ENDBRANCH   4  71
TORSDOF 31
BEGIN_RES LYS A 131
REMARK  4 active torsions:
REMARK  status: ('A' for Active; 'I' for Inactive)
REMARK    1  A    between atoms: CA   and  CB  
REMARK    2  A    between atoms: CB   and  CG  
REMARK    3  A    between atoms: CG   and  CD  
REMARK    4  A    between atoms: CD   and  CE  
ROOT
ATOM      1  CA  LYS A 131      29.867  25.555  16.977  1.00 20.52     0.186 C 
ENDROOT
BRANCH   1   2
ATOM      2  CB  LYS A 131      28.345  25.722  17.026  1.00 20.94     0.034 C 
BRANCH   2   3
ATOM      3  CG  LYS A 131      27.601  24.401  16.899  1.00 22.96     0.005 C 
BRANCH   3   4
ATOM      4  CD  LYS A 131      26.522  24.257  17.935  1.00 24.33     0.041 C 
BRANCH   4   5
ATOM      5  CE  LYS A 131      25.179  24.038  17.245  1.00 26.91     0.338 C 
ATOM      6  NZ  LYS A 131      24.378  25.284  17.260  1.00 27.40     0.618 N 
ENDBRANCH   4   5
ENDBRANCH   3   4
ENDBRANCH   2   3
ENDBRANCH   1   2
END_RES LYS A 131
BEGIN_RES LYS A 135
REMARK  4 active torsions:
REMARK  status: ('A' for Active; 'I' for Inactive)
REMARK    5  A    between atoms: CA   and  CB  
REMARK    6  A    between atoms: CB   and  CG  
REMARK    7  A    between atoms: CG   and  CD  
REMARK    8  A    between atoms: CD   and  CE  
ROOT
ATOM      7  CA  LYS A 135      33.193  34.663   9.290  1.00 25.02     0.186 C 
ENDROOT
BRANCH   7   8
ATOM      8  CB  LYS A 135      32.060  35.360  10.034  1.00 26.63     0.034 C 
BRANCH   8   9
ATOM      9  CG  LYS A 135      30.823  35.560   9.197  1.00 29.45     0.005 C 
BRANCH   9  10
ATOM     10  CD  LYS A 135      30.103  34.238   8.978  1.00 32.00     0.041 C 
BRANCH  10  11
ATOM     11  CE  LYS A 135      28.664  34.478   8.565  1.00 34.25     0.338 C 
ATOM     12  NZ  LYS A 135      27.722  33.728   9.442  1.00 35.99     0.618 N 
ENDBRANCH  10  11
ENDBRANCH   9  10
ENDBRANCH   8   9
ENDBRANCH   7   8
END_RES LYS A 135
