REMARK VINA RESULT:    -4.208      4.700      9.583
REMARK INTER + INTRA:         -22.427
REMARK INTER:                 -12.635
REMARK INTRA:                  -9.792
REMARK UNBOUND:               -12.070
REMARK SMILES CC(=O)N[C@@H]1[C@@H](O)C[C@](OC[C@H]2O[C@@H](O[C@H]3[C@H](O)[C@@H](O)[C@H](OCCN=[N+]=[N-])O[C@@H]3CO)[C@H](O)[C@@H](O)[C@H]2O)(C(=O)O)O[C@H]1C(O)[C@H](O)CNC(=O)OCc1cn(-c2ccccc2I)nn1
REMARK SMILES IDX 9 1 8 2 6 3 5 4 42 5 41 6 10 7 11 8 12 9 14 10 13 11 32 12
REMARK SMILES IDX 34 13 36 14 15 15 16 16 29 17 28 18 21 19 17 20 19 21 30 22
REMARK SMILES IDX 31 23 22 25 23 26 24 27 25 28 26 29 27 30 18 31 20 33 33 35
REMARK SMILES IDX 35 37 37 39 38 41 39 42 40 43 7 45 43 47 44 48 45 50 46 51
REMARK SMILES IDX 47 53 48 54 49 55 50 57 51 58 52 59 53 60 54 61 64 62 55 63
REMARK SMILES IDX 63 64 56 65 57 66 61 67 58 68 60 69 62 70 59 71 4 72 2 73
REMARK SMILES IDX 1 75 3 76
REMARK H PARENT 31 24 18 32 20 34 33 36 35 38 37 40 40 44 7 46 44 49 46 52
REMARK H PARENT 48 56 4 74
REMARK Flexibility Score: inf
ROOT
ATOM      1  C   UNL     1      29.185  31.800  15.878  1.00  0.00     0.272 C 
ATOM      2  C   UNL     1      28.687  30.422  15.546  1.00  0.00     0.113 C 
ATOM      3  C   UNL     1      27.207  30.257  15.930  1.00  0.00     0.145 C 
ATOM      4  C   UNL     1      27.183  30.397  17.480  1.00  0.00     0.142 C 
ATOM      5  C   UNL     1      27.909  31.659  17.854  1.00  0.00     0.178 C 
ATOM      6  O   UNL     1      28.146  32.383  16.679  1.00  0.00    -0.332 OA
ENDROOT
BRANCH   1   7
ATOM      7  O   UNL     1      29.321  32.693  14.862  1.00  0.00    -0.338 OA
BRANCH   7   8
ATOM      8  C   UNL     1      29.048  33.963  14.852  1.00  0.00     0.199 C 
BRANCH   8   9
ATOM      9  C   UNL     1      29.539  34.859  13.786  1.00  0.00     0.179 C 
ATOM     10  C   UNL     1      30.620  36.667  14.668  1.00  0.00     0.282 C 
ATOM     11  O   UNL     1      29.521  36.195  14.005  1.00  0.00    -0.341 OA
ATOM     12  C   UNL     1      31.823  36.740  13.736  1.00  0.00     0.202 C 
ATOM     13  C   UNL     1      31.676  35.611  12.690  1.00  0.00     0.179 C 
ATOM     14  C   UNL     1      30.984  34.446  13.370  1.00  0.00     0.177 C 
BRANCH  10  15
ATOM     15  O   UNL     1      30.866  36.208  15.923  1.00  0.00    -0.341 OA
BRANCH  15  16
ATOM     16  C   UNL     1      30.936  37.160  16.914  1.00  0.00     0.184 C 
ATOM     17  C   UNL     1      32.060  36.996  17.903  1.00  0.00     0.178 C 
ATOM     18  O   UNL     1      31.744  37.628  19.103  1.00  0.00    -0.341 OA
ATOM     19  C   UNL     1      30.885  38.723  18.954  1.00  0.00     0.281 C 
ATOM     20  C   UNL     1      29.673  36.968  17.782  1.00  0.00     0.180 C 
ATOM     21  C   UNL     1      29.510  38.295  18.512  1.00  0.00     0.202 C 
BRANCH  17  22
ATOM     22  C   UNL     1      33.413  37.372  17.393  1.00  0.00     0.191 C 
BRANCH  22  23
ATOM     23  O   UNL     1      33.220  38.322  16.383  1.00  0.00    -0.394 OA
ATOM     24  H   UNL     1      34.110  38.699  16.147  1.00  0.00     0.210 HD
ENDBRANCH  22  23
ENDBRANCH  17  22
BRANCH  19  25
ATOM     25  O   UNL     1      31.426  39.726  18.210  1.00  0.00    -0.350 OA
BRANCH  25  26
ATOM     26  C   UNL     1      30.497  40.603  17.743  1.00  0.00     0.169 C 
BRANCH  26  27
ATOM     27  C   UNL     1      30.697  41.141  16.362  1.00  0.00     0.119 C 
BRANCH  27  28
ATOM     28  N   UNL     1      30.275  40.297  15.280  1.00  0.00    -0.092 NA
ATOM     29  N   UNL     1      29.121  39.836  15.352  1.00  0.00     0.001 N 
ATOM     30  N   UNL     1      28.059  39.219  15.256  1.00  0.00    -0.003 NA
ENDBRANCH  27  28
ENDBRANCH  26  27
ENDBRANCH  25  26
ENDBRANCH  19  25
BRANCH  20  31
ATOM     31  O   UNL     1      28.575  36.684  16.993  1.00  0.00    -0.387 OA
ATOM     32  H   UNL     1      27.937  37.438  17.107  1.00  0.00     0.211 HD
ENDBRANCH  20  31
BRANCH  21  33
ATOM     33  O   UNL     1      28.603  38.179  19.563  1.00  0.00    -0.385 OA
ATOM     34  H   UNL     1      28.005  38.995  19.548  1.00  0.00     0.211 HD
ENDBRANCH  21  33
ENDBRANCH  15  16
ENDBRANCH  10  15
BRANCH  12  35
ATOM     35  O   UNL     1      31.866  37.918  13.003  1.00  0.00    -0.385 OA
ATOM     36  H   UNL     1      32.315  37.703  12.144  1.00  0.00     0.211 HD
ENDBRANCH  12  35
BRANCH  13  37
ATOM     37  O   UNL     1      32.851  35.245  12.112  1.00  0.00    -0.387 OA
ATOM     38  H   UNL     1      33.494  35.993  11.920  1.00  0.00     0.211 HD
ENDBRANCH  13  37
BRANCH  14  39
ATOM     39  O   UNL     1      31.647  34.155  14.550  1.00  0.00    -0.387 OA
ATOM     40  H   UNL     1      30.989  33.805  15.229  1.00  0.00     0.211 HD
ENDBRANCH  14  39
ENDBRANCH   8   9
ENDBRANCH   7   8
ENDBRANCH   1   7
BRANCH   1  41
ATOM     41  C   UNL     1      30.396  31.712  16.714  1.00  0.00     0.364 C 
ATOM     42  O   UNL     1      31.187  32.648  16.926  1.00  0.00    -0.246 OA
BRANCH  41  43
ATOM     43  O   UNL     1      30.742  30.499  17.348  1.00  0.00    -0.477 OA
ATOM     44  H   UNL     1      30.849  30.485  18.373  1.00  0.00     0.296 HD
ENDBRANCH  41  43
ENDBRANCH   1  41
BRANCH   3  45
ATOM     45  O   UNL     1      26.402  31.208  15.342  1.00  0.00    -0.391 OA
ATOM     46  H   UNL     1      25.459  31.066  15.594  1.00  0.00     0.211 HD
ENDBRANCH   3  45
BRANCH   5  47
ATOM     47  C   UNL     1      26.945  32.590  18.637  1.00  0.00     0.176 C 
BRANCH  47  48
ATOM     48  O   UNL     1      25.628  32.027  18.424  1.00  0.00    -0.388 OA
ATOM     49  H   UNL     1      25.047  32.820  18.214  1.00  0.00     0.211 HD
ENDBRANCH  47  48
BRANCH  47  50
ATOM     50  C   UNL     1      26.818  33.935  17.988  1.00  0.00     0.165 C 
BRANCH  50  51
ATOM     51  O   UNL     1      27.161  34.937  18.934  1.00  0.00    -0.388 OA
ATOM     52  H   UNL     1      27.897  34.631  19.521  1.00  0.00     0.211 HD
ENDBRANCH  50  51
BRANCH  50  53
ATOM     53  C   UNL     1      25.540  34.304  17.366  1.00  0.00     0.154 C 
BRANCH  53  54
ATOM     54  N   UNL     1      25.426  34.024  15.946  1.00  0.00    -0.319 N 
ATOM     55  C   UNL     1      25.741  35.056  15.012  1.00  0.00     0.407 C 
ATOM     56  H   UNL     1      25.126  33.110  15.555  1.00  0.00     0.167 HD
ATOM     57  O   UNL     1      26.105  36.197  15.449  1.00  0.00    -0.225 OA
BRANCH  55  58
ATOM     58  O   UNL     1      25.686  34.924  13.640  1.00  0.00    -0.443 OA
BRANCH  58  59
ATOM     59  C   UNL     1      24.461  34.642  12.979  1.00  0.00     0.294 C 
BRANCH  59  60
ATOM     60  C   UNL     1      24.630  34.998  11.523  1.00  0.00     0.121 A 
ATOM     61  C   UNL     1      25.796  35.255  10.841  1.00  0.00     0.144 A 
ATOM     62  N   UNL     1      23.634  35.130  10.631  1.00  0.00    -0.131 NA
ATOM     63  N   UNL     1      25.427  35.528   9.574  1.00  0.00    -0.219 N 
ATOM     64  N   UNL     1      24.116  35.450   9.454  1.00  0.00    -0.062 NA
BRANCH  63  65
ATOM     65  C   UNL     1      26.290  35.865   8.494  1.00  0.00     0.080 A 
ATOM     66  C   UNL     1      27.078  34.897   7.883  1.00  0.00     0.029 A 
ATOM     67  C   UNL     1      26.373  37.157   8.030  1.00  0.00     0.039 A 
ATOM     68  C   UNL     1      27.916  35.276   6.829  1.00  0.00     0.002 A 
ATOM     69  C   UNL     1      27.218  37.519   6.972  1.00  0.00     0.017 A 
ATOM     70  I   UNL     1      25.189  38.654   8.940  1.00  0.00    -0.042 I 
ATOM     71  C   UNL     1      27.998  36.568   6.365  1.00  0.00     0.001 A 
ENDBRANCH  63  65
ENDBRANCH  59  60
ENDBRANCH  58  59
ENDBRANCH  55  58
ENDBRANCH  53  54
ENDBRANCH  50  53
ENDBRANCH  47  50
ENDBRANCH   5  47
BRANCH   4  72
ATOM     72  N   UNL     1      27.725  29.186  17.979  1.00  0.00    -0.348 N 
ATOM     73  C   UNL     1      27.234  28.544  19.171  1.00  0.00     0.217 C 
ATOM     74  H   UNL     1      28.506  28.685  17.520  1.00  0.00     0.163 HD
ATOM     75  C   UNL     1      27.792  27.285  19.700  1.00  0.00     0.114 C 
ATOM     76  O   UNL     1      26.282  29.122  19.760  1.00  0.00    -0.275 OA
ENDBRANCH   4  72
TORSDOF 30
BEGIN_RES LYS A 131
REMARK  4 active torsions:
REMARK  status: ('A' for Active; 'I' for Inactive)
REMARK    1  A    between atoms: CA   and  CB  
REMARK    2  A    between atoms: CB   and  CG  
REMARK    3  A    between atoms: CG   and  CD  
REMARK    4  A    between atoms: CD   and  CE  
ROOT
ATOM      1  CA  LYS A 131      29.867  25.555  16.977  1.00 20.52     0.186 C 
ENDROOT
BRANCH   1   2
ATOM      2  CB  LYS A 131      28.345  25.722  17.026  1.00 20.94     0.034 C 
BRANCH   2   3
ATOM      3  CG  LYS A 131      27.601  24.401  16.904  1.00 22.96     0.005 C 
BRANCH   3   4
ATOM      4  CD  LYS A 131      26.511  24.267  17.930  1.00 24.33     0.041 C 
BRANCH   4   5
ATOM      5  CE  LYS A 131      25.174  24.654  17.306  1.00 26.91     0.338 C 
ATOM      6  NZ  LYS A 131      24.766  26.008  17.750  1.00 27.40     0.618 N 
ENDBRANCH   4   5
ENDBRANCH   3   4
ENDBRANCH   2   3
ENDBRANCH   1   2
END_RES LYS A 131
BEGIN_RES LYS A 135
REMARK  4 active torsions:
REMARK  status: ('A' for Active; 'I' for Inactive)
REMARK    5  A    between atoms: CA   and  CB  
REMARK    6  A    between atoms: CB   and  CG  
REMARK    7  A    between atoms: CG   and  CD  
REMARK    8  A    between atoms: CD   and  CE  
ROOT
ATOM      7  CA  LYS A 135      33.193  34.663   9.290  1.00 25.02     0.186 C 
ENDROOT
BRANCH   7   8
ATOM      8  CB  LYS A 135      32.060  35.360  10.034  1.00 26.63     0.034 C 
BRANCH   8   9
ATOM      9  CG  LYS A 135      30.781  35.445   9.241  1.00 29.45     0.005 C 
BRANCH   9  10
ATOM     10  CD  LYS A 135      30.165  36.830   9.364  1.00 32.00     0.041 C 
BRANCH  10  11
ATOM     11  CE  LYS A 135      29.137  36.858  10.480  1.00 34.25     0.338 C 
ATOM     12  NZ  LYS A 135      29.053  38.210  11.098  1.00 35.99     0.618 N 
ENDBRANCH  10  11
ENDBRANCH   9  10
ENDBRANCH   8   9
ENDBRANCH   7   8
END_RES LYS A 135
