REMARK VINA RESULT:    -4.427      2.595      8.495
REMARK INTER + INTRA:         -24.454
REMARK INTER:                 -12.286
REMARK INTRA:                 -12.168
REMARK UNBOUND:               -12.132
REMARK SMILES CCOCCc1c(-c2ccccc2)nc(N)nc1-n1cc(COC(=O)NC[C@@H](O)C(O)[C@@H]2O[C@@](OC[C@H]3O[C@@H](O[C@H]4[C@H](O)[C@@H](O)[C@H](OCCN=[N+]=[N-])O[C@@H]4CO)[C@H](O)[C@@H](O)[C@H]3O)(C(=O)O)C[C@H](O)[C@H]2NC(C)=O)nn1
REMARK SMILES IDX 30 1 32 2 34 3 66 4 33 5 67 6 69 7 35 8 36 9 37 10 39 11
REMARK SMILES IDX 38 12 57 13 59 14 61 15 40 16 41 17 54 18 53 19 46 20 42 21
REMARK SMILES IDX 44 22 55 23 56 24 47 26 48 27 49 28 50 29 51 30 52 31 43 32
REMARK SMILES IDX 45 34 58 36 60 38 62 40 63 42 64 43 65 44 68 46 70 48 71 49
REMARK SMILES IDX 72 51 73 52 31 53 28 55 29 56 27 58 26 59 24 60 25 62 23 63
REMARK SMILES IDX 22 64 21 65 20 66 74 67 19 68 75 69 18 70 17 71 6 72 15 73
REMARK SMILES IDX 7 74 14 75 5 76 4 77 3 78 2 79 1 80 16 81 8 84 9 85 13 86
REMARK SMILES IDX 10 87 12 88 11 89
REMARK H PARENT 56 25 43 33 45 35 58 37 60 39 62 41 65 45 68 47 70 50 31 54
REMARK H PARENT 29 57 26 61 16 82 16 83
REMARK Flexibility Score: inf
ROOT
ATOM      1  C   UNL     1      24.507  33.965  12.688  1.00  0.00     0.176 C 
ENDROOT
BRANCH   1   2
ATOM      2  C   UNL     1      24.142  33.767  14.128  1.00  0.00     0.178 C 
ATOM      3  C   UNL     1      25.288  33.746  16.169  1.00  0.00     0.272 C 
ATOM      4  C   UNL     1      23.870  33.518  16.697  1.00  0.00     0.113 C 
ATOM      5  O   UNL     1      25.316  34.102  14.868  1.00  0.00    -0.332 OA
ATOM      6  C   UNL     1      23.132  32.470  15.921  1.00  0.00     0.145 C 
ATOM      7  C   UNL     1      23.766  32.386  14.544  1.00  0.00     0.142 C 
BRANCH   3   8
ATOM      8  O   UNL     1      26.021  32.624  16.486  1.00  0.00    -0.338 OA
BRANCH   8   9
ATOM      9  C   UNL     1      27.254  32.525  15.898  1.00  0.00     0.199 C 
BRANCH   9  10
ATOM     10  C   UNL     1      28.056  31.347  16.430  1.00  0.00     0.179 C 
ATOM     11  C   UNL     1      28.567  30.576  18.572  1.00  0.00     0.282 C 
ATOM     12  O   UNL     1      28.421  31.628  17.714  1.00  0.00    -0.341 OA
ATOM     13  C   UNL     1      27.214  29.853  18.600  1.00  0.00     0.202 C 
ATOM     14  C   UNL     1      27.158  29.124  17.258  1.00  0.00     0.179 C 
ATOM     15  C   UNL     1      27.506  30.015  16.117  1.00  0.00     0.177 C 
BRANCH  11  16
ATOM     16  O   UNL     1      28.948  31.025  19.815  1.00  0.00    -0.341 OA
BRANCH  16  17
ATOM     17  C   UNL     1      30.324  31.113  19.946  1.00  0.00     0.184 C 
ATOM     18  C   UNL     1      30.835  30.163  20.976  1.00  0.00     0.178 C 
ATOM     19  O   UNL     1      31.319  30.706  22.124  1.00  0.00    -0.341 OA
ATOM     20  C   UNL     1      32.126  31.797  22.048  1.00  0.00     0.281 C 
ATOM     21  C   UNL     1      30.769  32.530  20.153  1.00  0.00     0.180 C 
ATOM     22  C   UNL     1      32.150  32.538  20.753  1.00  0.00     0.202 C 
BRANCH  18  23
ATOM     23  C   UNL     1      31.790  29.133  20.371  1.00  0.00     0.191 C 
BRANCH  23  24
ATOM     24  O   UNL     1      32.617  28.584  21.334  1.00  0.00    -0.394 OA
ATOM     25  H   UNL     1      33.531  28.545  20.952  1.00  0.00     0.210 HD
ENDBRANCH  23  24
ENDBRANCH  18  23
BRANCH  20  26
ATOM     26  O   UNL     1      33.419  31.391  22.364  1.00  0.00    -0.350 OA
BRANCH  26  27
ATOM     27  C   UNL     1      33.670  31.300  23.711  1.00  0.00     0.169 C 
BRANCH  27  28
ATOM     28  C   UNL     1      34.193  29.955  24.152  1.00  0.00     0.119 C 
BRANCH  28  29
ATOM     29  N   UNL     1      34.926  29.349  23.041  1.00  0.00    -0.092 NA
ATOM     30  N   UNL     1      36.116  29.028  23.151  1.00  0.00     0.001 N 
ATOM     31  N   UNL     1      37.317  28.884  23.371  1.00  0.00    -0.003 NA
ENDBRANCH  28  29
ENDBRANCH  27  28
ENDBRANCH  26  27
ENDBRANCH  20  26
BRANCH  21  32
ATOM     32  O   UNL     1      30.813  33.255  18.959  1.00  0.00    -0.387 OA
ATOM     33  H   UNL     1      30.840  34.235  19.125  1.00  0.00     0.211 HD
ENDBRANCH  21  32
BRANCH  22  34
ATOM     34  O   UNL     1      32.490  33.865  21.009  1.00  0.00    -0.385 OA
ATOM     35  H   UNL     1      32.176  34.478  20.297  1.00  0.00     0.211 HD
ENDBRANCH  22  34
ENDBRANCH  16  17
ENDBRANCH  11  16
BRANCH  13  36
ATOM     36  O   UNL     1      27.117  28.947  19.628  1.00  0.00    -0.385 OA
ATOM     37  H   UNL     1      26.169  28.725  19.837  1.00  0.00     0.211 HD
ENDBRANCH  13  36
BRANCH  14  38
ATOM     38  O   UNL     1      26.011  28.382  17.092  1.00  0.00    -0.387 OA
ATOM     39  H   UNL     1      25.573  28.564  16.206  1.00  0.00     0.211 HD
ENDBRANCH  14  38
BRANCH  15  40
ATOM     40  O   UNL     1      26.341  30.177  15.337  1.00  0.00    -0.387 OA
ATOM     41  H   UNL     1      25.963  29.283  15.131  1.00  0.00     0.211 HD
ENDBRANCH  15  40
ENDBRANCH   9  10
ENDBRANCH   8   9
ENDBRANCH   3   8
BRANCH   3  42
ATOM     42  C   UNL     1      25.778  34.899  16.990  1.00  0.00     0.364 C 
ATOM     43  O   UNL     1      25.541  34.800  18.245  1.00  0.00    -0.246 OA
BRANCH  42  44
ATOM     44  O   UNL     1      26.432  35.997  16.510  1.00  0.00    -0.477 OA
ATOM     45  H   UNL     1      26.386  36.872  17.026  1.00  0.00     0.296 HD
ENDBRANCH  42  44
ENDBRANCH   3  42
BRANCH   6  46
ATOM     46  O   UNL     1      23.269  31.265  16.628  1.00  0.00    -0.391 OA
ATOM     47  H   UNL     1      23.468  31.418  17.572  1.00  0.00     0.211 HD
ENDBRANCH   6  46
BRANCH   7  48
ATOM     48  N   UNL     1      22.957  31.633  13.637  1.00  0.00    -0.348 N 
ATOM     49  C   UNL     1      23.127  30.245  13.393  1.00  0.00     0.217 C 
ATOM     50  H   UNL     1      22.192  32.149  13.150  1.00  0.00     0.163 HD
ATOM     51  C   UNL     1      22.230  29.567  12.435  1.00  0.00     0.114 C 
ATOM     52  O   UNL     1      24.025  29.612  13.987  1.00  0.00    -0.275 OA
ENDBRANCH   7  48
ENDBRANCH   1   2
BRANCH   1  53
ATOM     53  O   UNL     1      25.850  34.478  12.709  1.00  0.00    -0.388 OA
ATOM     54  H   UNL     1      26.341  33.896  13.326  1.00  0.00     0.211 HD
ENDBRANCH   1  53
BRANCH   1  55
ATOM     55  C   UNL     1      23.711  34.902  11.873  1.00  0.00     0.165 C 
BRANCH  55  56
ATOM     56  O   UNL     1      22.591  34.143  11.425  1.00  0.00    -0.388 OA
ATOM     57  H   UNL     1      22.387  34.418  10.509  1.00  0.00     0.211 HD
ENDBRANCH  55  56
BRANCH  55  58
ATOM     58  C   UNL     1      24.351  35.520  10.702  1.00  0.00     0.154 C 
BRANCH  58  59
ATOM     59  N   UNL     1      25.349  36.482  10.967  1.00  0.00    -0.319 N 
ATOM     60  C   UNL     1      26.195  37.082  10.016  1.00  0.00     0.407 C 
ATOM     61  H   UNL     1      25.535  36.835  11.978  1.00  0.00     0.167 HD
ATOM     62  O   UNL     1      26.140  36.804   8.798  1.00  0.00    -0.225 OA
BRANCH  60  63
ATOM     63  O   UNL     1      27.157  38.036  10.368  1.00  0.00    -0.443 OA
BRANCH  63  64
ATOM     64  C   UNL     1      28.475  37.676  10.722  1.00  0.00     0.294 C 
BRANCH  64  65
ATOM     65  C   UNL     1      28.531  37.067  12.073  1.00  0.00     0.121 A 
ATOM     66  C   UNL     1      29.602  36.439  12.653  1.00  0.00     0.146 A 
ATOM     67  N   UNL     1      27.537  36.989  12.987  1.00  0.00    -0.131 NA
ATOM     68  N   UNL     1      29.239  35.987  13.912  1.00  0.00    -0.202 N 
ATOM     69  N   UNL     1      27.999  36.349  14.045  1.00  0.00    -0.060 NA
BRANCH  68  70
ATOM     70  C   UNL     1      30.185  35.289  14.683  1.00  0.00     0.164 A 
ATOM     71  N   UNL     1      30.234  33.938  14.582  1.00  0.00    -0.193 NA
ATOM     72  C   UNL     1      31.147  35.901  15.501  1.00  0.00     0.026 A 
ATOM     73  C   UNL     1      31.138  33.183  15.208  1.00  0.00     0.222 A 
ATOM     74  C   UNL     1      32.082  35.150  16.147  1.00  0.00     0.081 A 
ATOM     75  N   UNL     1      32.046  33.787  15.977  1.00  0.00    -0.213 NA
BRANCH  72  76
ATOM     76  C   UNL     1      30.994  37.348  15.690  1.00  0.00     0.070 C 
BRANCH  76  77
ATOM     77  C   UNL     1      30.151  37.734  16.887  1.00  0.00     0.165 C 
BRANCH  77  78
ATOM     78  O   UNL     1      29.204  36.844  17.291  1.00  0.00    -0.381 OA
BRANCH  78  79
ATOM     79  C   UNL     1      29.231  36.420  18.586  1.00  0.00     0.156 C 
ATOM     80  C   UNL     1      28.117  37.085  19.413  1.00  0.00     0.035 C 
ENDBRANCH  78  79
ENDBRANCH  77  78
ENDBRANCH  76  77
ENDBRANCH  72  76
BRANCH  73  81
ATOM     81  N   UNL     1      31.146  31.758  15.071  1.00  0.00    -0.368 N 
ATOM     82  H   UNL     1      31.211  31.151  15.913  1.00  0.00     0.159 HD
ATOM     83  H   UNL     1      31.086  31.283  14.155  1.00  0.00     0.159 HD
ENDBRANCH  73  81
BRANCH  74  84
ATOM     84  C   UNL     1      33.121  35.705  16.986  1.00  0.00     0.001 A 
ATOM     85  C   UNL     1      34.334  36.040  16.387  1.00  0.00     0.010 A 
ATOM     86  C   UNL     1      32.942  35.936  18.338  1.00  0.00     0.010 A 
ATOM     87  C   UNL     1      35.370  36.602  17.121  1.00  0.00     0.001 A 
ATOM     88  C   UNL     1      33.981  36.492  19.046  1.00  0.00     0.001 A 
ATOM     89  C   UNL     1      35.179  36.826  18.464  1.00  0.00     0.000 A 
ENDBRANCH  74  84
ENDBRANCH  68  70
ENDBRANCH  64  65
ENDBRANCH  63  64
ENDBRANCH  60  63
ENDBRANCH  58  59
ENDBRANCH  55  58
ENDBRANCH   1  55
TORSDOF 36
BEGIN_RES LYS A 131
REMARK  4 active torsions:
REMARK  status: ('A' for Active; 'I' for Inactive)
REMARK    1  A    between atoms: CA   and  CB  
REMARK    2  A    between atoms: CB   and  CG  
REMARK    3  A    between atoms: CG   and  CD  
REMARK    4  A    between atoms: CD   and  CE  
ROOT
ATOM      1  CA  LYS A 131      29.867  25.555  16.977  1.00 20.52     0.186 C 
ENDROOT
BRANCH   1   2
ATOM      2  CB  LYS A 131      28.345  25.722  17.026  1.00 20.94     0.034 C 
BRANCH   2   3
ATOM      3  CG  LYS A 131      27.600  24.408  16.844  1.00 22.96     0.005 C 
BRANCH   3   4
ATOM      4  CD  LYS A 131      26.740  24.075  18.031  1.00 24.33     0.041 C 
BRANCH   4   5
ATOM      5  CE  LYS A 131      25.318  23.784  17.564  1.00 26.91     0.338 C 
ATOM      6  NZ  LYS A 131      24.651  25.031  17.121  1.00 27.40     0.618 N 
ENDBRANCH   4   5
ENDBRANCH   3   4
ENDBRANCH   2   3
ENDBRANCH   1   2
END_RES LYS A 131
BEGIN_RES LYS A 135
REMARK  4 active torsions:
REMARK  status: ('A' for Active; 'I' for Inactive)
REMARK    5  A    between atoms: CA   and  CB  
REMARK    6  A    between atoms: CB   and  CG  
REMARK    7  A    between atoms: CG   and  CD  
REMARK    8  A    between atoms: CD   and  CE  
ROOT
ATOM      7  CA  LYS A 135      33.193  34.663   9.290  1.00 25.02     0.186 C 
ENDROOT
BRANCH   7   8
ATOM      8  CB  LYS A 135      32.060  35.360  10.034  1.00 26.63     0.034 C 
BRANCH   8   9
ATOM      9  CG  LYS A 135      30.749  35.339   9.292  1.00 29.45     0.005 C 
BRANCH   9  10
ATOM     10  CD  LYS A 135      29.898  34.159   9.738  1.00 32.00     0.041 C 
BRANCH  10  11
ATOM     11  CE  LYS A 135      28.542  34.194   9.061  1.00 34.25     0.338 C 
ATOM     12  NZ  LYS A 135      28.614  34.898   7.751  1.00 35.99     0.618 N 
ENDBRANCH  10  11
ENDBRANCH   9  10
ENDBRANCH   8   9
ENDBRANCH   7   8
END_RES LYS A 135
