REMARK VINA RESULT:    -4.536      3.898      9.982
REMARK INTER + INTRA:         -22.924
REMARK INTER:                 -12.348
REMARK INTRA:                 -10.577
REMARK UNBOUND:               -11.494
REMARK SMILES CC(=O)N[C@@H]1[C@@H](O)C[C@](OC[C@H]2O[C@@H](O[C@H]3[C@H](O)[C@@H](O)[C@H](OCCN=[N+]=[N-])O[C@@H]3CO)[C@H](O)[C@@H](O)[C@H]2O)(C(=O)O)O[C@H]1C(O)[C@H](O)CNC(=O)OCc1cn(-c2ccccc2C(C)=O)nn1
REMARK SMILES IDX 9 1 8 2 6 3 5 4 42 5 41 6 10 7 11 8 12 9 14 10 13 11 32 12
REMARK SMILES IDX 34 13 36 14 15 15 16 16 29 17 28 18 21 19 17 20 19 21 30 22
REMARK SMILES IDX 31 23 22 25 23 26 24 27 25 28 26 29 27 30 18 31 20 33 33 35
REMARK SMILES IDX 35 37 37 39 38 41 39 42 40 43 7 45 43 47 44 48 45 50 46 51
REMARK SMILES IDX 47 53 48 54 49 55 50 57 51 58 52 59 53 60 54 61 66 62 55 63
REMARK SMILES IDX 65 64 56 65 61 66 57 67 60 68 58 69 59 70 62 71 64 72 63 73
REMARK SMILES IDX 4 74 2 75 1 77 3 78
REMARK H PARENT 31 24 18 32 20 34 33 36 35 38 37 40 40 44 7 46 44 49 46 52
REMARK H PARENT 48 56 4 76
REMARK Flexibility Score: inf
ROOT
ATOM      1  C   UNL     1      29.918  34.089  15.030  1.00  0.00     0.272 C 
ATOM      2  C   UNL     1      29.844  32.631  14.681  1.00  0.00     0.113 C 
ATOM      3  C   UNL     1      29.551  31.862  15.943  1.00  0.00     0.145 C 
ATOM      4  C   UNL     1      28.142  32.280  16.327  1.00  0.00     0.142 C 
ATOM      5  C   UNL     1      28.246  33.738  16.685  1.00  0.00     0.178 C 
ATOM      6  O   UNL     1      29.347  34.398  16.285  1.00  0.00    -0.332 OA
ENDROOT
BRANCH   1   7
ATOM      7  O   UNL     1      29.431  34.953  14.176  1.00  0.00    -0.338 OA
BRANCH   7   8
ATOM      8  C   UNL     1      29.549  35.149  12.901  1.00  0.00     0.199 C 
BRANCH   8   9
ATOM      9  C   UNL     1      29.060  36.325  12.144  1.00  0.00     0.179 C 
ATOM     10  C   UNL     1      27.258  36.974  10.845  1.00  0.00     0.282 C 
ATOM     11  O   UNL     1      27.736  36.004  11.708  1.00  0.00    -0.341 OA
ATOM     12  C   UNL     1      28.008  38.251  10.808  1.00  0.00     0.202 C 
ATOM     13  C   UNL     1      28.616  38.701  12.099  1.00  0.00     0.179 C 
ATOM     14  C   UNL     1      28.807  37.549  13.056  1.00  0.00     0.177 C 
BRANCH  10  15
ATOM     15  O   UNL     1      25.918  37.228  11.139  1.00  0.00    -0.341 OA
BRANCH  15  16
ATOM     16  C   UNL     1      25.061  36.528  10.293  1.00  0.00     0.184 C 
ATOM     17  C   UNL     1      24.291  37.536   9.475  1.00  0.00     0.178 C 
ATOM     18  O   UNL     1      22.934  37.502   9.664  1.00  0.00    -0.341 OA
ATOM     19  C   UNL     1      22.332  36.277   9.516  1.00  0.00     0.281 C 
ATOM     20  C   UNL     1      24.047  35.836  11.216  1.00  0.00     0.180 C 
ATOM     21  C   UNL     1      23.014  35.198  10.343  1.00  0.00     0.202 C 
BRANCH  17  22
ATOM     22  C   UNL     1      24.682  37.359   8.020  1.00  0.00     0.191 C 
BRANCH  22  23
ATOM     23  O   UNL     1      23.881  38.204   7.254  1.00  0.00    -0.394 OA
ATOM     24  H   UNL     1      23.046  37.806   6.950  1.00  0.00     0.210 HD
ENDBRANCH  22  23
ENDBRANCH  17  22
BRANCH  19  25
ATOM     25  O   UNL     1      22.150  35.876   8.207  1.00  0.00    -0.350 OA
BRANCH  25  26
ATOM     26  C   UNL     1      20.846  36.152   7.824  1.00  0.00     0.169 C 
BRANCH  26  27
ATOM     27  C   UNL     1      20.045  34.859   7.808  1.00  0.00     0.119 C 
BRANCH  27  28
ATOM     28  N   UNL     1      18.861  34.991   8.666  1.00  0.00    -0.092 NA
ATOM     29  N   UNL     1      19.044  34.815   9.870  1.00  0.00     0.001 N 
ATOM     30  N   UNL     1      19.048  34.558  11.061  1.00  0.00    -0.003 NA
ENDBRANCH  27  28
ENDBRANCH  26  27
ENDBRANCH  25  26
ENDBRANCH  19  25
BRANCH  20  31
ATOM     31  O   UNL     1      24.705  34.947  12.034  1.00  0.00    -0.387 OA
ATOM     32  H   UNL     1      25.672  34.841  11.773  1.00  0.00     0.211 HD
ENDBRANCH  20  31
BRANCH  21  33
ATOM     33  O   UNL     1      22.098  34.439  11.074  1.00  0.00    -0.385 OA
ATOM     34  H   UNL     1      22.085  33.503  10.706  1.00  0.00     0.211 HD
ENDBRANCH  21  33
ENDBRANCH  15  16
ENDBRANCH  10  15
BRANCH  12  35
ATOM     35  O   UNL     1      28.929  38.286   9.749  1.00  0.00    -0.385 OA
ATOM     36  H   UNL     1      28.947  37.427   9.256  1.00  0.00     0.211 HD
ENDBRANCH  12  35
BRANCH  13  37
ATOM     37  O   UNL     1      27.815  39.652  12.753  1.00  0.00    -0.387 OA
ATOM     38  H   UNL     1      28.257  39.833  13.624  1.00  0.00     0.211 HD
ENDBRANCH  13  37
BRANCH  14  39
ATOM     39  O   UNL     1      27.656  37.324  13.820  1.00  0.00    -0.387 OA
ATOM     40  H   UNL     1      27.329  38.147  14.267  1.00  0.00     0.211 HD
ENDBRANCH  14  39
ENDBRANCH   8   9
ENDBRANCH   7   8
ENDBRANCH   1   7
BRANCH   1  41
ATOM     41  C   UNL     1      31.360  34.325  15.325  1.00  0.00     0.364 C 
ATOM     42  O   UNL     1      31.704  35.156  16.235  1.00  0.00    -0.246 OA
BRANCH  41  43
ATOM     43  O   UNL     1      32.419  33.724  14.693  1.00  0.00    -0.477 OA
ATOM     44  H   UNL     1      33.190  34.245  14.299  1.00  0.00     0.296 HD
ENDBRANCH  41  43
ENDBRANCH   1  41
BRANCH   3  45
ATOM     45  O   UNL     1      29.610  30.511  15.611  1.00  0.00    -0.391 OA
ATOM     46  H   UNL     1      29.983  30.378  14.699  1.00  0.00     0.211 HD
ENDBRANCH   3  45
BRANCH   5  47
ATOM     47  C   UNL     1      26.914  34.461  16.301  1.00  0.00     0.176 C 
BRANCH  47  48
ATOM     48  O   UNL     1      26.063  34.185  17.437  1.00  0.00    -0.388 OA
ATOM     49  H   UNL     1      25.834  35.114  17.750  1.00  0.00     0.211 HD
ENDBRANCH  47  48
BRANCH  47  50
ATOM     50  C   UNL     1      26.275  33.828  15.138  1.00  0.00     0.165 C 
BRANCH  50  51
ATOM     51  O   UNL     1      26.574  34.511  13.933  1.00  0.00    -0.388 OA
ATOM     52  H   UNL     1      26.107  34.108  13.170  1.00  0.00     0.211 HD
ENDBRANCH  50  51
BRANCH  50  53
ATOM     53  C   UNL     1      24.967  33.179  15.200  1.00  0.00     0.154 C 
BRANCH  53  54
ATOM     54  N   UNL     1      24.835  31.928  14.550  1.00  0.00    -0.319 N 
ATOM     55  C   UNL     1      24.107  31.618  13.379  1.00  0.00     0.407 C 
ATOM     56  H   UNL     1      25.341  31.081  14.972  1.00  0.00     0.167 HD
ATOM     57  O   UNL     1      23.464  32.534  12.817  1.00  0.00    -0.225 OA
BRANCH  55  58
ATOM     58  O   UNL     1      24.058  30.356  12.805  1.00  0.00    -0.443 OA
BRANCH  58  59
ATOM     59  C   UNL     1      23.580  29.255  13.534  1.00  0.00     0.294 C 
BRANCH  59  60
ATOM     60  C   UNL     1      22.080  29.265  13.423  1.00  0.00     0.121 A 
ATOM     61  C   UNL     1      21.332  29.444  12.284  1.00  0.00     0.144 A 
ATOM     62  N   UNL     1      21.179  29.107  14.402  1.00  0.00    -0.131 NA
ATOM     63  N   UNL     1      20.004  29.389  12.626  1.00  0.00    -0.220 N 
ATOM     64  N   UNL     1      19.957  29.182  13.924  1.00  0.00    -0.062 NA
BRANCH  63  65
ATOM     65  C   UNL     1      18.939  29.574  11.702  1.00  0.00     0.077 A 
ATOM     66  C   UNL     1      18.233  28.599  11.094  1.00  0.00     0.043 A 
ATOM     67  C   UNL     1      18.617  30.918  11.427  1.00  0.00     0.029 A 
ATOM     68  C   UNL     1      17.203  28.983  10.209  1.00  0.00     0.014 A 
ATOM     69  C   UNL     1      17.607  31.264  10.558  1.00  0.00     0.002 A 
ATOM     70  C   UNL     1      16.880  30.281   9.933  1.00  0.00     0.001 A 
BRANCH  66  71
ATOM     71  C   UNL     1      18.495  27.196  11.311  1.00  0.00     0.161 C 
ATOM     72  O   UNL     1      19.103  26.600  10.341  1.00  0.00    -0.294 OA
ATOM     73  C   UNL     1      18.170  26.366  12.473  1.00  0.00     0.093 C 
ENDBRANCH  66  71
ENDBRANCH  63  65
ENDBRANCH  59  60
ENDBRANCH  58  59
ENDBRANCH  55  58
ENDBRANCH  53  54
ENDBRANCH  50  53
ENDBRANCH  47  50
ENDBRANCH   5  47
BRANCH   4  74
ATOM     74  N   UNL     1      27.603  31.475  17.381  1.00  0.00    -0.348 N 
ATOM     75  C   UNL     1      26.785  30.338  17.162  1.00  0.00     0.217 C 
ATOM     76  H   UNL     1      27.840  31.763  18.367  1.00  0.00     0.163 HD
ATOM     77  C   UNL     1      26.273  29.563  18.345  1.00  0.00     0.114 C 
ATOM     78  O   UNL     1      26.525  30.027  15.982  1.00  0.00    -0.275 OA
ENDBRANCH   4  74
TORSDOF 31
BEGIN_RES LYS A 131
REMARK  4 active torsions:
REMARK  status: ('A' for Active; 'I' for Inactive)
REMARK    1  A    between atoms: CA   and  CB  
REMARK    2  A    between atoms: CB   and  CG  
REMARK    3  A    between atoms: CG   and  CD  
REMARK    4  A    between atoms: CD   and  CE  
ROOT
ATOM      1  CA  LYS A 131      29.867  25.555  16.977  1.00 20.52     0.186 C 
ENDROOT
BRANCH   1   2
ATOM      2  CB  LYS A 131      28.345  25.722  17.026  1.00 20.94     0.034 C 
BRANCH   2   3
ATOM      3  CG  LYS A 131      27.602  24.400  16.915  1.00 22.96     0.005 C 
BRANCH   3   4
ATOM      4  CD  LYS A 131      26.469  24.302  17.899  1.00 24.33     0.041 C 
BRANCH   4   5
ATOM      5  CE  LYS A 131      26.317  25.630  18.633  1.00 26.91     0.338 C 
ATOM      6  NZ  LYS A 131      24.890  26.025  18.701  1.00 27.40     0.618 N 
ENDBRANCH   4   5
ENDBRANCH   3   4
ENDBRANCH   2   3
ENDBRANCH   1   2
END_RES LYS A 131
BEGIN_RES LYS A 135
REMARK  4 active torsions:
REMARK  status: ('A' for Active; 'I' for Inactive)
REMARK    5  A    between atoms: CA   and  CB  
REMARK    6  A    between atoms: CB   and  CG  
REMARK    7  A    between atoms: CG   and  CD  
REMARK    8  A    between atoms: CD   and  CE  
ROOT
ATOM      7  CA  LYS A 135      33.193  34.663   9.290  1.00 25.02     0.186 C 
ENDROOT
BRANCH   7   8
ATOM      8  CB  LYS A 135      32.060  35.360  10.034  1.00 26.63     0.034 C 
BRANCH   8   9
ATOM      9  CG  LYS A 135      30.771  35.412   9.256  1.00 29.45     0.005 C 
BRANCH   9  10
ATOM     10  CD  LYS A 135      30.142  34.030   9.165  1.00 32.00     0.041 C 
BRANCH  10  11
ATOM     11  CE  LYS A 135      28.651  34.139   8.914  1.00 34.25     0.338 C 
ATOM     12  NZ  LYS A 135      28.355  35.158   7.869  1.00 35.99     0.618 N 
ENDBRANCH  10  11
ENDBRANCH   9  10
ENDBRANCH   8   9
ENDBRANCH   7   8
END_RES LYS A 135
