REMARK VINA RESULT:    -4.546      2.316      7.458
REMARK INTER + INTRA:         -22.714
REMARK INTER:                 -11.945
REMARK INTRA:                 -10.769
REMARK UNBOUND:               -11.125
REMARK SMILES CC(=O)N[C@@H]1[C@@H](O)C[C@](OC[C@H]2O[C@@H](O[C@H]3[C@H](O)[C@@H](O)[C@H](OCCN=[N+]=[N-])O[C@@H]3CO)[C@H](O)[C@@H](O)[C@H]2O)(C(=O)O)O[C@H]1C(O)[C@H](O)CNC(=O)OCc1cn([C@@H](C)C(=O)O)nn1
REMARK SMILES IDX 9 1 8 2 6 3 5 4 42 5 41 6 10 7 11 8 12 9 14 10 13 11 32 12
REMARK SMILES IDX 34 13 36 14 15 15 16 16 29 17 28 18 21 19 17 20 19 21 30 22
REMARK SMILES IDX 31 23 22 25 23 26 24 27 25 28 26 29 27 30 18 31 20 33 33 35
REMARK SMILES IDX 35 37 37 39 38 41 39 42 40 43 7 45 43 47 44 48 45 50 46 51
REMARK SMILES IDX 47 53 48 54 49 55 50 57 51 58 52 59 53 60 54 61 62 62 55 63
REMARK SMILES IDX 61 64 56 65 57 66 58 67 59 68 60 69 4 71 2 72 1 74 3 75
REMARK H PARENT 31 24 18 32 20 34 33 36 35 38 37 40 40 44 7 46 44 49 46 52
REMARK H PARENT 48 56 60 70 4 73
REMARK Flexibility Score: inf
ROOT
ATOM      1  C   UNL     1      28.790  32.435  16.357  1.00  0.00     0.272 C 
ATOM      2  C   UNL     1      28.983  31.244  17.213  1.00  0.00     0.113 C 
ATOM      3  C   UNL     1      28.522  30.045  16.418  1.00  0.00     0.145 C 
ATOM      4  C   UNL     1      26.960  30.206  16.430  1.00  0.00     0.142 C 
ATOM      5  C   UNL     1      26.586  31.588  16.185  1.00  0.00     0.178 C 
ATOM      6  O   UNL     1      27.547  32.443  15.715  1.00  0.00    -0.332 OA
ENDROOT
BRANCH   1   7
ATOM      7  O   UNL     1      29.802  32.617  15.466  1.00  0.00    -0.338 OA
BRANCH   7   8
ATOM      8  C   UNL     1      31.075  32.612  15.899  1.00  0.00     0.199 C 
BRANCH   8   9
ATOM      9  C   UNL     1      31.940  33.615  15.095  1.00  0.00     0.179 C 
ATOM     10  C   UNL     1      31.754  35.048  13.295  1.00  0.00     0.282 C 
ATOM     11  O   UNL     1      31.096  34.235  14.212  1.00  0.00    -0.341 OA
ATOM     12  C   UNL     1      33.205  35.240  13.627  1.00  0.00     0.202 C 
ATOM     13  C   UNL     1      33.383  35.556  15.099  1.00  0.00     0.179 C 
ATOM     14  C   UNL     1      32.608  34.600  15.991  1.00  0.00     0.177 C 
BRANCH  10  15
ATOM     15  O   UNL     1      31.182  36.324  13.193  1.00  0.00    -0.341 OA
BRANCH  15  16
ATOM     16  C   UNL     1      29.911  36.364  13.746  1.00  0.00     0.184 C 
ATOM     17  C   UNL     1      28.883  36.496  12.669  1.00  0.00     0.178 C 
ATOM     18  O   UNL     1      28.261  37.745  12.678  1.00  0.00    -0.341 OA
ATOM     19  C   UNL     1      29.204  38.778  12.673  1.00  0.00     0.281 C 
ATOM     20  C   UNL     1      29.853  37.548  14.683  1.00  0.00     0.180 C 
ATOM     21  C   UNL     1      29.934  38.875  13.983  1.00  0.00     0.202 C 
BRANCH  17  22
ATOM     22  C   UNL     1      27.803  35.444  12.784  1.00  0.00     0.191 C 
BRANCH  22  23
ATOM     23  O   UNL     1      28.141  34.444  13.693  1.00  0.00    -0.394 OA
ATOM     24  H   UNL     1      28.814  34.779  14.319  1.00  0.00     0.210 HD
ENDBRANCH  22  23
ENDBRANCH  17  22
BRANCH  19  25
ATOM     25  O   UNL     1      28.495  39.949  12.469  1.00  0.00    -0.350 OA
BRANCH  25  26
ATOM     26  C   UNL     1      28.939  40.556  11.313  1.00  0.00     0.169 C 
BRANCH  26  27
ATOM     27  C   UNL     1      29.696  41.829  11.636  1.00  0.00     0.119 C 
BRANCH  27  28
ATOM     28  N   UNL     1      31.122  41.514  11.690  1.00  0.00    -0.092 NA
ATOM     29  N   UNL     1      31.706  40.954  10.762  1.00  0.00     0.001 N 
ATOM     30  N   UNL     1      32.236  40.627   9.715  1.00  0.00    -0.003 NA
ENDBRANCH  27  28
ENDBRANCH  26  27
ENDBRANCH  25  26
ENDBRANCH  19  25
BRANCH  20  31
ATOM     31  O   UNL     1      28.719  37.520  15.493  1.00  0.00    -0.387 OA
ATOM     32  H   UNL     1      28.066  36.834  15.236  1.00  0.00     0.211 HD
ENDBRANCH  20  31
BRANCH  21  33
ATOM     33  O   UNL     1      31.263  39.202  13.721  1.00  0.00    -0.385 OA
ATOM     34  H   UNL     1      31.543  38.880  12.833  1.00  0.00     0.211 HD
ENDBRANCH  21  33
ENDBRANCH  15  16
ENDBRANCH  10  15
BRANCH  12  35
ATOM     35  O   UNL     1      34.028  34.233  13.183  1.00  0.00    -0.385 OA
ATOM     36  H   UNL     1      33.479  33.499  12.764  1.00  0.00     0.211 HD
ENDBRANCH  12  35
BRANCH  13  37
ATOM     37  O   UNL     1      32.885  36.862  15.295  1.00  0.00    -0.387 OA
ATOM     38  H   UNL     1      32.569  37.251  14.437  1.00  0.00     0.211 HD
ENDBRANCH  13  37
BRANCH  14  39
ATOM     39  O   UNL     1      31.682  35.290  16.772  1.00  0.00    -0.387 OA
ATOM     40  H   UNL     1      32.150  35.737  17.525  1.00  0.00     0.211 HD
ENDBRANCH  14  39
ENDBRANCH   8   9
ENDBRANCH   7   8
ENDBRANCH   1   7
BRANCH   1  41
ATOM     41  C   UNL     1      28.706  33.620  17.252  1.00  0.00     0.364 C 
ATOM     42  O   UNL     1      28.729  33.473  18.483  1.00  0.00    -0.246 OA
BRANCH  41  43
ATOM     43  O   UNL     1      28.601  34.904  16.738  1.00  0.00    -0.477 OA
ATOM     44  H   UNL     1      28.238  35.676  17.317  1.00  0.00     0.296 HD
ENDBRANCH  41  43
ENDBRANCH   1  41
BRANCH   3  45
ATOM     45  O   UNL     1      28.889  30.246  15.092  1.00  0.00    -0.391 OA
ATOM     46  H   UNL     1      28.167  30.087  14.461  1.00  0.00     0.211 HD
ENDBRANCH   3  45
BRANCH   5  47
ATOM     47  C   UNL     1      25.347  31.816  15.334  1.00  0.00     0.176 C 
BRANCH  47  48
ATOM     48  O   UNL     1      25.340  30.774  14.338  1.00  0.00    -0.388 OA
ATOM     49  H   UNL     1      24.455  30.376  14.299  1.00  0.00     0.211 HD
ENDBRANCH  47  48
BRANCH  47  50
ATOM     50  C   UNL     1      25.401  33.077  14.495  1.00  0.00     0.165 C 
BRANCH  50  51
ATOM     51  O   UNL     1      25.493  34.246  15.184  1.00  0.00    -0.388 OA
ATOM     52  H   UNL     1      24.941  34.339  15.992  1.00  0.00     0.211 HD
ENDBRANCH  50  51
BRANCH  50  53
ATOM     53  C   UNL     1      24.423  33.053  13.370  1.00  0.00     0.154 C 
BRANCH  53  54
ATOM     54  N   UNL     1      24.541  34.058  12.381  1.00  0.00    -0.319 N 
ATOM     55  C   UNL     1      24.021  35.378  12.427  1.00  0.00     0.407 C 
ATOM     56  H   UNL     1      25.084  33.791  11.501  1.00  0.00     0.167 HD
ATOM     57  O   UNL     1      23.392  35.744  13.428  1.00  0.00    -0.225 OA
BRANCH  55  58
ATOM     58  O   UNL     1      24.225  36.246  11.342  1.00  0.00    -0.443 OA
BRANCH  58  59
ATOM     59  C   UNL     1      24.437  35.741  10.050  1.00  0.00     0.294 C 
BRANCH  59  60
ATOM     60  C   UNL     1      25.486  36.452   9.310  1.00  0.00     0.120 A 
ATOM     61  C   UNL     1      25.676  36.558   7.950  1.00  0.00     0.139 A 
ATOM     62  N   UNL     1      26.480  37.153   9.916  1.00  0.00    -0.132 NA
ATOM     63  N   UNL     1      26.763  37.311   7.770  1.00  0.00    -0.238 N 
ATOM     64  N   UNL     1      27.251  37.671   8.950  1.00  0.00    -0.066 NA
BRANCH  63  65
ATOM     65  C   UNL     1      27.332  37.680   6.489  1.00  0.00     0.215 C 
ATOM     66  C   UNL     1      27.272  39.165   6.319  1.00  0.00     0.046 C 
BRANCH  65  67
ATOM     67  C   UNL     1      28.731  37.206   6.366  1.00  0.00     0.328 C 
ATOM     68  O   UNL     1      28.945  36.119   5.776  1.00  0.00    -0.250 OA
BRANCH  67  69
ATOM     69  O   UNL     1      29.805  37.919   6.875  1.00  0.00    -0.480 OA
ATOM     70  H   UNL     1      30.026  37.918   7.864  1.00  0.00     0.296 HD
ENDBRANCH  67  69
ENDBRANCH  65  67
ENDBRANCH  63  65
ENDBRANCH  59  60
ENDBRANCH  58  59
ENDBRANCH  55  58
ENDBRANCH  53  54
ENDBRANCH  50  53
ENDBRANCH  47  50
ENDBRANCH   5  47
BRANCH   4  71
ATOM     71  N   UNL     1      26.479  29.616  17.665  1.00  0.00    -0.348 N 
ATOM     72  C   UNL     1      25.292  28.910  17.851  1.00  0.00     0.217 C 
ATOM     73  H   UNL     1      27.109  29.745  18.508  1.00  0.00     0.163 HD
ATOM     74  C   UNL     1      24.908  28.355  19.171  1.00  0.00     0.114 C 
ATOM     75  O   UNL     1      24.530  28.740  16.881  1.00  0.00    -0.275 OA
ENDBRANCH   4  71
TORSDOF 32
BEGIN_RES LYS A 131
REMARK  4 active torsions:
REMARK  status: ('A' for Active; 'I' for Inactive)
REMARK    1  A    between atoms: CA   and  CB  
REMARK    2  A    between atoms: CB   and  CG  
REMARK    3  A    between atoms: CG   and  CD  
REMARK    4  A    between atoms: CD   and  CE  
ROOT
ATOM      1  CA  LYS A 131      29.867  25.555  16.977  1.00 20.52     0.186 C 
ENDROOT
BRANCH   1   2
ATOM      2  CB  LYS A 131      28.345  25.722  17.026  1.00 20.94     0.034 C 
BRANCH   2   3
ATOM      3  CG  LYS A 131      27.600  24.416  16.795  1.00 22.96     0.005 C 
BRANCH   3   4
ATOM      4  CD  LYS A 131      26.818  23.989  18.006  1.00 24.33     0.041 C 
BRANCH   4   5
ATOM      5  CE  LYS A 131      25.566  24.850  18.134  1.00 26.91     0.338 C 
ATOM      6  NZ  LYS A 131      24.989  24.728  19.494  1.00 27.40     0.618 N 
ENDBRANCH   4   5
ENDBRANCH   3   4
ENDBRANCH   2   3
ENDBRANCH   1   2
END_RES LYS A 131
BEGIN_RES LYS A 135
REMARK  4 active torsions:
REMARK  status: ('A' for Active; 'I' for Inactive)
REMARK    5  A    between atoms: CA   and  CB  
REMARK    6  A    between atoms: CB   and  CG  
REMARK    7  A    between atoms: CG   and  CD  
REMARK    8  A    between atoms: CD   and  CE  
ROOT
ATOM      7  CA  LYS A 135      33.193  34.663   9.290  1.00 25.02     0.186 C 
ENDROOT
BRANCH   7   8
ATOM      8  CB  LYS A 135      32.060  35.360  10.034  1.00 26.63     0.034 C 
BRANCH   8   9
ATOM      9  CG  LYS A 135      30.796  35.489   9.223  1.00 29.45     0.005 C 
BRANCH   9  10
ATOM     10  CD  LYS A 135      30.141  34.130   9.032  1.00 32.00     0.041 C 
BRANCH  10  11
ATOM     11  CE  LYS A 135      28.674  34.291   8.682  1.00 34.25     0.338 C 
ATOM     12  NZ  LYS A 135      27.804  33.657   9.712  1.00 35.99     0.618 N 
ENDBRANCH  10  11
ENDBRANCH   9  10
ENDBRANCH   8   9
ENDBRANCH   7   8
END_RES LYS A 135
