REMARK VINA RESULT:    -4.500      4.942     10.478
REMARK INTER + INTRA:         -22.554
REMARK INTER:                 -13.610
REMARK INTRA:                  -8.944
REMARK UNBOUND:               -11.213
REMARK SMILES CC(=O)N[C@@H]1[C@@H](O)C[C@](OC[C@H]2O[C@@H](O[C@H]3[C@H](O)[C@@H](O)[C@H](OCCN=[N+]=[N-])O[C@@H]3CO)[C@H](O)[C@@H](O)[C@H]2O)(C(=O)O)O[C@H]1C(O)[C@H](O)CNC(=O)OCc1cn(CC2=CC[C@H]3C[C@@H]2C3(C)C)nn1
REMARK SMILES IDX 9 1 8 2 6 3 5 4 42 5 41 6 10 7 11 8 12 9 14 10 13 11 32 12
REMARK SMILES IDX 34 13 36 14 15 15 16 16 29 17 28 18 21 19 17 20 19 21 30 22
REMARK SMILES IDX 31 23 22 25 23 26 24 27 25 28 26 29 27 30 18 31 20 33 33 35
REMARK SMILES IDX 35 37 37 39 38 41 39 42 40 43 7 45 43 47 44 48 45 50 46 51
REMARK SMILES IDX 47 53 48 54 49 55 50 57 51 58 52 59 53 60 54 61 67 62 55 63
REMARK SMILES IDX 66 64 56 65 57 66 58 67 62 68 59 69 61 70 63 71 60 72 64 73
REMARK SMILES IDX 65 74 4 75 2 76 1 78 3 79
REMARK H PARENT 31 24 18 32 20 34 33 36 35 38 37 40 40 44 7 46 44 49 46 52
REMARK H PARENT 48 56 4 77
REMARK Flexibility Score: inf
ROOT
ATOM      1  C   UNL     1      30.124  32.830  16.426  1.00  0.00     0.272 C 
ATOM      2  C   UNL     1      30.810  33.415  17.617  1.00  0.00     0.113 C 
ATOM      3  C   UNL     1      29.773  33.814  18.682  1.00  0.00     0.145 C 
ATOM      4  C   UNL     1      28.864  34.867  18.158  1.00  0.00     0.142 C 
ATOM      5  C   UNL     1      29.052  34.904  16.655  1.00  0.00     0.178 C 
ATOM      6  O   UNL     1      29.008  33.674  16.104  1.00  0.00    -0.332 OA
ENDROOT
BRANCH   1   7
ATOM      7  O   UNL     1      29.590  31.627  16.566  1.00  0.00    -0.338 OA
BRANCH   7   8
ATOM      8  C   UNL     1      28.885  30.918  15.722  1.00  0.00     0.199 C 
BRANCH   8   9
ATOM      9  C   UNL     1      27.452  30.602  15.816  1.00  0.00     0.179 C 
ATOM     10  C   UNL     1      26.004  29.507  17.250  1.00  0.00     0.282 C 
ATOM     11  O   UNL     1      27.233  30.149  17.154  1.00  0.00    -0.341 OA
ATOM     12  C   UNL     1      24.894  30.144  16.543  1.00  0.00     0.202 C 
ATOM     13  C   UNL     1      25.155  31.310  15.673  1.00  0.00     0.179 C 
ATOM     14  C   UNL     1      26.555  31.855  15.803  1.00  0.00     0.177 C 
BRANCH  10  15
ATOM     15  O   UNL     1      25.735  29.483  18.632  1.00  0.00    -0.341 OA
BRANCH  15  16
ATOM     16  C   UNL     1      26.869  29.677  19.399  1.00  0.00     0.184 C 
ATOM     17  C   UNL     1      27.165  28.446  20.207  1.00  0.00     0.178 C 
ATOM     18  O   UNL     1      28.043  28.655  21.256  1.00  0.00    -0.341 OA
ATOM     19  C   UNL     1      28.681  29.860  21.284  1.00  0.00     0.281 C 
ATOM     20  C   UNL     1      26.538  30.786  20.403  1.00  0.00     0.180 C 
ATOM     21  C   UNL     1      27.745  31.043  21.253  1.00  0.00     0.202 C 
BRANCH  17  22
ATOM     22  C   UNL     1      27.766  27.398  19.263  1.00  0.00     0.191 C 
BRANCH  22  23
ATOM     23  O   UNL     1      28.657  26.627  19.996  1.00  0.00    -0.394 OA
ATOM     24  H   UNL     1      29.554  26.679  19.544  1.00  0.00     0.210 HD
ENDBRANCH  22  23
ENDBRANCH  17  22
BRANCH  19  25
ATOM     25  O   UNL     1      29.604  29.990  20.238  1.00  0.00    -0.350 OA
BRANCH  25  26
ATOM     26  C   UNL     1      30.737  30.704  20.630  1.00  0.00     0.169 C 
BRANCH  26  27
ATOM     27  C   UNL     1      31.233  30.015  21.904  1.00  0.00     0.119 C 
BRANCH  27  28
ATOM     28  N   UNL     1      32.133  28.938  21.547  1.00  0.00    -0.092 NA
ATOM     29  N   UNL     1      31.750  27.794  21.389  1.00  0.00     0.001 N 
ATOM     30  N   UNL     1      31.344  26.625  21.376  1.00  0.00    -0.003 NA
ENDBRANCH  27  28
ENDBRANCH  26  27
ENDBRANCH  25  26
ENDBRANCH  19  25
BRANCH  20  31
ATOM     31  O   UNL     1      26.226  31.971  19.712  1.00  0.00    -0.387 OA
ATOM     32  H   UNL     1      26.085  32.709  20.345  1.00  0.00     0.211 HD
ENDBRANCH  20  31
BRANCH  21  33
ATOM     33  O   UNL     1      27.414  31.436  22.549  1.00  0.00    -0.385 OA
ATOM     34  H   UNL     1      26.457  31.723  22.548  1.00  0.00     0.211 HD
ENDBRANCH  21  33
ENDBRANCH  15  16
ENDBRANCH  10  15
BRANCH  12  35
ATOM     35  O   UNL     1      24.276  29.146  15.742  1.00  0.00    -0.385 OA
ATOM     36  H   UNL     1      24.113  29.473  14.822  1.00  0.00     0.211 HD
ENDBRANCH  12  35
BRANCH  13  37
ATOM     37  O   UNL     1      24.181  32.304  15.815  1.00  0.00    -0.387 OA
ATOM     38  H   UNL     1      24.082  32.807  14.962  1.00  0.00     0.211 HD
ENDBRANCH  13  37
BRANCH  14  39
ATOM     39  O   UNL     1      26.660  32.446  17.079  1.00  0.00    -0.387 OA
ATOM     40  H   UNL     1      27.430  33.066  17.103  1.00  0.00     0.211 HD
ENDBRANCH  14  39
ENDBRANCH   8   9
ENDBRANCH   7   8
ENDBRANCH   1   7
BRANCH   1  41
ATOM     41  C   UNL     1      30.967  33.002  15.213  1.00  0.00     0.364 C 
ATOM     42  O   UNL     1      32.243  33.020  15.321  1.00  0.00    -0.246 OA
BRANCH  41  43
ATOM     43  O   UNL     1      30.465  33.151  13.964  1.00  0.00    -0.477 OA
ATOM     44  H   UNL     1      29.508  33.069  13.664  1.00  0.00     0.296 HD
ENDBRANCH  41  43
ENDBRANCH   1  41
BRANCH   3  45
ATOM     45  O   UNL     1      29.004  32.653  18.846  1.00  0.00    -0.391 OA
ATOM     46  H   UNL     1      28.399  32.580  18.067  1.00  0.00     0.211 HD
ENDBRANCH   3  45
BRANCH   5  47
ATOM     47  C   UNL     1      27.952  35.744  16.001  1.00  0.00     0.176 C 
BRANCH  47  48
ATOM     48  O   UNL     1      26.757  35.563  16.649  1.00  0.00    -0.388 OA
ATOM     49  H   UNL     1      26.609  36.167  17.429  1.00  0.00     0.211 HD
ENDBRANCH  47  48
BRANCH  47  50
ATOM     50  C   UNL     1      27.836  35.422  14.541  1.00  0.00     0.165 C 
BRANCH  50  51
ATOM     51  O   UNL     1      29.099  35.763  13.977  1.00  0.00    -0.388 OA
ATOM     52  H   UNL     1      29.614  34.899  14.040  1.00  0.00     0.211 HD
ENDBRANCH  50  51
BRANCH  50  53
ATOM     53  C   UNL     1      26.835  36.292  13.850  1.00  0.00     0.154 C 
BRANCH  53  54
ATOM     54  N   UNL     1      25.901  35.601  13.021  1.00  0.00    -0.319 N 
ATOM     55  C   UNL     1      24.725  35.045  13.578  1.00  0.00     0.407 C 
ATOM     56  H   UNL     1      26.094  35.517  11.992  1.00  0.00     0.167 HD
ATOM     57  O   UNL     1      24.497  35.154  14.791  1.00  0.00    -0.225 OA
BRANCH  55  58
ATOM     58  O   UNL     1      23.812  34.376  12.785  1.00  0.00    -0.443 OA
BRANCH  58  59
ATOM     59  C   UNL     1      23.057  34.913  11.751  1.00  0.00     0.294 C 
BRANCH  59  60
ATOM     60  C   UNL     1      23.831  35.744  10.784  1.00  0.00     0.120 A 
ATOM     61  C   UNL     1      24.440  35.343   9.619  1.00  0.00     0.138 A 
ATOM     62  N   UNL     1      24.069  37.082  10.882  1.00  0.00    -0.132 NA
ATOM     63  N   UNL     1      25.016  36.405   9.049  1.00  0.00    -0.248 N 
ATOM     64  N   UNL     1      24.777  37.439   9.831  1.00  0.00    -0.067 NA
BRANCH  63  65
ATOM     65  C   UNL     1      25.775  36.433   7.785  1.00  0.00     0.177 C 
BRANCH  65  66
ATOM     66  C   UNL     1      27.081  35.763   8.098  1.00  0.00    -0.049 C 
ATOM     67  C   UNL     1      27.107  34.533   8.651  1.00  0.00    -0.025 C 
ATOM     68  C   UNL     1      28.379  36.394   7.821  1.00  0.00     0.023 C 
ATOM     69  C   UNL     1      28.404  33.973   9.090  1.00  0.00     0.031 C 
ATOM     70  C   UNL     1      29.277  35.304   7.222  1.00  0.00     0.013 C 
ATOM     71  C   UNL     1      29.239  36.333   9.047  1.00  0.00    -0.026 C 
ATOM     72  C   UNL     1      29.531  34.874   8.672  1.00  0.00    -0.000 C 
ATOM     73  C   UNL     1      30.516  37.133   8.962  1.00  0.00     0.012 C 
ATOM     74  C   UNL     1      28.571  36.528  10.367  1.00  0.00     0.012 C 
ENDBRANCH  65  66
ENDBRANCH  63  65
ENDBRANCH  59  60
ENDBRANCH  58  59
ENDBRANCH  55  58
ENDBRANCH  53  54
ENDBRANCH  50  53
ENDBRANCH  47  50
ENDBRANCH   5  47
BRANCH   4  75
ATOM     75  N   UNL     1      29.050  36.186  18.653  1.00  0.00    -0.348 N 
ATOM     76  C   UNL     1      28.130  36.944  19.392  1.00  0.00     0.217 C 
ATOM     77  H   UNL     1      29.988  36.631  18.431  1.00  0.00     0.163 HD
ATOM     78  C   UNL     1      28.456  38.319  19.851  1.00  0.00     0.114 C 
ATOM     79  O   UNL     1      27.035  36.410  19.644  1.00  0.00    -0.275 OA
ENDBRANCH   4  75
TORSDOF 31
BEGIN_RES LYS A 131
REMARK  4 active torsions:
REMARK  status: ('A' for Active; 'I' for Inactive)
REMARK    1  A    between atoms: CA   and  CB  
REMARK    2  A    between atoms: CB   and  CG  
REMARK    3  A    between atoms: CG   and  CD  
REMARK    4  A    between atoms: CD   and  CE  
ROOT
ATOM      1  CA  LYS A 131      29.867  25.555  16.977  1.00 20.52     0.186 C 
ENDROOT
BRANCH   1   2
ATOM      2  CB  LYS A 131      28.345  25.722  17.026  1.00 20.94     0.034 C 
BRANCH   2   3
ATOM      3  CG  LYS A 131      27.602  24.398  16.940  1.00 22.96     0.005 C 
BRANCH   3   4
ATOM      4  CD  LYS A 131      26.161  24.529  17.346  1.00 24.33     0.041 C 
BRANCH   4   5
ATOM      5  CE  LYS A 131      25.913  23.722  18.616  1.00 26.91     0.338 C 
ATOM      6  NZ  LYS A 131      25.514  24.615  19.729  1.00 27.40     0.618 N 
ENDBRANCH   4   5
ENDBRANCH   3   4
ENDBRANCH   2   3
ENDBRANCH   1   2
END_RES LYS A 131
BEGIN_RES LYS A 135
REMARK  4 active torsions:
REMARK  status: ('A' for Active; 'I' for Inactive)
REMARK    5  A    between atoms: CA   and  CB  
REMARK    6  A    between atoms: CB   and  CG  
REMARK    7  A    between atoms: CG   and  CD  
REMARK    8  A    between atoms: CD   and  CE  
ROOT
ATOM      7  CA  LYS A 135      33.193  34.663   9.290  1.00 25.02     0.186 C 
ENDROOT
BRANCH   7   8
ATOM      8  CB  LYS A 135      32.060  35.360  10.034  1.00 26.63     0.034 C 
BRANCH   8   9
ATOM      9  CG  LYS A 135      32.003  35.019  11.501  1.00 29.45     0.005 C 
BRANCH   9  10
ATOM     10  CD  LYS A 135      32.266  36.253  12.349  1.00 32.00     0.041 C 
BRANCH  10  11
ATOM     11  CE  LYS A 135      32.898  35.865  13.673  1.00 34.25     0.338 C 
ATOM     12  NZ  LYS A 135      32.263  36.596  14.805  1.00 35.99     0.618 N 
ENDBRANCH  10  11
ENDBRANCH   9  10
ENDBRANCH   8   9
ENDBRANCH   7   8
END_RES LYS A 135
