REMARK VINA RESULT:    -4.230      5.647     10.338
REMARK INTER + INTRA:         -22.315
REMARK INTER:                 -11.809
REMARK INTRA:                 -10.506
REMARK UNBOUND:               -11.408
REMARK SMILES CC(=O)N[C@@H]1[C@@H](O)C[C@](OC[C@H]2O[C@@H](O[C@H]3[C@H](O)[C@@H](O)[C@H](OCCN=[N+]=[N-])O[C@@H]3CO)[C@H](O)[C@@H](O)[C@H]2O)(C(=O)O)O[C@H]1C(O)[C@H](O)CNC(=O)OCc1cn(CS(=O)(=O)c2ccccc2)nn1
REMARK SMILES IDX 9 1 8 2 6 3 5 4 42 5 41 6 10 7 11 8 12 9 14 10 13 11 32 12
REMARK SMILES IDX 34 13 36 14 15 15 16 16 29 17 28 18 21 19 17 20 19 21 30 22
REMARK SMILES IDX 31 23 22 25 23 26 24 27 25 28 26 29 27 30 18 31 20 33 33 35
REMARK SMILES IDX 35 37 37 39 38 41 39 42 40 43 7 45 43 47 44 48 45 50 46 51
REMARK SMILES IDX 47 53 48 54 49 55 50 57 51 58 52 59 53 60 54 61 67 62 55 63
REMARK SMILES IDX 66 64 56 65 57 66 58 67 59 68 60 69 61 70 65 71 62 72 64 73
REMARK SMILES IDX 63 74 4 75 2 76 1 78 3 79
REMARK H PARENT 31 24 18 32 20 34 33 36 35 38 37 40 40 44 7 46 44 49 46 52
REMARK H PARENT 48 56 4 77
REMARK Flexibility Score: inf
ROOT
ATOM      1  C   UNL     1      24.447  36.925   9.151  1.00  0.00     0.272 C 
ATOM      2  C   UNL     1      23.338  35.981   8.923  1.00  0.00     0.113 C 
ATOM      3  C   UNL     1      22.104  36.583   8.282  1.00  0.00     0.145 C 
ATOM      4  C   UNL     1      21.764  37.800   9.069  1.00  0.00     0.142 C 
ATOM      5  C   UNL     1      22.934  38.719   9.282  1.00  0.00     0.178 C 
ATOM      6  O   UNL     1      24.100  38.164   9.665  1.00  0.00    -0.332 OA
ENDROOT
BRANCH   1   7
ATOM      7  O   UNL     1      25.324  37.016   8.091  1.00  0.00    -0.338 OA
BRANCH   7   8
ATOM      8  C   UNL     1      26.555  37.528   8.341  1.00  0.00     0.199 C 
BRANCH   8   9
ATOM      9  C   UNL     1      26.852  38.721   7.407  1.00  0.00     0.179 C 
ATOM     10  C   UNL     1      28.832  39.929   7.877  1.00  0.00     0.282 C 
ATOM     11  O   UNL     1      27.521  39.635   8.122  1.00  0.00    -0.341 OA
ATOM     12  C   UNL     1      29.577  38.760   7.357  1.00  0.00     0.202 C 
ATOM     13  C   UNL     1      28.897  38.135   6.177  1.00  0.00     0.179 C 
ATOM     14  C   UNL     1      27.439  38.346   6.110  1.00  0.00     0.177 C 
BRANCH  10  15
ATOM     15  O   UNL     1      29.334  40.390   9.106  1.00  0.00    -0.341 OA
BRANCH  15  16
ATOM     16  C   UNL     1      29.404  39.483  10.109  1.00  0.00     0.184 C 
ATOM     17  C   UNL     1      28.716  39.945  11.359  1.00  0.00     0.178 C 
ATOM     18  O   UNL     1      28.469  38.815  12.134  1.00  0.00    -0.341 OA
ATOM     19  C   UNL     1      29.530  37.965  12.279  1.00  0.00     0.281 C 
ATOM     20  C   UNL     1      30.867  39.269  10.570  1.00  0.00     0.180 C 
ATOM     21  C   UNL     1      30.840  38.472  11.815  1.00  0.00     0.202 C 
BRANCH  17  22
ATOM     22  C   UNL     1      27.438  40.684  11.168  1.00  0.00     0.191 C 
BRANCH  22  23
ATOM     23  O   UNL     1      26.400  39.774  11.007  1.00  0.00    -0.394 OA
ATOM     24  H   UNL     1      25.754  39.867  11.745  1.00  0.00     0.210 HD
ENDBRANCH  22  23
ENDBRANCH  17  22
BRANCH  19  25
ATOM     25  O   UNL     1      29.215  36.808  11.572  1.00  0.00    -0.350 OA
BRANCH  25  26
ATOM     26  C   UNL     1      28.670  35.817  12.422  1.00  0.00     0.169 C 
BRANCH  26  27
ATOM     27  C   UNL     1      29.629  35.565  13.565  1.00  0.00     0.119 C 
BRANCH  27  28
ATOM     28  N   UNL     1      29.627  34.130  13.835  1.00  0.00    -0.092 NA
ATOM     29  N   UNL     1      28.765  33.693  14.625  1.00  0.00     0.001 N 
ATOM     30  N   UNL     1      28.067  33.367  15.603  1.00  0.00    -0.003 NA
ENDBRANCH  27  28
ENDBRANCH  26  27
ENDBRANCH  25  26
ENDBRANCH  19  25
BRANCH  20  31
ATOM     31  O   UNL     1      31.589  38.615   9.586  1.00  0.00    -0.387 OA
ATOM     32  H   UNL     1      32.546  38.842   9.706  1.00  0.00     0.211 HD
ENDBRANCH  20  31
BRANCH  21  33
ATOM     33  O   UNL     1      31.359  39.283  12.855  1.00  0.00    -0.385 OA
ATOM     34  H   UNL     1      31.741  40.122  12.519  1.00  0.00     0.211 HD
ENDBRANCH  21  33
ENDBRANCH  15  16
ENDBRANCH  10  15
BRANCH  12  35
ATOM     35  O   UNL     1      30.857  39.153   6.850  1.00  0.00    -0.385 OA
ATOM     36  H   UNL     1      31.385  39.385   7.652  1.00  0.00     0.211 HD
ENDBRANCH  12  35
BRANCH  13  37
ATOM     37  O   UNL     1      29.216  36.757   6.090  1.00  0.00    -0.387 OA
ATOM     38  H   UNL     1      28.432  36.262   5.715  1.00  0.00     0.211 HD
ENDBRANCH  13  37
BRANCH  14  39
ATOM     39  O   UNL     1      26.832  37.207   5.549  1.00  0.00    -0.387 OA
ATOM     40  H   UNL     1      26.694  37.386   4.583  1.00  0.00     0.211 HD
ENDBRANCH  14  39
ENDBRANCH   8   9
ENDBRANCH   7   8
ENDBRANCH   1   7
BRANCH   1  41
ATOM     41  C   UNL     1      25.240  36.331  10.305  1.00  0.00     0.364 C 
ATOM     42  O   UNL     1      25.628  37.100  11.200  1.00  0.00    -0.246 OA
BRANCH  41  43
ATOM     43  O   UNL     1      25.511  34.974  10.344  1.00  0.00    -0.477 OA
ATOM     44  H   UNL     1      25.087  34.341   9.649  1.00  0.00     0.296 HD
ENDBRANCH  41  43
ENDBRANCH   1  41
BRANCH   3  45
ATOM     45  O   UNL     1      22.350  36.797   6.954  1.00  0.00    -0.391 OA
ATOM     46  H   UNL     1      22.913  36.044   6.624  1.00  0.00     0.211 HD
ENDBRANCH   3  45
BRANCH   5  47
ATOM     47  C   UNL     1      23.075  39.749   8.186  1.00  0.00     0.176 C 
BRANCH  47  48
ATOM     48  O   UNL     1      21.907  39.950   7.454  1.00  0.00    -0.388 OA
ATOM     49  H   UNL     1      21.100  40.013   7.986  1.00  0.00     0.211 HD
ENDBRANCH  47  48
BRANCH  47  50
ATOM     50  C   UNL     1      23.584  41.089   8.697  1.00  0.00     0.165 C 
BRANCH  50  51
ATOM     51  O   UNL     1      24.878  41.028   9.162  1.00  0.00    -0.388 OA
ATOM     52  H   UNL     1      25.278  41.878   9.404  1.00  0.00     0.211 HD
ENDBRANCH  50  51
BRANCH  50  53
ATOM     53  C   UNL     1      22.678  41.766   9.653  1.00  0.00     0.154 C 
BRANCH  53  54
ATOM     54  N   UNL     1      22.069  40.963  10.669  1.00  0.00    -0.319 N 
ATOM     55  C   UNL     1      22.682  40.506  11.857  1.00  0.00     0.407 C 
ATOM     56  H   UNL     1      21.053  40.676  10.519  1.00  0.00     0.167 HD
ATOM     57  O   UNL     1      23.862  40.798  12.128  1.00  0.00    -0.225 OA
BRANCH  55  58
ATOM     58  O   UNL     1      21.942  39.721  12.727  1.00  0.00    -0.443 OA
BRANCH  58  59
ATOM     59  C   UNL     1      22.174  39.623  14.101  1.00  0.00     0.294 C 
BRANCH  59  60
ATOM     60  C   UNL     1      22.575  38.244  14.440  1.00  0.00     0.120 A 
ATOM     61  C   UNL     1      23.011  37.315  13.510  1.00  0.00     0.139 A 
ATOM     62  N   UNL     1      22.619  37.610  15.622  1.00  0.00    -0.132 NA
ATOM     63  N   UNL     1      23.303  36.163  14.142  1.00  0.00    -0.237 N 
ATOM     64  N   UNL     1      23.050  36.381  15.429  1.00  0.00    -0.066 NA
BRANCH  63  65
ATOM     65  C   UNL     1      23.793  34.952  13.547  1.00  0.00     0.287 C 
BRANCH  65  66
ATOM     66  S   UNL     1      22.359  34.059  12.946  1.00  0.00     0.198 S 
ATOM     67  O   UNL     1      21.966  34.539  11.601  1.00  0.00    -0.222 OA
ATOM     68  O   UNL     1      21.252  34.275  13.964  1.00  0.00    -0.222 OA
BRANCH  66  69
ATOM     69  C   UNL     1      22.782  32.367  12.905  1.00  0.00     0.069 A 
ATOM     70  C   UNL     1      24.059  31.925  13.177  1.00  0.00     0.020 A 
ATOM     71  C   UNL     1      21.842  31.408  12.597  1.00  0.00     0.020 A 
ATOM     72  C   UNL     1      24.393  30.596  13.145  1.00  0.00     0.001 A 
ATOM     73  C   UNL     1      22.160  30.075  12.560  1.00  0.00     0.001 A 
ATOM     74  C   UNL     1      23.442  29.670  12.835  1.00  0.00     0.000 A 
ENDBRANCH  66  69
ENDBRANCH  65  66
ENDBRANCH  63  65
ENDBRANCH  59  60
ENDBRANCH  58  59
ENDBRANCH  55  58
ENDBRANCH  53  54
ENDBRANCH  50  53
ENDBRANCH  47  50
ENDBRANCH   5  47
BRANCH   4  75
ATOM     75  N   UNL     1      21.302  37.385  10.388  1.00  0.00    -0.348 N 
ATOM     76  C   UNL     1      19.943  37.529  10.784  1.00  0.00     0.217 C 
ATOM     77  H   UNL     1      21.959  36.959  11.111  1.00  0.00     0.163 HD
ATOM     78  C   UNL     1      19.519  37.084  12.159  1.00  0.00     0.114 C 
ATOM     79  O   UNL     1      19.088  38.025   9.996  1.00  0.00    -0.275 OA
ENDBRANCH   4  75
TORSDOF 32
BEGIN_RES LYS A 131
REMARK  4 active torsions:
REMARK  status: ('A' for Active; 'I' for Inactive)
REMARK    1  A    between atoms: CA   and  CB  
REMARK    2  A    between atoms: CB   and  CG  
REMARK    3  A    between atoms: CG   and  CD  
REMARK    4  A    between atoms: CD   and  CE  
ROOT
ATOM      1  CA  LYS A 131      29.867  25.555  16.977  1.00 20.52     0.186 C 
ENDROOT
BRANCH   1   2
ATOM      2  CB  LYS A 131      28.345  25.722  17.026  1.00 20.94     0.034 C 
BRANCH   2   3
ATOM      3  CG  LYS A 131      27.600  24.407  16.850  1.00 22.96     0.005 C 
BRANCH   3   4
ATOM      4  CD  LYS A 131      26.175  24.497  17.319  1.00 24.33     0.041 C 
BRANCH   4   5
ATOM      5  CE  LYS A 131      25.671  23.105  17.686  1.00 26.91     0.338 C 
ATOM      6  NZ  LYS A 131      25.353  23.032  19.132  1.00 27.40     0.618 N 
ENDBRANCH   4   5
ENDBRANCH   3   4
ENDBRANCH   2   3
ENDBRANCH   1   2
END_RES LYS A 131
BEGIN_RES LYS A 135
REMARK  4 active torsions:
REMARK  status: ('A' for Active; 'I' for Inactive)
REMARK    5  A    between atoms: CA   and  CB  
REMARK    6  A    between atoms: CB   and  CG  
REMARK    7  A    between atoms: CG   and  CD  
REMARK    8  A    between atoms: CD   and  CE  
ROOT
ATOM      7  CA  LYS A 135      33.193  34.663   9.290  1.00 25.02     0.186 C 
ENDROOT
BRANCH   7   8
ATOM      8  CB  LYS A 135      32.060  35.360  10.034  1.00 26.63     0.034 C 
BRANCH   8   9
ATOM      9  CG  LYS A 135      30.740  35.307   9.308  1.00 29.45     0.005 C 
BRANCH   9  10
ATOM     10  CD  LYS A 135      30.241  33.874   9.208  1.00 32.00     0.041 C 
BRANCH  10  11
ATOM     11  CE  LYS A 135      28.730  33.826   9.335  1.00 34.25     0.338 C 
ATOM     12  NZ  LYS A 135      28.074  34.556   8.215  1.00 35.99     0.618 N 
ENDBRANCH  10  11
ENDBRANCH   9  10
ENDBRANCH   8   9
ENDBRANCH   7   8
END_RES LYS A 135
