REMARK VINA RESULT:    -5.130      5.227     11.962
REMARK INTER + INTRA:         -24.715
REMARK INTER:                 -11.706
REMARK INTRA:                 -13.009
REMARK UNBOUND:               -11.187
REMARK SMILES CC(=O)N[C@@H]1[C@@H](O)C[C@](OC[C@H]2O[C@@H](O[C@H]3[C@H](O)[C@@H](O)[C@H](OCCN=[N+]=[N-])O[C@@H]3CO)[C@H](O)[C@@H](O)[C@H]2O)(C(=O)O)O[C@H]1C(O)[C@H](O)CNC(=O)OCc1cn(-c2ccc(S(=O)(=O)Nc3nccs3)cc2)nn1
REMARK SMILES IDX 43 1 42 2 9 3 8 4 41 5 6 6 5 7 10 8 11 9 12 10 14 11 13 12
REMARK SMILES IDX 32 13 34 14 36 15 15 16 16 17 29 18 28 19 21 20 17 21 19 22
REMARK SMILES IDX 30 23 31 24 22 26 23 27 24 28 25 29 26 30 27 31 18 32 20 34
REMARK SMILES IDX 33 36 35 38 37 40 38 42 39 43 40 44 7 46 4 48 2 49 1 51 3 52
REMARK SMILES IDX 44 53 45 55 46 56 47 58 48 59 49 60 50 62 51 63 52 64 53 65
REMARK SMILES IDX 54 66 72 67 55 68 71 69 56 70 57 71 70 72 58 73 69 74 59 75
REMARK SMILES IDX 60 76 61 77 62 78 63 79 64 81 65 82 68 83 66 84 67 85
REMARK H PARENT 31 25 18 33 20 35 33 37 35 39 37 41 40 45 7 47 4 50 44 54
REMARK H PARENT 46 57 48 61 63 80
REMARK Flexibility Score: inf
ROOT
ATOM      1  C   UNL     1      27.466  38.132   6.700  1.00  0.00     0.176 C 
ENDROOT
BRANCH   1   2
ATOM      2  C   UNL     1      28.352  37.732   7.831  1.00  0.00     0.178 C 
ATOM      3  C   UNL     1      28.948  35.695   8.813  1.00  0.00     0.272 C 
ATOM      4  C   UNL     1      29.797  36.713   9.605  1.00  0.00     0.113 C 
ATOM      5  O   UNL     1      28.039  36.351   8.030  1.00  0.00    -0.332 OA
ATOM      6  C   UNL     1      28.998  37.816  10.187  1.00  0.00     0.145 C 
ATOM      7  C   UNL     1      28.006  38.364   9.157  1.00  0.00     0.142 C 
BRANCH   3   8
ATOM      8  O   UNL     1      28.268  34.878   9.680  1.00  0.00    -0.338 OA
BRANCH   8   9
ATOM      9  C   UNL     1      27.029  34.475   9.248  1.00  0.00     0.199 C 
BRANCH   9  10
ATOM     10  C   UNL     1      25.975  34.514  10.330  1.00  0.00     0.179 C 
ATOM     11  C   UNL     1      25.490  34.707  12.500  1.00  0.00     0.282 C 
ATOM     12  O   UNL     1      26.444  35.064  11.518  1.00  0.00    -0.341 OA
ATOM     13  C   UNL     1      24.338  35.669  12.339  1.00  0.00     0.202 C 
ATOM     14  C   UNL     1      24.437  36.376  10.983  1.00  0.00     0.179 C 
ATOM     15  C   UNL     1      24.791  35.368   9.906  1.00  0.00     0.177 C 
BRANCH  11  16
ATOM     16  O   UNL     1      25.985  34.753  13.759  1.00  0.00    -0.341 OA
BRANCH  16  17
ATOM     17  C   UNL     1      27.162  35.462  13.919  1.00  0.00     0.184 C 
ATOM     18  C   UNL     1      28.303  34.763  14.539  1.00  0.00     0.178 C 
ATOM     19  O   UNL     1      29.103  35.736  15.200  1.00  0.00    -0.341 OA
ATOM     20  C   UNL     1      28.505  36.133  16.404  1.00  0.00     0.281 C 
ATOM     21  C   UNL     1      26.907  36.793  14.614  1.00  0.00     0.180 C 
ATOM     22  C   UNL     1      27.125  36.697  16.125  1.00  0.00     0.202 C 
BRANCH  18  23
ATOM     23  C   UNL     1      29.283  34.130  13.551  1.00  0.00     0.191 C 
BRANCH  23  24
ATOM     24  O   UNL     1      29.100  34.505  12.255  1.00  0.00    -0.394 OA
ATOM     25  H   UNL     1      29.939  34.857  11.881  1.00  0.00     0.210 HD
ENDBRANCH  23  24
ENDBRANCH  18  23
BRANCH  20  26
ATOM     26  O   UNL     1      29.313  37.085  16.984  1.00  0.00    -0.350 OA
BRANCH  26  27
ATOM     27  C   UNL     1      30.553  37.234  16.420  1.00  0.00     0.169 C 
BRANCH  27  28
ATOM     28  C   UNL     1      30.809  38.619  15.874  1.00  0.00     0.119 C 
BRANCH  28  29
ATOM     29  N   UNL     1      30.955  38.497  14.447  1.00  0.00    -0.092 NA
ATOM     30  N   UNL     1      30.490  39.367  13.715  1.00  0.00     0.001 N 
ATOM     31  N   UNL     1      29.740  39.931  12.916  1.00  0.00    -0.003 NA
ENDBRANCH  28  29
ENDBRANCH  27  28
ENDBRANCH  26  27
ENDBRANCH  20  26
BRANCH  21  32
ATOM     32  O   UNL     1      27.782  37.773  14.149  1.00  0.00    -0.387 OA
ATOM     33  H   UNL     1      27.493  38.673  14.426  1.00  0.00     0.211 HD
ENDBRANCH  21  32
BRANCH  22  34
ATOM     34  O   UNL     1      26.108  35.979  16.739  1.00  0.00    -0.385 OA
ATOM     35  H   UNL     1      26.241  36.063  17.709  1.00  0.00     0.211 HD
ENDBRANCH  22  34
ENDBRANCH  16  17
ENDBRANCH  11  16
BRANCH  13  36
ATOM     36  O   UNL     1      23.091  35.000  12.270  1.00  0.00    -0.385 OA
ATOM     37  H   UNL     1      22.886  34.709  11.369  1.00  0.00     0.211 HD
ENDBRANCH  13  36
BRANCH  14  38
ATOM     38  O   UNL     1      25.330  37.435  11.046  1.00  0.00    -0.387 OA
ATOM     39  H   UNL     1      24.875  38.313  10.956  1.00  0.00     0.211 HD
ENDBRANCH  14  38
BRANCH  15  40
ATOM     40  O   UNL     1      25.053  36.068   8.739  1.00  0.00    -0.387 OA
ATOM     41  H   UNL     1      25.921  36.502   8.711  1.00  0.00     0.211 HD
ENDBRANCH  15  40
ENDBRANCH   9  10
ENDBRANCH   8   9
ENDBRANCH   3   8
BRANCH   3  42
ATOM     42  C   UNL     1      29.907  34.943   8.000  1.00  0.00     0.364 C 
ATOM     43  O   UNL     1      30.758  34.151   8.519  1.00  0.00    -0.246 OA
BRANCH  42  44
ATOM     44  O   UNL     1      29.957  35.037   6.620  1.00  0.00    -0.477 OA
ATOM     45  H   UNL     1      30.053  35.959   6.176  1.00  0.00     0.296 HD
ENDBRANCH  42  44
ENDBRANCH   3  42
BRANCH   6  46
ATOM     46  O   UNL     1      28.341  37.459  11.364  1.00  0.00    -0.391 OA
ATOM     47  H   UNL     1      28.513  36.507  11.560  1.00  0.00     0.211 HD
ENDBRANCH   6  46
BRANCH   7  48
ATOM     48  N   UNL     1      28.002  39.783   9.190  1.00  0.00    -0.348 N 
ATOM     49  C   UNL     1      27.329  40.472  10.238  1.00  0.00     0.217 C 
ATOM     50  H   UNL     1      28.479  40.355   8.468  1.00  0.00     0.163 HD
ATOM     51  C   UNL     1      27.277  41.939  10.346  1.00  0.00     0.114 C 
ATOM     52  O   UNL     1      26.733  39.791  11.142  1.00  0.00    -0.275 OA
ENDBRANCH   7  48
ENDBRANCH   1   2
BRANCH   1  53
ATOM     53  O   UNL     1      26.249  37.387   6.802  1.00  0.00    -0.388 OA
ATOM     54  H   UNL     1      26.379  36.469   6.501  1.00  0.00     0.211 HD
ENDBRANCH   1  53
BRANCH   1  55
ATOM     55  C   UNL     1      28.018  37.961   5.314  1.00  0.00     0.165 C 
BRANCH  55  56
ATOM     56  O   UNL     1      29.430  37.810   5.531  1.00  0.00    -0.388 OA
ATOM     57  H   UNL     1      29.913  38.414   4.909  1.00  0.00     0.211 HD
ENDBRANCH  55  56
BRANCH  55  58
ATOM     58  C   UNL     1      27.933  39.252   4.509  1.00  0.00     0.154 C 
BRANCH  58  59
ATOM     59  N   UNL     1      26.600  39.765   4.681  1.00  0.00    -0.319 N 
ATOM     60  C   UNL     1      26.262  41.136   4.532  1.00  0.00     0.407 C 
ATOM     61  H   UNL     1      25.791  39.108   4.934  1.00  0.00     0.167 HD
ATOM     62  O   UNL     1      27.120  41.970   4.221  1.00  0.00    -0.225 OA
BRANCH  60  63
ATOM     63  O   UNL     1      24.962  41.586   4.733  1.00  0.00    -0.443 OA
BRANCH  63  64
ATOM     64  C   UNL     1      24.384  41.916   5.966  1.00  0.00     0.294 C 
BRANCH  64  65
ATOM     65  C   UNL     1      24.256  40.799   6.916  1.00  0.00     0.121 A 
ATOM     66  C   UNL     1      23.093  40.069   7.183  1.00  0.00     0.144 A 
ATOM     67  N   UNL     1      25.181  40.247   7.699  1.00  0.00    -0.131 NA
ATOM     68  N   UNL     1      23.352  39.110   8.109  1.00  0.00    -0.220 N 
ATOM     69  N   UNL     1      24.632  39.244   8.404  1.00  0.00    -0.062 NA
BRANCH  68  70
ATOM     70  C   UNL     1      22.390  38.171   8.619  1.00  0.00     0.066 A 
ATOM     71  C   UNL     1      21.744  38.355   9.808  1.00  0.00     0.030 A 
ATOM     72  C   UNL     1      22.126  37.036   7.872  1.00  0.00     0.030 A 
ATOM     73  C   UNL     1      20.830  37.407  10.264  1.00  0.00     0.024 A 
ATOM     74  C   UNL     1      21.234  36.074   8.279  1.00  0.00     0.024 A 
ATOM     75  C   UNL     1      20.596  36.293   9.493  1.00  0.00     0.088 A 
BRANCH  75  76
ATOM     76  S   UNL     1      19.461  35.083  10.040  1.00  0.00     0.263 S 
ATOM     77  O   UNL     1      19.061  34.251   8.838  1.00  0.00    -0.201 OA
ATOM     78  O   UNL     1      18.235  35.815  10.510  1.00  0.00    -0.201 OA
BRANCH  76  79
ATOM     79  N   UNL     1      20.159  34.142  11.275  1.00  0.00    -0.255 N 
ATOM     80  H   UNL     1      21.051  34.462  11.692  1.00  0.00     0.182 HD
BRANCH  79  81
ATOM     81  C   UNL     1      19.534  32.980  11.696  1.00  0.00     0.196 A 
ATOM     82  N   UNL     1      18.374  32.447  11.715  1.00  0.00    -0.228 NA
ATOM     83  S   UNL     1      20.496  31.629  12.531  1.00  0.00    -0.105 S 
ATOM     84  C   UNL     1      18.077  31.299  12.200  1.00  0.00     0.125 A 
ATOM     85  C   UNL     1      19.058  30.528  12.763  1.00  0.00     0.089 A 
ENDBRANCH  79  81
ENDBRANCH  76  79
ENDBRANCH  75  76
ENDBRANCH  68  70
ENDBRANCH  64  65
ENDBRANCH  63  64
ENDBRANCH  60  63
ENDBRANCH  58  59
ENDBRANCH  55  58
ENDBRANCH   1  55
TORSDOF 33
BEGIN_RES LYS A 131
REMARK  4 active torsions:
REMARK  status: ('A' for Active; 'I' for Inactive)
REMARK    1  A    between atoms: CA   and  CB  
REMARK    2  A    between atoms: CB   and  CG  
REMARK    3  A    between atoms: CG   and  CD  
REMARK    4  A    between atoms: CD   and  CE  
ROOT
ATOM      1  CA  LYS A 131      29.867  25.555  16.977  1.00 20.52     0.186 C 
ENDROOT
BRANCH   1   2
ATOM      2  CB  LYS A 131      28.345  25.722  17.026  1.00 20.94     0.034 C 
BRANCH   2   3
ATOM      3  CG  LYS A 131      27.601  24.403  16.885  1.00 22.96     0.005 C 
BRANCH   3   4
ATOM      4  CD  LYS A 131      26.146  24.533  17.241  1.00 24.33     0.041 C 
BRANCH   4   5
ATOM      5  CE  LYS A 131      25.573  23.153  17.550  1.00 26.91     0.338 C 
ATOM      6  NZ  LYS A 131      24.096  23.166  17.428  1.00 27.40     0.618 N 
ENDBRANCH   4   5
ENDBRANCH   3   4
ENDBRANCH   2   3
ENDBRANCH   1   2
END_RES LYS A 131
BEGIN_RES LYS A 135
REMARK  4 active torsions:
REMARK  status: ('A' for Active; 'I' for Inactive)
REMARK    5  A    between atoms: CA   and  CB  
REMARK    6  A    between atoms: CB   and  CG  
REMARK    7  A    between atoms: CG   and  CD  
REMARK    8  A    between atoms: CD   and  CE  
ROOT
ATOM      7  CA  LYS A 135      33.193  34.663   9.290  1.00 25.02     0.186 C 
ENDROOT
BRANCH   7   8
ATOM      8  CB  LYS A 135      32.060  35.360  10.034  1.00 26.63     0.034 C 
BRANCH   8   9
ATOM      9  CG  LYS A 135      32.534  36.278  11.131  1.00 29.45     0.005 C 
BRANCH   9  10
ATOM     10  CD  LYS A 135      32.062  35.780  12.489  1.00 32.00     0.041 C 
BRANCH  10  11
ATOM     11  CE  LYS A 135      33.228  35.235  13.291  1.00 34.25     0.338 C 
ATOM     12  NZ  LYS A 135      32.787  34.783  14.639  1.00 35.99     0.618 N 
ENDBRANCH  10  11
ENDBRANCH   9  10
ENDBRANCH   8   9
ENDBRANCH   7   8
END_RES LYS A 135
