REMARK VINA RESULT:    -4.278      3.138      7.919
REMARK INTER + INTRA:         -23.029
REMARK INTER:                 -12.556
REMARK INTRA:                 -10.473
REMARK UNBOUND:               -12.122
REMARK SMILES CC(=O)N[C@@H]1[C@@H](O)C[C@](OC[C@H]2O[C@@H](O[C@H]3[C@H](O)[C@@H](O)[C@H](OCCN=[N+]=[N-])O[C@@H]3CO)[C@H](O)[C@@H](O)[C@H]2O)(C(=O)O)O[C@H]1C(O)[C@H](O)CNC(=O)OCc1cn(-c2ccc(O)c([N+](=O)[O-])c2)nn1
REMARK SMILES IDX 9 1 8 2 6 3 5 4 42 5 41 6 10 7 11 8 12 9 14 10 13 11 32 12
REMARK SMILES IDX 34 13 36 14 15 15 16 16 29 17 28 18 21 19 17 20 19 21 30 22
REMARK SMILES IDX 31 23 22 25 23 26 24 27 25 28 26 29 27 30 18 31 20 33 33 35
REMARK SMILES IDX 35 37 37 39 38 41 39 42 40 43 7 45 43 47 44 48 45 50 46 51
REMARK SMILES IDX 47 53 48 54 49 55 50 57 51 58 52 59 53 60 54 61 67 62 55 63
REMARK SMILES IDX 66 64 56 65 57 66 65 67 58 68 61 69 59 70 62 71 63 72 64 73
REMARK SMILES IDX 60 74 4 76 2 77 1 79 3 80
REMARK H PARENT 31 24 18 32 20 34 33 36 35 38 37 40 40 44 7 46 44 49 46 52
REMARK H PARENT 48 56 60 75 4 78
REMARK Flexibility Score: inf
ROOT
ATOM      1  C   UNL     1      28.668  36.403  13.535  1.00  0.00     0.272 C 
ATOM      2  C   UNL     1      28.136  36.876  14.902  1.00  0.00     0.113 C 
ATOM      3  C   UNL     1      28.984  38.051  15.380  1.00  0.00     0.145 C 
ATOM      4  C   UNL     1      30.368  37.419  15.680  1.00  0.00     0.142 C 
ATOM      5  C   UNL     1      30.712  36.430  14.602  1.00  0.00     0.178 C 
ATOM      6  O   UNL     1      30.005  36.713  13.419  1.00  0.00    -0.332 OA
ENDROOT
BRANCH   1   7
ATOM      7  O   UNL     1      27.947  37.135  12.610  1.00  0.00    -0.338 OA
BRANCH   7   8
ATOM      8  C   UNL     1      28.220  36.906  11.295  1.00  0.00     0.199 C 
BRANCH   8   9
ATOM      9  C   UNL     1      27.275  37.845  10.506  1.00  0.00     0.179 C 
ATOM     10  C   UNL     1      27.045  38.516   8.351  1.00  0.00     0.282 C 
ATOM     11  O   UNL     1      27.939  38.122   9.349  1.00  0.00    -0.341 OA
ATOM     12  C   UNL     1      26.311  37.294   7.919  1.00  0.00     0.202 C 
ATOM     13  C   UNL     1      25.487  36.781   9.071  1.00  0.00     0.179 C 
ATOM     14  C   UNL     1      25.945  37.209  10.415  1.00  0.00     0.177 C 
BRANCH  10  15
ATOM     15  O   UNL     1      27.744  39.156   7.319  1.00  0.00    -0.341 OA
BRANCH  15  16
ATOM     16  C   UNL     1      28.907  39.687   7.842  1.00  0.00     0.184 C 
ATOM     17  C   UNL     1      29.112  41.143   7.605  1.00  0.00     0.178 C 
ATOM     18  O   UNL     1      30.145  41.558   8.436  1.00  0.00    -0.341 OA
ATOM     19  C   UNL     1      31.389  41.039   7.970  1.00  0.00     0.281 C 
ATOM     20  C   UNL     1      30.128  38.999   7.175  1.00  0.00     0.180 C 
ATOM     21  C   UNL     1      31.353  39.558   7.893  1.00  0.00     0.202 C 
BRANCH  17  22
ATOM     22  C   UNL     1      27.918  42.013   7.814  1.00  0.00     0.191 C 
BRANCH  22  23
ATOM     23  O   UNL     1      27.020  41.891   6.768  1.00  0.00    -0.394 OA
ATOM     24  H   UNL     1      27.325  42.516   6.035  1.00  0.00     0.210 HD
ENDBRANCH  22  23
ENDBRANCH  17  22
BRANCH  19  25
ATOM     25  O   UNL     1      32.291  41.454   8.944  1.00  0.00    -0.350 OA
BRANCH  25  26
ATOM     26  C   UNL     1      31.722  42.230   9.935  1.00  0.00     0.169 C 
BRANCH  26  27
ATOM     27  C   UNL     1      32.329  41.956  11.276  1.00  0.00     0.119 C 
BRANCH  27  28
ATOM     28  N   UNL     1      31.506  40.958  11.955  1.00  0.00    -0.092 NA
ATOM     29  N   UNL     1      31.389  39.818  11.451  1.00  0.00     0.001 N 
ATOM     30  N   UNL     1      31.503  38.583  11.357  1.00  0.00    -0.003 NA
ENDBRANCH  27  28
ENDBRANCH  26  27
ENDBRANCH  25  26
ENDBRANCH  19  25
BRANCH  20  31
ATOM     31  O   UNL     1      30.105  37.631   7.398  1.00  0.00    -0.387 OA
ATOM     32  H   UNL     1      29.809  37.123   6.593  1.00  0.00     0.211 HD
ENDBRANCH  20  31
BRANCH  21  33
ATOM     33  O   UNL     1      32.442  39.086   7.164  1.00  0.00    -0.385 OA
ATOM     34  H   UNL     1      32.351  39.279   6.211  1.00  0.00     0.211 HD
ENDBRANCH  21  33
ENDBRANCH  15  16
ENDBRANCH  10  15
BRANCH  12  35
ATOM     35  O   UNL     1      25.499  37.500   6.809  1.00  0.00    -0.385 OA
ATOM     36  H   UNL     1      26.037  37.511   5.967  1.00  0.00     0.211 HD
ENDBRANCH  12  35
BRANCH  13  37
ATOM     37  O   UNL     1      25.384  35.394   8.911  1.00  0.00    -0.387 OA
ATOM     38  H   UNL     1      25.233  35.228   7.941  1.00  0.00     0.211 HD
ENDBRANCH  13  37
BRANCH  14  39
ATOM     39  O   UNL     1      25.814  36.111  11.293  1.00  0.00    -0.387 OA
ATOM     40  H   UNL     1      24.884  35.945  11.551  1.00  0.00     0.211 HD
ENDBRANCH  14  39
ENDBRANCH   8   9
ENDBRANCH   7   8
ENDBRANCH   1   7
BRANCH   1  41
ATOM     41  C   UNL     1      28.310  34.993  13.439  1.00  0.00     0.364 C 
ATOM     42  O   UNL     1      29.104  34.039  13.222  1.00  0.00    -0.246 OA
BRANCH  41  43
ATOM     43  O   UNL     1      26.974  34.617  13.597  1.00  0.00    -0.477 OA
ATOM     44  H   UNL     1      26.393  34.317  12.823  1.00  0.00     0.296 HD
ENDBRANCH  41  43
ENDBRANCH   1  41
BRANCH   3  45
ATOM     45  O   UNL     1      29.097  39.018  14.416  1.00  0.00    -0.391 OA
ATOM     46  H   UNL     1      28.450  39.740  14.600  1.00  0.00     0.211 HD
ENDBRANCH   3  45
BRANCH   5  47
ATOM     47  C   UNL     1      32.176  36.555  14.257  1.00  0.00     0.176 C 
BRANCH  47  48
ATOM     48  O   UNL     1      32.823  37.143  15.332  1.00  0.00    -0.388 OA
ATOM     49  H   UNL     1      32.449  36.863  16.204  1.00  0.00     0.211 HD
ENDBRANCH  47  48
BRANCH  47  50
ATOM     50  C   UNL     1      32.850  35.245  13.935  1.00  0.00     0.165 C 
BRANCH  50  51
ATOM     51  O   UNL     1      31.981  34.624  12.997  1.00  0.00    -0.388 OA
ATOM     52  H   UNL     1      31.256  34.121  13.461  1.00  0.00     0.211 HD
ENDBRANCH  50  51
BRANCH  50  53
ATOM     53  C   UNL     1      32.893  34.330  15.125  1.00  0.00     0.154 C 
BRANCH  53  54
ATOM     54  N   UNL     1      31.882  33.313  15.010  1.00  0.00    -0.319 N 
ATOM     55  C   UNL     1      30.894  33.021  15.973  1.00  0.00     0.407 C 
ATOM     56  H   UNL     1      31.853  32.714  14.128  1.00  0.00     0.167 HD
ATOM     57  O   UNL     1      30.893  33.688  17.016  1.00  0.00    -0.225 OA
BRANCH  55  58
ATOM     58  O   UNL     1      29.930  32.049  15.836  1.00  0.00    -0.443 OA
BRANCH  58  59
ATOM     59  C   UNL     1      29.304  31.486  16.960  1.00  0.00     0.294 C 
BRANCH  59  60
ATOM     60  C   UNL     1      28.019  30.868  16.513  1.00  0.00     0.121 A 
ATOM     61  C   UNL     1      27.138  31.404  15.569  1.00  0.00     0.144 A 
ATOM     62  N   UNL     1      27.424  29.728  16.885  1.00  0.00    -0.131 NA
ATOM     63  N   UNL     1      26.103  30.583  15.434  1.00  0.00    -0.220 N 
ATOM     64  N   UNL     1      26.314  29.567  16.257  1.00  0.00    -0.062 NA
BRANCH  63  65
ATOM     65  C   UNL     1      24.968  30.765  14.570  1.00  0.00     0.073 A 
ATOM     66  C   UNL     1      24.141  29.726  14.270  1.00  0.00     0.033 A 
ATOM     67  C   UNL     1      24.675  31.983  14.019  1.00  0.00     0.118 A 
ATOM     68  C   UNL     1      23.043  29.851  13.451  1.00  0.00     0.056 A 
ATOM     69  C   UNL     1      23.556  32.141  13.176  1.00  0.00     0.312 A 
ATOM     70  C   UNL     1      22.721  31.099  12.873  1.00  0.00     0.194 A 
BRANCH  69  71
ATOM     71  N   UNL     1      23.326  33.427  12.657  1.00  0.00     0.066 N 
ATOM     72  O   UNL     1      24.338  34.179  12.496  1.00  0.00    -0.258 OA
ATOM     73  O   UNL     1      22.081  33.865  12.341  1.00  0.00    -0.258 OA
ENDBRANCH  69  71
BRANCH  70  74
ATOM     74  O   UNL     1      21.603  31.169  12.060  1.00  0.00    -0.502 OA
ATOM     75  H   UNL     1      20.801  31.660  12.294  1.00  0.00     0.293 HD
ENDBRANCH  70  74
ENDBRANCH  63  65
ENDBRANCH  59  60
ENDBRANCH  58  59
ENDBRANCH  55  58
ENDBRANCH  53  54
ENDBRANCH  50  53
ENDBRANCH  47  50
ENDBRANCH   5  47
BRANCH   4  76
ATOM     76  N   UNL     1      30.195  36.795  16.976  1.00  0.00    -0.348 N 
ATOM     77  C   UNL     1      30.965  37.211  18.111  1.00  0.00     0.217 C 
ATOM     78  H   UNL     1      29.510  36.030  17.117  1.00  0.00     0.163 HD
ATOM     79  C   UNL     1      30.772  36.557  19.427  1.00  0.00     0.114 C 
ATOM     80  O   UNL     1      31.808  38.145  17.959  1.00  0.00    -0.275 OA
ENDBRANCH   4  76
TORSDOF 32
BEGIN_RES LYS A 131
REMARK  4 active torsions:
REMARK  status: ('A' for Active; 'I' for Inactive)
REMARK    1  A    between atoms: CA   and  CB  
REMARK    2  A    between atoms: CB   and  CG  
REMARK    3  A    between atoms: CG   and  CD  
REMARK    4  A    between atoms: CD   and  CE  
ROOT
ATOM      1  CA  LYS A 131      29.867  25.555  16.977  1.00 20.52     0.186 C 
ENDROOT
BRANCH   1   2
ATOM      2  CB  LYS A 131      28.345  25.722  17.026  1.00 20.94     0.034 C 
BRANCH   2   3
ATOM      3  CG  LYS A 131      27.604  24.394  17.015  1.00 22.96     0.005 C 
BRANCH   3   4
ATOM      4  CD  LYS A 131      26.348  24.439  17.840  1.00 24.33     0.041 C 
BRANCH   4   5
ATOM      5  CE  LYS A 131      25.354  23.411  17.310  1.00 26.91     0.338 C 
ATOM      6  NZ  LYS A 131      24.081  24.068  16.928  1.00 27.40     0.618 N 
ENDBRANCH   4   5
ENDBRANCH   3   4
ENDBRANCH   2   3
ENDBRANCH   1   2
END_RES LYS A 131
BEGIN_RES LYS A 135
REMARK  4 active torsions:
REMARK  status: ('A' for Active; 'I' for Inactive)
REMARK    5  A    between atoms: CA   and  CB  
REMARK    6  A    between atoms: CB   and  CG  
REMARK    7  A    between atoms: CG   and  CD  
REMARK    8  A    between atoms: CD   and  CE  
ROOT
ATOM      7  CA  LYS A 135      33.193  34.663   9.290  1.00 25.02     0.186 C 
ENDROOT
BRANCH   7   8
ATOM      8  CB  LYS A 135      32.060  35.360  10.034  1.00 26.63     0.034 C 
BRANCH   8   9
ATOM      9  CG  LYS A 135      30.736  34.649   9.918  1.00 29.45     0.005 C 
BRANCH   9  10
ATOM     10  CD  LYS A 135      30.333  34.500   8.459  1.00 32.00     0.041 C 
BRANCH  10  11
ATOM     11  CE  LYS A 135      28.823  34.504   8.321  1.00 34.25     0.338 C 
ATOM     12  NZ  LYS A 135      28.180  33.752   9.435  1.00 35.99     0.618 N 
ENDBRANCH  10  11
ENDBRANCH   9  10
ENDBRANCH   8   9
ENDBRANCH   7   8
END_RES LYS A 135
