REMARK VINA RESULT:    -3.795      5.889     11.876
REMARK INTER + INTRA:         -22.499
REMARK INTER:                 -11.441
REMARK INTRA:                 -11.058
REMARK UNBOUND:               -13.046
REMARK SMILES CC(=O)N[C@@H]1[C@@H](O)C[C@](OC[C@H]2O[C@@H](O[C@H]3[C@H](O)[C@@H](O)[C@H](OCCN=[N+]=[N-])O[C@@H]3CO)[C@H](O)[C@@H](O)[C@H]2O)(C(=O)O)O[C@H]1C(O)[C@H](O)CNC(=O)OCc1cn(-c2nc(C)nc(N)n2)nn1
REMARK SMILES IDX 9 1 8 2 6 3 5 4 42 5 41 6 10 7 11 8 12 9 14 10 13 11 32 12
REMARK SMILES IDX 34 13 36 14 15 15 16 16 29 17 28 18 21 19 17 20 19 21 30 22
REMARK SMILES IDX 31 23 22 25 23 26 24 27 25 28 26 29 27 30 18 31 20 33 33 35
REMARK SMILES IDX 35 37 37 39 38 41 39 42 40 43 7 45 43 47 44 48 45 50 46 51
REMARK SMILES IDX 47 53 48 54 49 55 50 57 51 58 52 59 53 60 54 61 65 62 55 63
REMARK SMILES IDX 64 64 56 65 63 66 57 67 61 68 58 69 60 70 59 71 62 72 4 75
REMARK SMILES IDX 2 76 1 78 3 79
REMARK H PARENT 31 24 18 32 20 34 33 36 35 38 37 40 40 44 7 46 44 49 46 52
REMARK H PARENT 48 56 62 73 62 74 4 77
REMARK Flexibility Score: inf
ROOT
ATOM      1  C   UNL     1      23.580  36.294   9.483  1.00  0.00     0.272 C 
ATOM      2  C   UNL     1      22.453  35.724   8.692  1.00  0.00     0.113 C 
ATOM      3  C   UNL     1      21.881  36.733   7.744  1.00  0.00     0.145 C 
ATOM      4  C   UNL     1      21.458  37.946   8.530  1.00  0.00     0.142 C 
ATOM      5  C   UNL     1      22.492  38.388   9.539  1.00  0.00     0.178 C 
ATOM      6  O   UNL     1      23.069  37.391  10.228  1.00  0.00    -0.332 OA
ENDROOT
BRANCH   1   7
ATOM      7  O   UNL     1      24.710  36.516   8.911  1.00  0.00    -0.338 OA
BRANCH   7   8
ATOM      8  C   UNL     1      25.368  36.374   7.826  1.00  0.00     0.199 C 
BRANCH   8   9
ATOM      9  C   UNL     1      26.842  36.268   7.636  1.00  0.00     0.179 C 
ATOM     10  C   UNL     1      28.796  37.289   7.352  1.00  0.00     0.282 C 
ATOM     11  O   UNL     1      27.463  37.460   7.817  1.00  0.00    -0.341 OA
ATOM     12  C   UNL     1      29.486  36.583   8.491  1.00  0.00     0.202 C 
ATOM     13  C   UNL     1      28.896  35.202   8.646  1.00  0.00     0.179 C 
ATOM     14  C   UNL     1      27.500  35.045   8.186  1.00  0.00     0.177 C 
BRANCH  10  15
ATOM     15  O   UNL     1      29.387  38.492   7.075  1.00  0.00    -0.341 OA
BRANCH  15  16
ATOM     16  C   UNL     1      28.501  39.475   6.668  1.00  0.00     0.184 C 
ATOM     17  C   UNL     1      28.689  39.963   5.272  1.00  0.00     0.178 C 
ATOM     18  O   UNL     1      28.834  41.341   5.185  1.00  0.00    -0.341 OA
ATOM     19  C   UNL     1      27.840  42.062   5.834  1.00  0.00     0.281 C 
ATOM     20  C   UNL     1      28.737  40.648   7.638  1.00  0.00     0.180 C 
ATOM     21  C   UNL     1      27.724  41.712   7.288  1.00  0.00     0.202 C 
BRANCH  17  22
ATOM     22  C   UNL     1      27.673  39.456   4.283  1.00  0.00     0.191 C 
BRANCH  22  23
ATOM     23  O   UNL     1      27.314  38.156   4.702  1.00  0.00    -0.394 OA
ATOM     24  H   UNL     1      28.005  37.737   5.259  1.00  0.00     0.210 HD
ENDBRANCH  22  23
ENDBRANCH  17  22
BRANCH  19  25
ATOM     25  O   UNL     1      26.611  41.949   5.247  1.00  0.00    -0.350 OA
BRANCH  25  26
ATOM     26  C   UNL     1      25.553  41.648   6.052  1.00  0.00     0.169 C 
BRANCH  26  27
ATOM     27  C   UNL     1      24.369  42.555   5.859  1.00  0.00     0.119 C 
BRANCH  27  28
ATOM     28  N   UNL     1      23.872  42.941   7.187  1.00  0.00    -0.092 NA
ATOM     29  N   UNL     1      24.622  43.627   7.879  1.00  0.00     0.001 N 
ATOM     30  N   UNL     1      25.262  43.910   8.915  1.00  0.00    -0.003 NA
ENDBRANCH  27  28
ENDBRANCH  26  27
ENDBRANCH  25  26
ENDBRANCH  19  25
BRANCH  20  31
ATOM     31  O   UNL     1      28.628  40.208   8.940  1.00  0.00    -0.387 OA
ATOM     32  H   UNL     1      28.169  40.882   9.513  1.00  0.00     0.211 HD
ENDBRANCH  20  31
BRANCH  21  33
ATOM     33  O   UNL     1      27.980  42.808   8.112  1.00  0.00    -0.385 OA
ATOM     34  H   UNL     1      28.362  42.524   8.980  1.00  0.00     0.211 HD
ENDBRANCH  21  33
ENDBRANCH  15  16
ENDBRANCH  10  15
BRANCH  12  35
ATOM     35  O   UNL     1      30.868  36.519   8.330  1.00  0.00    -0.385 OA
ATOM     36  H   UNL     1      31.051  36.062   7.471  1.00  0.00     0.211 HD
ENDBRANCH  12  35
BRANCH  13  37
ATOM     37  O   UNL     1      29.099  34.822   9.975  1.00  0.00    -0.387 OA
ATOM     38  H   UNL     1      28.394  34.215  10.313  1.00  0.00     0.211 HD
ENDBRANCH  13  37
BRANCH  14  39
ATOM     39  O   UNL     1      26.760  34.353   9.139  1.00  0.00    -0.387 OA
ATOM     40  H   UNL     1      25.926  34.052   8.670  1.00  0.00     0.211 HD
ENDBRANCH  14  39
ENDBRANCH   8   9
ENDBRANCH   7   8
ENDBRANCH   1   7
BRANCH   1  41
ATOM     41  C   UNL     1      23.731  35.262  10.637  1.00  0.00     0.364 C 
ATOM     42  O   UNL     1      24.861  35.113  11.085  1.00  0.00    -0.246 OA
BRANCH  41  43
ATOM     43  O   UNL     1      22.648  34.581  11.096  1.00  0.00    -0.477 OA
ATOM     44  H   UNL     1      21.901  34.218  10.486  1.00  0.00     0.296 HD
ENDBRANCH  41  43
ENDBRANCH   1  41
BRANCH   3  45
ATOM     45  O   UNL     1      22.759  37.167   6.777  1.00  0.00    -0.391 OA
ATOM     46  H   UNL     1      23.672  37.255   7.104  1.00  0.00     0.211 HD
ENDBRANCH   3  45
BRANCH   5  47
ATOM     47  C   UNL     1      23.448  39.426   9.004  1.00  0.00     0.176 C 
BRANCH  47  48
ATOM     48  O   UNL     1      22.832  40.214   8.047  1.00  0.00    -0.388 OA
ATOM     49  H   UNL     1      22.155  40.828   8.383  1.00  0.00     0.211 HD
ENDBRANCH  47  48
BRANCH  47  50
ATOM     50  C   UNL     1      23.964  40.253  10.138  1.00  0.00     0.165 C 
BRANCH  50  51
ATOM     51  O   UNL     1      23.466  41.562  10.003  1.00  0.00    -0.388 OA
ATOM     52  H   UNL     1      24.143  42.184  10.321  1.00  0.00     0.211 HD
ENDBRANCH  50  51
BRANCH  50  53
ATOM     53  C   UNL     1      25.449  40.335  10.248  1.00  0.00     0.154 C 
BRANCH  53  54
ATOM     54  N   UNL     1      26.060  39.044  10.472  1.00  0.00    -0.319 N 
ATOM     55  C   UNL     1      26.189  38.434  11.735  1.00  0.00     0.407 C 
ATOM     56  H   UNL     1      26.447  38.491   9.651  1.00  0.00     0.167 HD
ATOM     57  O   UNL     1      25.767  38.998  12.749  1.00  0.00    -0.225 OA
BRANCH  55  58
ATOM     58  O   UNL     1      26.790  37.190  11.895  1.00  0.00    -0.443 OA
BRANCH  58  59
ATOM     59  C   UNL     1      27.759  36.907  12.872  1.00  0.00     0.294 C 
BRANCH  59  60
ATOM     60  C   UNL     1      28.966  37.775  12.725  1.00  0.00     0.121 A 
ATOM     61  C   UNL     1      29.472  38.278  11.545  1.00  0.00     0.148 A 
ATOM     62  N   UNL     1      29.775  38.220  13.706  1.00  0.00    -0.131 NA
ATOM     63  N   UNL     1      30.562  39.006  11.839  1.00  0.00    -0.185 N 
ATOM     64  N   UNL     1      30.721  38.954  13.146  1.00  0.00    -0.059 NA
BRANCH  63  65
ATOM     65  C   UNL     1      31.352  39.683  10.871  1.00  0.00     0.257 A 
ATOM     66  N   UNL     1      31.555  39.114   9.667  1.00  0.00    -0.175 NA
ATOM     67  N   UNL     1      31.923  40.884  11.074  1.00  0.00    -0.196 NA
ATOM     68  C   UNL     1      32.298  39.715   8.704  1.00  0.00     0.225 A 
ATOM     69  C   UNL     1      32.662  41.507  10.150  1.00  0.00     0.133 A 
ATOM     70  N   UNL     1      32.846  40.921   8.971  1.00  0.00    -0.198 NA
ATOM     71  C   UNL     1      33.283  42.850  10.422  1.00  0.00     0.090 C 
BRANCH  68  72
ATOM     72  N   UNL     1      32.480  39.074   7.458  1.00  0.00    -0.368 N 
ATOM     73  H   UNL     1      33.418  38.997   7.018  1.00  0.00     0.159 HD
ATOM     74  H   UNL     1      31.671  38.664   6.952  1.00  0.00     0.159 HD
ENDBRANCH  68  72
ENDBRANCH  63  65
ENDBRANCH  59  60
ENDBRANCH  58  59
ENDBRANCH  55  58
ENDBRANCH  53  54
ENDBRANCH  50  53
ENDBRANCH  47  50
ENDBRANCH   5  47
BRANCH   4  75
ATOM     75  N   UNL     1      20.206  37.653   9.196  1.00  0.00    -0.348 N 
ATOM     76  C   UNL     1      19.083  38.517   9.052  1.00  0.00     0.217 C 
ATOM     77  H   UNL     1      20.075  36.806   9.803  1.00  0.00     0.163 HD
ATOM     78  C   UNL     1      17.821  38.205   9.735  1.00  0.00     0.114 C 
ATOM     79  O   UNL     1      19.180  39.541   8.341  1.00  0.00    -0.275 OA
ENDBRANCH   4  75
TORSDOF 31
BEGIN_RES LYS A 131
REMARK  4 active torsions:
REMARK  status: ('A' for Active; 'I' for Inactive)
REMARK    1  A    between atoms: CA   and  CB  
REMARK    2  A    between atoms: CB   and  CG  
REMARK    3  A    between atoms: CG   and  CD  
REMARK    4  A    between atoms: CD   and  CE  
ROOT
ATOM      1  CA  LYS A 131      29.867  25.555  16.977  1.00 20.52     0.186 C 
ENDROOT
BRANCH   1   2
ATOM      2  CB  LYS A 131      28.345  25.722  17.026  1.00 20.94     0.034 C 
BRANCH   2   3
ATOM      3  CG  LYS A 131      27.601  24.403  16.888  1.00 22.96     0.005 C 
BRANCH   3   4
ATOM      4  CD  LYS A 131      26.488  24.272  17.890  1.00 24.33     0.041 C 
BRANCH   4   5
ATOM      5  CE  LYS A 131      25.172  24.700  17.249  1.00 26.91     0.338 C 
ATOM      6  NZ  LYS A 131      24.286  23.529  17.052  1.00 27.40     0.618 N 
ENDBRANCH   4   5
ENDBRANCH   3   4
ENDBRANCH   2   3
ENDBRANCH   1   2
END_RES LYS A 131
BEGIN_RES LYS A 135
REMARK  4 active torsions:
REMARK  status: ('A' for Active; 'I' for Inactive)
REMARK    5  A    between atoms: CA   and  CB  
REMARK    6  A    between atoms: CB   and  CG  
REMARK    7  A    between atoms: CG   and  CD  
REMARK    8  A    between atoms: CD   and  CE  
ROOT
ATOM      7  CA  LYS A 135      33.193  34.663   9.290  1.00 25.02     0.186 C 
ENDROOT
BRANCH   7   8
ATOM      8  CB  LYS A 135      32.060  35.360  10.034  1.00 26.63     0.034 C 
BRANCH   8   9
ATOM      9  CG  LYS A 135      32.484  35.965  11.347  1.00 29.45     0.005 C 
BRANCH   9  10
ATOM     10  CD  LYS A 135      31.711  35.344  12.500  1.00 32.00     0.041 C 
BRANCH  10  11
ATOM     11  CE  LYS A 135      32.398  35.634  13.820  1.00 34.25     0.338 C 
ATOM     12  NZ  LYS A 135      33.651  34.842  13.958  1.00 35.99     0.618 N 
ENDBRANCH  10  11
ENDBRANCH   9  10
ENDBRANCH   8   9
ENDBRANCH   7   8
END_RES LYS A 135
