REMARK VINA RESULT:    -4.220      3.665      7.079
REMARK INTER + INTRA:         -24.446
REMARK INTER:                 -12.142
REMARK INTRA:                 -12.304
REMARK UNBOUND:               -13.073
REMARK SMILES CC(=O)N[C@@H]1[C@@H](O)C[C@](OC[C@H]2O[C@@H](O[C@H]3[C@H](O)[C@@H](O)[C@H](OCCN=[N+]=[N-])O[C@@H]3CO)[C@H](O)[C@@H](O)[C@H]2O)(C(=O)O)O[C@H]1C(O)[C@H](O)CNC(=O)OCc1cn(C[C@@H](C)CN2CCN(c3ccc(Cl)cc3)CC2)nn1
REMARK SMILES IDX 43 1 42 2 9 3 8 4 41 5 6 6 5 7 10 8 11 9 12 10 14 11 13 12
REMARK SMILES IDX 32 13 34 14 36 15 15 16 16 17 29 18 28 19 21 20 17 21 19 22
REMARK SMILES IDX 30 23 31 24 22 26 23 27 24 28 25 29 26 30 27 31 18 32 20 34
REMARK SMILES IDX 33 36 35 38 37 40 38 42 39 43 40 44 7 46 4 48 2 49 1 51 3 52
REMARK SMILES IDX 44 53 45 55 46 56 47 58 48 59 49 60 50 62 51 63 52 64 53 65
REMARK SMILES IDX 54 66 74 67 55 68 73 69 56 70 57 71 58 72 59 73 60 74 61 75
REMARK SMILES IDX 72 76 62 77 71 78 63 79 64 80 65 81 70 82 66 83 69 84 67 85
REMARK SMILES IDX 68 86
REMARK H PARENT 31 25 18 33 20 35 33 37 35 39 37 41 40 45 7 47 4 50 44 54
REMARK H PARENT 46 57 48 61
REMARK Flexibility Score: inf
ROOT
ATOM      1  C   UNL     1      25.532  36.922  10.873  1.00  0.00     0.176 C 
ENDROOT
BRANCH   1   2
ATOM      2  C   UNL     1      24.886  37.915   9.917  1.00  0.00     0.178 C 
ATOM      3  C   UNL     1      22.947  38.349   8.640  1.00  0.00     0.272 C 
ATOM      4  C   UNL     1      23.811  39.190   7.838  1.00  0.00     0.113 C 
ATOM      5  O   UNL     1      23.732  37.428   9.400  1.00  0.00    -0.332 OA
ATOM      6  C   UNL     1      25.177  38.581   7.588  1.00  0.00     0.145 C 
ATOM      7  C   UNL     1      25.872  38.485   8.954  1.00  0.00     0.142 C 
BRANCH   3   8
ATOM      8  O   UNL     1      22.006  37.585   8.091  1.00  0.00    -0.338 OA
BRANCH   8   9
ATOM      9  C   UNL     1      21.880  36.284   8.103  1.00  0.00     0.199 C 
BRANCH   9  10
ATOM     10  C   UNL     1      20.844  35.564   8.917  1.00  0.00     0.179 C 
ATOM     11  C   UNL     1      19.593  36.144  10.800  1.00  0.00     0.282 C 
ATOM     12  O   UNL     1      20.820  35.919  10.235  1.00  0.00    -0.341 OA
ATOM     13  C   UNL     1      18.952  37.344  10.130  1.00  0.00     0.202 C 
ATOM     14  C   UNL     1      18.825  37.054   8.670  1.00  0.00     0.179 C 
ATOM     15  C   UNL     1      19.477  35.780   8.252  1.00  0.00     0.177 C 
BRANCH  11  16
ATOM     16  O   UNL     1      19.844  36.499  12.148  1.00  0.00    -0.341 OA
BRANCH  16  17
ATOM     17  C   UNL     1      20.743  35.619  12.695  1.00  0.00     0.184 C 
ATOM     18  C   UNL     1      20.079  34.381  13.262  1.00  0.00     0.178 C 
ATOM     19  O   UNL     1      20.116  34.283  14.619  1.00  0.00    -0.341 OA
ATOM     20  C   UNL     1      21.366  34.352  15.208  1.00  0.00     0.281 C 
ATOM     21  C   UNL     1      21.625  36.288  13.743  1.00  0.00     0.180 C 
ATOM     22  C   UNL     1      22.369  35.180  14.453  1.00  0.00     0.202 C 
BRANCH  18  23
ATOM     23  C   UNL     1      20.532  33.115  12.551  1.00  0.00     0.191 C 
BRANCH  23  24
ATOM     24  O   UNL     1      21.582  33.344  11.698  1.00  0.00    -0.394 OA
ATOM     25  H   UNL     1      21.863  32.449  11.335  1.00  0.00     0.210 HD
ENDBRANCH  23  24
ENDBRANCH  18  23
BRANCH  20  26
ATOM     26  O   UNL     1      21.898  33.096  15.473  1.00  0.00    -0.350 OA
BRANCH  26  27
ATOM     27  C   UNL     1      21.088  32.241  16.162  1.00  0.00     0.169 C 
BRANCH  27  28
ATOM     28  C   UNL     1      21.234  30.823  15.688  1.00  0.00     0.119 C 
BRANCH  28  29
ATOM     29  N   UNL     1      22.599  30.381  15.917  1.00  0.00    -0.092 NA
ATOM     30  N   UNL     1      22.872  29.169  15.836  1.00  0.00     0.001 N 
ATOM     31  N   UNL     1      23.005  27.957  15.727  1.00  0.00    -0.003 NA
ENDBRANCH  28  29
ENDBRANCH  27  28
ENDBRANCH  26  27
ENDBRANCH  20  26
BRANCH  21  32
ATOM     32  O   UNL     1      22.574  37.109  13.138  1.00  0.00    -0.387 OA
ATOM     33  H   UNL     1      22.048  37.795  12.630  1.00  0.00     0.211 HD
ENDBRANCH  21  32
BRANCH  22  34
ATOM     34  O   UNL     1      23.238  35.775  15.401  1.00  0.00    -0.385 OA
ATOM     35  H   UNL     1      23.559  35.151  16.071  1.00  0.00     0.211 HD
ENDBRANCH  22  34
ENDBRANCH  16  17
ENDBRANCH  11  16
BRANCH  13  36
ATOM     36  O   UNL     1      17.740  37.587  10.752  1.00  0.00    -0.385 OA
ATOM     37  H   UNL     1      17.100  37.868  10.035  1.00  0.00     0.211 HD
ENDBRANCH  13  36
BRANCH  14  38
ATOM     38  O   UNL     1      19.248  38.118   7.861  1.00  0.00    -0.387 OA
ATOM     39  H   UNL     1      20.083  37.897   7.390  1.00  0.00     0.211 HD
ENDBRANCH  14  38
BRANCH  15  40
ATOM     40  O   UNL     1      19.637  35.727   6.889  1.00  0.00    -0.387 OA
ATOM     41  H   UNL     1      18.984  36.287   6.410  1.00  0.00     0.211 HD
ENDBRANCH  15  40
ENDBRANCH   9  10
ENDBRANCH   8   9
ENDBRANCH   3   8
BRANCH   3  42
ATOM     42  C   UNL     1      22.328  39.160   9.762  1.00  0.00     0.364 C 
ATOM     43  O   UNL     1      22.212  40.430   9.654  1.00  0.00    -0.246 OA
BRANCH  42  44
ATOM     44  O   UNL     1      21.867  38.625  10.938  1.00  0.00    -0.477 OA
ATOM     45  H   UNL     1      20.999  38.106  10.981  1.00  0.00     0.296 HD
ENDBRANCH  42  44
ENDBRANCH   3  42
BRANCH   6  46
ATOM     46  O   UNL     1      24.966  37.305   7.065  1.00  0.00    -0.391 OA
ATOM     47  H   UNL     1      24.172  37.280   6.478  1.00  0.00     0.211 HD
ENDBRANCH   6  46
BRANCH   7  48
ATOM     48  N   UNL     1      26.293  39.825   9.311  1.00  0.00    -0.348 N 
ATOM     49  C   UNL     1      27.651  40.206   9.163  1.00  0.00     0.217 C 
ATOM     50  H   UNL     1      25.624  40.550   9.689  1.00  0.00     0.163 HD
ATOM     51  C   UNL     1      28.048  41.608   9.546  1.00  0.00     0.114 C 
ATOM     52  O   UNL     1      28.545  39.428   8.725  1.00  0.00    -0.275 OA
ENDBRANCH   7  48
ENDBRANCH   1   2
BRANCH   1  53
ATOM     53  O   UNL     1      25.155  37.288  12.164  1.00  0.00    -0.388 OA
ATOM     54  H   UNL     1      24.959  38.252  12.221  1.00  0.00     0.211 HD
ENDBRANCH   1  53
BRANCH   1  55
ATOM     55  C   UNL     1      25.075  35.503  10.680  1.00  0.00     0.165 C 
BRANCH  55  56
ATOM     56  O   UNL     1      23.789  35.241  11.070  1.00  0.00    -0.388 OA
ATOM     57  H   UNL     1      23.736  34.762  11.915  1.00  0.00     0.211 HD
ENDBRANCH  55  56
BRANCH  55  58
ATOM     58  C   UNL     1      26.017  34.472  11.199  1.00  0.00     0.154 C 
BRANCH  58  59
ATOM     59  N   UNL     1      25.533  34.017  12.504  1.00  0.00    -0.319 N 
ATOM     60  C   UNL     1      26.119  34.474  13.708  1.00  0.00     0.407 C 
ATOM     61  H   UNL     1      24.741  33.344  12.540  1.00  0.00     0.167 HD
ATOM     62  O   UNL     1      27.076  35.282  13.629  1.00  0.00    -0.225 OA
BRANCH  60  63
ATOM     63  O   UNL     1      25.639  34.035  14.934  1.00  0.00    -0.443 OA
BRANCH  63  64
ATOM     64  C   UNL     1      25.241  32.669  15.045  1.00  0.00     0.294 C 
BRANCH  64  65
ATOM     65  C   UNL     1      26.335  31.802  15.536  1.00  0.00     0.120 A 
ATOM     66  C   UNL     1      27.593  32.195  15.935  1.00  0.00     0.138 A 
ATOM     67  N   UNL     1      26.317  30.456  15.685  1.00  0.00    -0.132 NA
ATOM     68  N   UNL     1      28.257  31.101  16.296  1.00  0.00    -0.252 N 
ATOM     69  N   UNL     1      27.481  30.051  16.143  1.00  0.00    -0.067 NA
BRANCH  68  70
ATOM     70  C   UNL     1      29.640  31.093  16.774  1.00  0.00     0.150 C 
BRANCH  70  71
ATOM     71  C   UNL     1      30.278  32.475  16.599  1.00  0.00     0.022 C 
ATOM     72  C   UNL     1      30.810  32.858  17.963  1.00  0.00     0.011 C 
BRANCH  71  73
ATOM     73  C   UNL     1      31.374  32.382  15.584  1.00  0.00     0.089 C 
BRANCH  73  74
ATOM     74  N   UNL     1      31.583  33.468  14.719  1.00  0.00    -0.299 NA
ATOM     75  C   UNL     1      32.624  34.381  14.934  1.00  0.00     0.106 C 
ATOM     76  C   UNL     1      30.411  33.963  14.073  1.00  0.00     0.106 C 
ATOM     77  C   UNL     1      32.142  35.832  14.937  1.00  0.00     0.132 C 
ATOM     78  C   UNL     1      30.809  34.974  13.012  1.00  0.00     0.132 C 
ATOM     79  N   UNL     1      31.400  36.089  13.703  1.00  0.00    -0.369 N 
BRANCH  79  80
ATOM     80  C   UNL     1      31.282  37.403  13.237  1.00  0.00     0.037 A 
ATOM     81  C   UNL     1      31.625  37.762  11.936  1.00  0.00     0.027 A 
ATOM     82  C   UNL     1      30.808  38.441  14.030  1.00  0.00     0.027 A 
ATOM     83  C   UNL     1      31.512  39.044  11.452  1.00  0.00     0.022 A 
ATOM     84  C   UNL     1      30.693  39.729  13.547  1.00  0.00     0.022 A 
ATOM     85  C   UNL     1      31.042  40.051  12.254  1.00  0.00     0.041 A 
ATOM     86  Cl  UNL     1      30.899  41.666  11.644  1.00  0.00    -0.084 Cl
ENDBRANCH  79  80
ENDBRANCH  73  74
ENDBRANCH  71  73
ENDBRANCH  70  71
ENDBRANCH  68  70
ENDBRANCH  64  65
ENDBRANCH  63  64
ENDBRANCH  60  63
ENDBRANCH  58  59
ENDBRANCH  55  58
ENDBRANCH   1  55
TORSDOF 34
BEGIN_RES LYS A 131
REMARK  4 active torsions:
REMARK  status: ('A' for Active; 'I' for Inactive)
REMARK    1  A    between atoms: CA   and  CB  
REMARK    2  A    between atoms: CB   and  CG  
REMARK    3  A    between atoms: CG   and  CD  
REMARK    4  A    between atoms: CD   and  CE  
ROOT
ATOM      1  CA  LYS A 131      29.867  25.555  16.977  1.00 20.52     0.186 C 
ENDROOT
BRANCH   1   2
ATOM      2  CB  LYS A 131      28.345  25.722  17.026  1.00 20.94     0.034 C 
BRANCH   2   3
ATOM      3  CG  LYS A 131      27.601  24.401  16.901  1.00 22.96     0.005 C 
BRANCH   3   4
ATOM      4  CD  LYS A 131      26.598  24.209  18.004  1.00 24.33     0.041 C 
BRANCH   4   5
ATOM      5  CE  LYS A 131      25.957  25.550  18.348  1.00 26.91     0.338 C 
ATOM      6  NZ  LYS A 131      25.908  25.740  19.817  1.00 27.40     0.618 N 
ENDBRANCH   4   5
ENDBRANCH   3   4
ENDBRANCH   2   3
ENDBRANCH   1   2
END_RES LYS A 131
BEGIN_RES LYS A 135
REMARK  4 active torsions:
REMARK  status: ('A' for Active; 'I' for Inactive)
REMARK    5  A    between atoms: CA   and  CB  
REMARK    6  A    between atoms: CB   and  CG  
REMARK    7  A    between atoms: CG   and  CD  
REMARK    8  A    between atoms: CD   and  CE  
ROOT
ATOM      7  CA  LYS A 135      33.193  34.663   9.290  1.00 25.02     0.186 C 
ENDROOT
BRANCH   7   8
ATOM      8  CB  LYS A 135      32.060  35.360  10.034  1.00 26.63     0.034 C 
BRANCH   8   9
ATOM      9  CG  LYS A 135      30.809  35.524   9.210  1.00 29.45     0.005 C 
BRANCH   9  10
ATOM     10  CD  LYS A 135      29.933  34.285   9.311  1.00 32.00     0.041 C 
BRANCH  10  11
ATOM     11  CE  LYS A 135      28.684  34.446   8.466  1.00 34.25     0.338 C 
ATOM     12  NZ  LYS A 135      28.968  35.227   7.230  1.00 35.99     0.618 N 
ENDBRANCH  10  11
ENDBRANCH   9  10
ENDBRANCH   8   9
ENDBRANCH   7   8
END_RES LYS A 135
