REMARK VINA RESULT:    -5.244      2.824     10.058
REMARK INTER + INTRA:         -25.024
REMARK INTER:                 -11.731
REMARK INTRA:                 -13.293
REMARK UNBOUND:               -11.349
REMARK SMILES CC(=O)N[C@@H]1[C@@H](O)C[C@](OC[C@H]2O[C@@H](O[C@H]3[C@H](O)[C@@H](O)[C@H](OCCN=[N+]=[N-])O[C@@H]3CO)[C@H](O)[C@@H](O)[C@H]2O)(C(=O)O)O[C@H]1C(O)[C@H](O)CNC(=O)OCc1cn(-c2ccc(-c3c4ccc(=O)cc-4oc4cc(O)ccc34)c(C(=O)[O-])c2)nn1
REMARK SMILES IDX 9 1 8 2 6 3 5 4 42 5 41 6 10 7 11 8 12 9 14 10 13 11 32 12
REMARK SMILES IDX 34 13 36 14 15 15 16 16 29 17 28 18 21 19 17 20 19 21 30 22
REMARK SMILES IDX 31 23 22 25 23 26 24 27 25 28 26 29 27 30 18 31 20 33 33 35
REMARK SMILES IDX 35 37 37 39 38 41 39 42 40 43 7 45 43 47 44 48 45 50 46 51
REMARK SMILES IDX 47 53 48 54 49 55 50 57 51 58 52 59 53 60 54 61 82 62 55 63
REMARK SMILES IDX 81 64 56 65 80 66 57 67 76 68 58 69 59 70 77 71 78 72 79 73
REMARK SMILES IDX 60 74 75 75 61 76 74 77 69 78 67 79 62 80 73 81 70 82 68 83
REMARK SMILES IDX 66 84 63 85 71 86 64 87 65 88 72 89 4 91 2 92 1 94 3 95
REMARK H PARENT 31 24 18 32 20 34 33 36 35 38 37 40 40 44 7 46 44 49 46 52
REMARK H PARENT 48 56 72 90 4 93
REMARK Flexibility Score: inf
ROOT
ATOM      1  C   UNL     1      26.489  35.468  11.382  1.00  0.00     0.272 C 
ATOM      2  C   UNL     1      25.293  36.381  11.273  1.00  0.00     0.113 C 
ATOM      3  C   UNL     1      24.834  36.920  12.599  1.00  0.00     0.145 C 
ATOM      4  C   UNL     1      25.460  36.078  13.683  1.00  0.00     0.142 C 
ATOM      5  C   UNL     1      25.323  34.643  13.247  1.00  0.00     0.178 C 
ATOM      6  O   UNL     1      26.222  34.377  12.245  1.00  0.00    -0.332 OA
ENDROOT
BRANCH   1   7
ATOM      7  O   UNL     1      27.664  36.060  11.752  1.00  0.00    -0.338 OA
BRANCH   7   8
ATOM      8  C   UNL     1      27.939  37.220  11.118  1.00  0.00     0.199 C 
BRANCH   8   9
ATOM      9  C   UNL     1      28.690  38.202  12.029  1.00  0.00     0.179 C 
ATOM     10  C   UNL     1      29.857  38.302  14.015  1.00  0.00     0.282 C 
ATOM     11  O   UNL     1      28.849  37.738  13.283  1.00  0.00    -0.341 OA
ATOM     12  C   UNL     1      30.201  39.694  13.656  1.00  0.00     0.202 C 
ATOM     13  C   UNL     1      30.432  39.881  12.175  1.00  0.00     0.179 C 
ATOM     14  C   UNL     1      29.962  38.652  11.414  1.00  0.00     0.177 C 
BRANCH  10  15
ATOM     15  O   UNL     1      30.903  37.381  14.036  1.00  0.00    -0.341 OA
BRANCH  15  16
ATOM     16  C   UNL     1      30.632  36.260  14.752  1.00  0.00     0.184 C 
ATOM     17  C   UNL     1      31.605  36.036  15.869  1.00  0.00     0.178 C 
ATOM     18  O   UNL     1      31.060  35.156  16.815  1.00  0.00    -0.341 OA
ATOM     19  C   UNL     1      30.421  34.087  16.199  1.00  0.00     0.281 C 
ATOM     20  C   UNL     1      30.716  34.975  13.908  1.00  0.00     0.180 C 
ATOM     21  C   UNL     1      30.953  33.805  14.840  1.00  0.00     0.202 C 
BRANCH  17  22
ATOM     22  C   UNL     1      31.921  37.330  16.554  1.00  0.00     0.191 C 
BRANCH  22  23
ATOM     23  O   UNL     1      32.958  37.962  15.865  1.00  0.00    -0.394 OA
ATOM     24  H   UNL     1      33.332  37.299  15.244  1.00  0.00     0.210 HD
ENDBRANCH  22  23
ENDBRANCH  17  22
BRANCH  19  25
ATOM     25  O   UNL     1      29.053  34.257  16.193  1.00  0.00    -0.350 OA
BRANCH  25  26
ATOM     26  C   UNL     1      28.442  34.015  17.417  1.00  0.00     0.169 C 
BRANCH  26  27
ATOM     27  C   UNL     1      28.531  32.518  17.651  1.00  0.00     0.119 C 
BRANCH  27  28
ATOM     28  N   UNL     1      27.676  31.783  16.758  1.00  0.00    -0.092 NA
ATOM     29  N   UNL     1      28.114  30.755  16.227  1.00  0.00     0.001 N 
ATOM     30  N   UNL     1      28.248  29.606  15.804  1.00  0.00    -0.003 NA
ENDBRANCH  27  28
ENDBRANCH  26  27
ENDBRANCH  25  26
ENDBRANCH  19  25
BRANCH  20  31
ATOM     31  O   UNL     1      29.460  34.805  13.332  1.00  0.00    -0.387 OA
ATOM     32  H   UNL     1      28.884  35.598  13.392  1.00  0.00     0.211 HD
ENDBRANCH  20  31
BRANCH  21  33
ATOM     33  O   UNL     1      32.283  33.384  14.858  1.00  0.00    -0.385 OA
ATOM     34  H   UNL     1      32.363  32.801  15.675  1.00  0.00     0.211 HD
ENDBRANCH  21  33
ENDBRANCH  15  16
ENDBRANCH  10  15
BRANCH  12  35
ATOM     35  O   UNL     1      29.183  40.584  14.087  1.00  0.00    -0.385 OA
ATOM     36  H   UNL     1      29.250  40.676  15.084  1.00  0.00     0.211 HD
ENDBRANCH  12  35
BRANCH  13  37
ATOM     37  O   UNL     1      31.741  40.228  11.883  1.00  0.00    -0.387 OA
ATOM     38  H   UNL     1      31.875  40.112  10.914  1.00  0.00     0.211 HD
ENDBRANCH  13  37
BRANCH  14  39
ATOM     39  O   UNL     1      30.988  37.717  11.447  1.00  0.00    -0.387 OA
ATOM     40  H   UNL     1      30.916  37.272  12.342  1.00  0.00     0.211 HD
ENDBRANCH  14  39
ENDBRANCH   8   9
ENDBRANCH   7   8
ENDBRANCH   1   7
BRANCH   1  41
ATOM     41  C   UNL     1      26.580  34.796  10.024  1.00  0.00     0.364 C 
ATOM     42  O   UNL     1      25.956  35.185   9.021  1.00  0.00    -0.246 OA
BRANCH  41  43
ATOM     43  O   UNL     1      27.396  33.682   9.857  1.00  0.00    -0.477 OA
ATOM     44  H   UNL     1      28.158  33.689   9.193  1.00  0.00     0.296 HD
ENDBRANCH  41  43
ENDBRANCH   1  41
BRANCH   3  45
ATOM     45  O   UNL     1      25.137  38.265  12.679  1.00  0.00    -0.391 OA
ATOM     46  H   UNL     1      25.866  38.369  13.339  1.00  0.00     0.211 HD
ENDBRANCH   3  45
BRANCH   5  47
ATOM     47  C   UNL     1      25.678  33.696  14.398  1.00  0.00     0.176 C 
BRANCH  47  48
ATOM     48  O   UNL     1      27.064  33.418  14.310  1.00  0.00    -0.388 OA
ATOM     49  H   UNL     1      27.443  33.134  15.157  1.00  0.00     0.211 HD
ENDBRANCH  47  48
BRANCH  47  50
ATOM     50  C   UNL     1      24.987  32.382  14.241  1.00  0.00     0.165 C 
BRANCH  50  51
ATOM     51  O   UNL     1      24.682  32.161  12.896  1.00  0.00    -0.388 OA
ATOM     52  H   UNL     1      23.699  32.070  12.808  1.00  0.00     0.211 HD
ENDBRANCH  50  51
BRANCH  50  53
ATOM     53  C   UNL     1      23.793  32.173  15.103  1.00  0.00     0.154 C 
BRANCH  53  54
ATOM     54  N   UNL     1      22.557  32.424  14.396  1.00  0.00    -0.319 N 
ATOM     55  C   UNL     1      21.861  33.656  14.417  1.00  0.00     0.407 C 
ATOM     56  H   UNL     1      22.097  31.668  13.804  1.00  0.00     0.167 HD
ATOM     57  O   UNL     1      22.310  34.614  15.075  1.00  0.00    -0.225 OA
BRANCH  55  58
ATOM     58  O   UNL     1      20.673  33.860  13.725  1.00  0.00    -0.443 OA
BRANCH  58  59
ATOM     59  C   UNL     1      20.416  33.253  12.454  1.00  0.00     0.294 C 
BRANCH  59  60
ATOM     60  C   UNL     1      20.371  34.367  11.473  1.00  0.00     0.121 A 
ATOM     61  C   UNL     1      21.412  35.161  11.078  1.00  0.00     0.144 A 
ATOM     62  N   UNL     1      19.284  34.810  10.780  1.00  0.00    -0.131 NA
ATOM     63  N   UNL     1      20.966  36.057  10.173  1.00  0.00    -0.220 N 
ATOM     64  N   UNL     1      19.667  35.815  10.015  1.00  0.00    -0.062 NA
BRANCH  63  65
ATOM     65  C   UNL     1      21.753  37.048   9.530  1.00  0.00     0.067 A 
ATOM     66  C   UNL     1      22.241  38.143  10.202  1.00  0.00     0.039 A 
ATOM     67  C   UNL     1      22.037  36.902   8.195  1.00  0.00     0.029 A 
ATOM     68  C   UNL     1      23.003  39.073   9.534  1.00  0.00     0.007 A 
ATOM     69  C   UNL     1      22.801  37.836   7.528  1.00  0.00     0.012 A 
ATOM     70  C   UNL     1      23.300  38.940   8.180  1.00  0.00    -0.008 A 
BRANCH  68  71
ATOM     71  C   UNL     1      23.539  40.252  10.219  1.00  0.00     0.072 C 
ATOM     72  O   UNL     1      22.866  41.300  10.366  1.00  0.00    -0.545 OA
ATOM     73  O   UNL     1      24.818  40.213  10.719  1.00  0.00    -0.545 OA
ENDBRANCH  68  71
BRANCH  70  74
ATOM     74  C   UNL     1      24.108  39.927   7.487  1.00  0.00     0.004 A 
ATOM     75  C   UNL     1      23.494  41.034   6.957  1.00  0.00     0.026 A 
ATOM     76  C   UNL     1      25.465  39.789   7.343  1.00  0.00     0.026 A 
ATOM     77  C   UNL     1      22.140  41.255   7.054  1.00  0.00     0.016 A 
ATOM     78  C   UNL     1      24.281  41.969   6.294  1.00  0.00     0.139 A 
ATOM     79  C   UNL     1      26.260  40.812   6.629  1.00  0.00     0.139 A 
ATOM     80  C   UNL     1      26.147  38.711   7.846  1.00  0.00     0.016 A 
ATOM     81  C   UNL     1      21.532  42.374   6.516  1.00  0.00     0.047 A 
ATOM     82  C   UNL     1      23.670  43.078   5.763  1.00  0.00     0.093 A 
ATOM     83  O   UNL     1      25.586  41.829   6.159  1.00  0.00    -0.456 OA
ATOM     84  C   UNL     1      27.617  40.669   6.486  1.00  0.00     0.099 A 
ATOM     85  C   UNL     1      27.517  38.581   7.694  1.00  0.00     0.053 A 
ATOM     86  C   UNL     1      22.304  43.306   5.857  1.00  0.00     0.119 A 
ATOM     87  C   UNL     1      28.226  39.558   7.020  1.00  0.00     0.182 A 
ATOM     88  O   UNL     1      29.470  39.383   6.915  1.00  0.00    -0.290 OA
BRANCH  86  89
ATOM     89  O   UNL     1      21.686  44.425   5.322  1.00  0.00    -0.508 OA
ATOM     90  H   UNL     1      22.169  45.312   5.442  1.00  0.00     0.293 HD
ENDBRANCH  86  89
ENDBRANCH  70  74
ENDBRANCH  63  65
ENDBRANCH  59  60
ENDBRANCH  58  59
ENDBRANCH  55  58
ENDBRANCH  53  54
ENDBRANCH  50  53
ENDBRANCH  47  50
ENDBRANCH   5  47
BRANCH   4  91
ATOM     91  N   UNL     1      24.867  36.314  14.981  1.00  0.00    -0.348 N 
ATOM     92  C   UNL     1      25.450  37.280  15.825  1.00  0.00     0.217 C 
ATOM     93  H   UNL     1      24.026  35.802  15.327  1.00  0.00     0.163 HD
ATOM     94  C   UNL     1      24.927  37.602  17.176  1.00  0.00     0.114 C 
ATOM     95  O   UNL     1      26.482  37.942  15.460  1.00  0.00    -0.275 OA
ENDBRANCH   4  91
TORSDOF 33
BEGIN_RES LYS A 131
REMARK  4 active torsions:
REMARK  status: ('A' for Active; 'I' for Inactive)
REMARK    1  A    between atoms: CA   and  CB  
REMARK    2  A    between atoms: CB   and  CG  
REMARK    3  A    between atoms: CG   and  CD  
REMARK    4  A    between atoms: CD   and  CE  
ROOT
ATOM      1  CA  LYS A 131      29.867  25.555  16.977  1.00 20.52     0.186 C 
ENDROOT
BRANCH   1   2
ATOM      2  CB  LYS A 131      28.345  25.722  17.026  1.00 20.94     0.034 C 
BRANCH   2   3
ATOM      3  CG  LYS A 131      27.601  24.403  16.882  1.00 22.96     0.005 C 
BRANCH   3   4
ATOM      4  CD  LYS A 131      26.542  24.232  17.935  1.00 24.33     0.041 C 
BRANCH   4   5
ATOM      5  CE  LYS A 131      25.196  23.969  17.266  1.00 26.91     0.338 C 
ATOM      6  NZ  LYS A 131      24.769  22.569  17.493  1.00 27.40     0.618 N 
ENDBRANCH   4   5
ENDBRANCH   3   4
ENDBRANCH   2   3
ENDBRANCH   1   2
END_RES LYS A 131
BEGIN_RES LYS A 135
REMARK  4 active torsions:
REMARK  status: ('A' for Active; 'I' for Inactive)
REMARK    5  A    between atoms: CA   and  CB  
REMARK    6  A    between atoms: CB   and  CG  
REMARK    7  A    between atoms: CG   and  CD  
REMARK    8  A    between atoms: CD   and  CE  
ROOT
ATOM      7  CA  LYS A 135      33.193  34.663   9.290  1.00 25.02     0.186 C 
ENDROOT
BRANCH   7   8
ATOM      8  CB  LYS A 135      32.060  35.360  10.034  1.00 26.63     0.034 C 
BRANCH   8   9
ATOM      9  CG  LYS A 135      30.718  34.704   9.839  1.00 29.45     0.005 C 
BRANCH   9  10
ATOM     10  CD  LYS A 135      30.413  34.534   8.359  1.00 32.00     0.041 C 
BRANCH  10  11
ATOM     11  CE  LYS A 135      29.635  35.727   7.836  1.00 34.25     0.338 C 
ATOM     12  NZ  LYS A 135      28.589  35.301   6.864  1.00 35.99     0.618 N 
ENDBRANCH  10  11
ENDBRANCH   9  10
ENDBRANCH   8   9
ENDBRANCH   7   8
END_RES LYS A 135
