REMARK VINA RESULT:    -5.772      0.000      0.000
REMARK INTER + INTRA:         -24.725
REMARK INTER:                 -12.701
REMARK INTRA:                 -12.024
REMARK UNBOUND:                -9.504
REMARK SMILES CC(=O)N[C@@H]1[C@@H](O)C[C@](OC[C@H]2O[C@@H](O[C@H]3[C@H](O)[C@@H](O)[C@H](OCCN=[N+]=[N-])O[C@@H]3CO)[C@H](O)[C@@H](O)[C@H]2O)(C(=O)O)O[C@H]1C(O)[C@H](O)CNC(=O)OCc1cn(COCc2ccccc2)nn1
REMARK SMILES IDX 43 1 42 2 9 3 8 4 41 5 6 6 5 7 10 8 11 9 12 10 14 11 13 12
REMARK SMILES IDX 32 13 34 14 36 15 15 16 16 17 29 18 28 19 21 20 17 21 19 22
REMARK SMILES IDX 30 23 31 24 22 26 23 27 24 28 25 29 26 30 27 31 18 32 20 34
REMARK SMILES IDX 33 36 35 38 37 40 38 42 39 43 40 44 7 46 4 48 2 49 1 51 3 52
REMARK SMILES IDX 44 53 45 55 46 56 47 58 48 59 49 60 50 62 51 63 52 64 53 65
REMARK SMILES IDX 54 66 66 67 55 68 65 69 56 70 57 71 58 72 59 73 60 74 64 75
REMARK SMILES IDX 61 76 63 77 62 78
REMARK H PARENT 31 25 18 33 20 35 33 37 35 39 37 41 40 45 7 47 4 50 44 54
REMARK H PARENT 46 57 48 61
REMARK Flexibility Score: inf
ROOT
ATOM      1  C   UNL     1      22.139  39.978   8.308  1.00  0.00     0.176 C 
ENDROOT
BRANCH   1   2
ATOM      2  C   UNL     1      22.267  38.564   8.915  1.00  0.00     0.178 C 
ATOM      3  C   UNL     1      23.957  36.990   9.183  1.00  0.00     0.272 C 
ATOM      4  C   UNL     1      22.972  35.886   8.814  1.00  0.00     0.113 C 
ATOM      5  O   UNL     1      23.527  38.103   8.529  1.00  0.00    -0.332 OA
ATOM      6  C   UNL     1      21.993  36.402   7.785  1.00  0.00     0.145 C 
ATOM      7  C   UNL     1      21.232  37.624   8.383  1.00  0.00     0.142 C 
BRANCH   3   8
ATOM      8  O   UNL     1      25.254  36.629   8.768  1.00  0.00    -0.338 OA
BRANCH   8   9
ATOM      9  C   UNL     1      25.544  35.319   8.719  1.00  0.00     0.199 C 
BRANCH   9  10
ATOM     10  C   UNL     1      26.867  35.094   8.026  1.00  0.00     0.179 C 
ATOM     11  C   UNL     1      28.590  36.004   6.870  1.00  0.00     0.282 C 
ATOM     12  O   UNL     1      27.380  36.311   7.534  1.00  0.00    -0.341 OA
ATOM     13  C   UNL     1      29.692  35.719   7.884  1.00  0.00     0.202 C 
ATOM     14  C   UNL     1      28.969  35.448   9.212  1.00  0.00     0.179 C 
ATOM     15  C   UNL     1      27.890  34.438   8.880  1.00  0.00     0.177 C 
BRANCH  11  16
ATOM     16  O   UNL     1      28.960  37.105   6.147  1.00  0.00    -0.341 OA
BRANCH  16  17
ATOM     17  C   UNL     1      28.423  38.296   6.617  1.00  0.00     0.184 C 
ATOM     18  C   UNL     1      27.293  38.804   5.795  1.00  0.00     0.178 C 
ATOM     19  O   UNL     1      27.762  39.286   4.610  1.00  0.00    -0.341 OA
ATOM     20  C   UNL     1      28.525  40.426   4.703  1.00  0.00     0.281 C 
ATOM     21  C   UNL     1      29.512  39.302   6.749  1.00  0.00     0.180 C 
ATOM     22  C   UNL     1      29.460  40.479   5.847  1.00  0.00     0.202 C 
BRANCH  18  23
ATOM     23  C   UNL     1      26.487  39.802   6.593  1.00  0.00     0.191 C 
BRANCH  23  24
ATOM     24  O   UNL     1      26.256  39.342   7.895  1.00  0.00    -0.394 OA
ATOM     25  H   UNL     1      25.409  38.829   7.917  1.00  0.00     0.210 HD
ENDBRANCH  23  24
ENDBRANCH  18  23
BRANCH  20  26
ATOM     26  O   UNL     1      27.635  41.503   4.793  1.00  0.00    -0.350 OA
BRANCH  26  27
ATOM     27  C   UNL     1      27.495  42.218   3.631  1.00  0.00     0.169 C 
BRANCH  27  28
ATOM     28  C   UNL     1      26.114  42.849   3.667  1.00  0.00     0.119 C 
BRANCH  28  29
ATOM     29  N   UNL     1      25.142  41.996   4.312  1.00  0.00    -0.092 NA
ATOM     30  N   UNL     1      24.424  42.444   5.225  1.00  0.00     0.001 N 
ATOM     31  N   UNL     1      24.161  42.730   6.409  1.00  0.00    -0.003 NA
ENDBRANCH  28  29
ENDBRANCH  27  28
ENDBRANCH  26  27
ENDBRANCH  20  26
BRANCH  21  32
ATOM     32  O   UNL     1      29.535  39.812   8.077  1.00  0.00    -0.387 OA
ATOM     33  H   UNL     1      30.049  40.631   8.144  1.00  0.00     0.211 HD
ENDBRANCH  21  32
BRANCH  22  34
ATOM     34  O   UNL     1      30.757  40.657   5.297  1.00  0.00    -0.385 OA
ATOM     35  H   UNL     1      31.140  39.745   5.215  1.00  0.00     0.211 HD
ENDBRANCH  22  34
ENDBRANCH  16  17
ENDBRANCH  11  16
BRANCH  13  36
ATOM     36  O   UNL     1      30.381  34.543   7.587  1.00  0.00    -0.385 OA
ATOM     37  H   UNL     1      29.737  33.797   7.672  1.00  0.00     0.211 HD
ENDBRANCH  13  36
BRANCH  14  38
ATOM     38  O   UNL     1      28.360  36.651   9.544  1.00  0.00    -0.387 OA
ATOM     39  H   UNL     1      27.455  36.758   9.158  1.00  0.00     0.211 HD
ENDBRANCH  14  38
BRANCH  15  40
ATOM     40  O   UNL     1      27.376  33.828  10.014  1.00  0.00    -0.387 OA
ATOM     41  H   UNL     1      27.464  34.381  10.832  1.00  0.00     0.211 HD
ENDBRANCH  15  40
ENDBRANCH   9  10
ENDBRANCH   8   9
ENDBRANCH   3   8
BRANCH   3  42
ATOM     42  C   UNL     1      24.056  37.209  10.625  1.00  0.00     0.364 C 
ATOM     43  O   UNL     1      23.330  36.715  11.527  1.00  0.00    -0.246 OA
BRANCH  42  44
ATOM     44  O   UNL     1      25.071  38.067  11.114  1.00  0.00    -0.477 OA
ATOM     45  H   UNL     1      25.547  37.859  11.991  1.00  0.00     0.296 HD
ENDBRANCH  42  44
ENDBRANCH   3  42
BRANCH   6  46
ATOM     46  O   UNL     1      22.495  36.793   6.594  1.00  0.00    -0.391 OA
ATOM     47  H   UNL     1      21.996  37.570   6.193  1.00  0.00     0.211 HD
ENDBRANCH   6  46
BRANCH   7  48
ATOM     48  N   UNL     1      20.411  37.044   9.418  1.00  0.00    -0.348 N 
ATOM     49  C   UNL     1      19.052  36.786   9.144  1.00  0.00     0.217 C 
ATOM     50  H   UNL     1      20.802  36.827  10.337  1.00  0.00     0.163 HD
ATOM     51  C   UNL     1      18.189  36.176  10.190  1.00  0.00     0.114 C 
ATOM     52  O   UNL     1      18.551  37.063   8.008  1.00  0.00    -0.275 OA
ENDBRANCH   7  48
ENDBRANCH   1   2
BRANCH   1  53
ATOM     53  O   UNL     1      23.211  40.074   7.340  1.00  0.00    -0.388 OA
ATOM     54  H   UNL     1      23.352  39.136   7.012  1.00  0.00     0.211 HD
ENDBRANCH   1  53
BRANCH   1  55
ATOM     55  C   UNL     1      22.360  41.096   9.264  1.00  0.00     0.165 C 
BRANCH  55  56
ATOM     56  O   UNL     1      22.294  42.370   8.776  1.00  0.00    -0.388 OA
ATOM     57  H   UNL     1      22.802  42.524   7.949  1.00  0.00     0.211 HD
ENDBRANCH  55  56
BRANCH  55  58
ATOM     58  C   UNL     1      23.360  40.956  10.346  1.00  0.00     0.154 C 
BRANCH  58  59
ATOM     59  N   UNL     1      24.748  40.909   9.981  1.00  0.00    -0.319 N 
ATOM     60  C   UNL     1      25.565  42.050   9.767  1.00  0.00     0.407 C 
ATOM     61  H   UNL     1      25.226  39.988   9.868  1.00  0.00     0.167 HD
ATOM     62  O   UNL     1      25.094  43.185   9.904  1.00  0.00    -0.225 OA
BRANCH  60  63
ATOM     63  O   UNL     1      26.914  41.985   9.402  1.00  0.00    -0.443 OA
BRANCH  63  64
ATOM     64  C   UNL     1      27.921  41.940  10.415  1.00  0.00     0.294 C 
BRANCH  64  65
ATOM     65  C   UNL     1      27.986  40.625  11.091  1.00  0.00     0.120 A 
ATOM     66  C   UNL     1      28.365  40.459  12.407  1.00  0.00     0.141 A 
ATOM     67  N   UNL     1      27.722  39.401  10.618  1.00  0.00    -0.132 NA
ATOM     68  N   UNL     1      28.320  39.133  12.686  1.00  0.00    -0.226 N 
ATOM     69  N   UNL     1      27.926  38.521  11.580  1.00  0.00    -0.065 NA
BRANCH  68  70
ATOM     70  C   UNL     1      28.625  38.470  13.934  1.00  0.00     0.307 C 
BRANCH  70  71
ATOM     71  O   UNL     1      29.524  37.451  13.771  1.00  0.00    -0.355 OA
BRANCH  71  72
ATOM     72  C   UNL     1      28.915  36.235  14.039  1.00  0.00     0.198 C 
BRANCH  72  73
ATOM     73  C   UNL     1      29.964  35.260  14.505  1.00  0.00    -0.022 A 
ATOM     74  C   UNL     1      29.714  33.914  14.334  1.00  0.00     0.006 A 
ATOM     75  C   UNL     1      31.127  35.702  15.083  1.00  0.00     0.006 A 
ATOM     76  C   UNL     1      30.649  32.990  14.750  1.00  0.00     0.000 A 
ATOM     77  C   UNL     1      32.037  34.770  15.487  1.00  0.00     0.000 A 
ATOM     78  C   UNL     1      31.826  33.408  15.333  1.00  0.00     0.000 A 
ENDBRANCH  72  73
ENDBRANCH  71  72
ENDBRANCH  70  71
ENDBRANCH  68  70
ENDBRANCH  64  65
ENDBRANCH  63  64
ENDBRANCH  60  63
ENDBRANCH  58  59
ENDBRANCH  55  58
ENDBRANCH   1  55
TORSDOF 33
BEGIN_RES LYS A 131
REMARK  4 active torsions:
REMARK  status: ('A' for Active; 'I' for Inactive)
REMARK    1  A    between atoms: CA   and  CB  
REMARK    2  A    between atoms: CB   and  CG  
REMARK    3  A    between atoms: CG   and  CD  
REMARK    4  A    between atoms: CD   and  CE  
ROOT
ATOM      1  CA  LYS A 131      29.867  25.555  16.977  1.00 20.52     0.186 C 
ENDROOT
BRANCH   1   2
ATOM      2  CB  LYS A 131      28.345  25.722  17.026  1.00 20.94     0.034 C 
BRANCH   2   3
ATOM      3  CG  LYS A 131      27.601  24.402  16.889  1.00 22.96     0.005 C 
BRANCH   3   4
ATOM      4  CD  LYS A 131      26.486  24.274  17.889  1.00 24.33     0.041 C 
BRANCH   4   5
ATOM      5  CE  LYS A 131      25.663  23.028  17.577  1.00 26.91     0.338 C 
ATOM      6  NZ  LYS A 131      24.302  23.405  17.128  1.00 27.40     0.618 N 
ENDBRANCH   4   5
ENDBRANCH   3   4
ENDBRANCH   2   3
ENDBRANCH   1   2
END_RES LYS A 131
BEGIN_RES LYS A 135
REMARK  4 active torsions:
REMARK  status: ('A' for Active; 'I' for Inactive)
REMARK    5  A    between atoms: CA   and  CB  
REMARK    6  A    between atoms: CB   and  CG  
REMARK    7  A    between atoms: CG   and  CD  
REMARK    8  A    between atoms: CD   and  CE  
ROOT
ATOM      7  CA  LYS A 135      33.193  34.663   9.290  1.00 25.02     0.186 C 
ENDROOT
BRANCH   7   8
ATOM      8  CB  LYS A 135      32.060  35.360  10.034  1.00 26.63     0.034 C 
BRANCH   8   9
ATOM      9  CG  LYS A 135      32.360  35.611  11.489  1.00 29.45     0.005 C 
BRANCH   9  10
ATOM     10  CD  LYS A 135      32.246  37.093  11.813  1.00 32.00     0.041 C 
BRANCH  10  11
ATOM     11  CE  LYS A 135      31.500  37.823  10.712  1.00 34.25     0.338 C 
ATOM     12  NZ  LYS A 135      31.495  39.292  10.952  1.00 35.99     0.618 N 
ENDBRANCH  10  11
ENDBRANCH   9  10
ENDBRANCH   8   9
ENDBRANCH   7   8
END_RES LYS A 135
