REMARK VINA RESULT:    -5.037      5.214     10.878
REMARK INTER + INTRA:         -24.469
REMARK INTER:                 -10.891
REMARK INTRA:                 -13.578
REMARK UNBOUND:               -11.187
REMARK SMILES CC(=O)N[C@@H]1[C@@H](O)C[C@](OC[C@H]2O[C@@H](O[C@H]3[C@H](O)[C@@H](O)[C@H](OCCN=[N+]=[N-])O[C@@H]3CO)[C@H](O)[C@@H](O)[C@H]2O)(C(=O)O)O[C@H]1C(O)[C@H](O)CNC(=O)OCc1cn(-c2ccc(S(=O)(=O)Nc3nccs3)cc2)nn1
REMARK SMILES IDX 43 1 42 2 9 3 8 4 41 5 6 6 5 7 10 8 11 9 12 10 14 11 13 12
REMARK SMILES IDX 32 13 34 14 36 15 15 16 16 17 29 18 28 19 21 20 17 21 19 22
REMARK SMILES IDX 30 23 31 24 22 26 23 27 24 28 25 29 26 30 27 31 18 32 20 34
REMARK SMILES IDX 33 36 35 38 37 40 38 42 39 43 40 44 7 46 4 48 2 49 1 51 3 52
REMARK SMILES IDX 44 53 45 55 46 56 47 58 48 59 49 60 50 62 51 63 52 64 53 65
REMARK SMILES IDX 54 66 72 67 55 68 71 69 56 70 57 71 70 72 58 73 69 74 59 75
REMARK SMILES IDX 60 76 61 77 62 78 63 79 64 81 65 82 68 83 66 84 67 85
REMARK H PARENT 31 25 18 33 20 35 33 37 35 39 37 41 40 45 7 47 4 50 44 54
REMARK H PARENT 46 57 48 61 63 80
REMARK Flexibility Score: inf
ROOT
ATOM      1  C   UNL     1      24.093  39.535   8.293  1.00  0.00     0.176 C 
ENDROOT
BRANCH   1   2
ATOM      2  C   UNL     1      25.394  39.711   7.585  1.00  0.00     0.178 C 
ATOM      3  C   UNL     1      27.322  38.412   7.334  1.00  0.00     0.272 C 
ATOM      4  C   UNL     1      27.633  39.649   6.464  1.00  0.00     0.113 C 
ATOM      5  O   UNL     1      26.193  38.630   8.073  1.00  0.00    -0.332 OA
ATOM      6  C   UNL     1      27.475  40.931   7.189  1.00  0.00     0.145 C 
ATOM      7  C   UNL     1      26.174  40.937   7.995  1.00  0.00     0.142 C 
BRANCH   3   8
ATOM      8  O   UNL     1      28.364  38.170   8.193  1.00  0.00    -0.338 OA
BRANCH   8   9
ATOM      9  C   UNL     1      27.998  37.845   9.475  1.00  0.00     0.199 C 
BRANCH   9  10
ATOM     10  C   UNL     1      28.859  38.502  10.528  1.00  0.00     0.179 C 
ATOM     11  C   UNL     1      30.681  39.696  11.016  1.00  0.00     0.282 C 
ATOM     12  O   UNL     1      29.730  39.448   9.998  1.00  0.00    -0.341 OA
ATOM     13  C   UNL     1      30.019  40.638  11.992  1.00  0.00     0.202 C 
ATOM     14  C   UNL     1      28.506  40.655  11.754  1.00  0.00     0.179 C 
ATOM     15  C   UNL     1      28.006  39.237  11.549  1.00  0.00     0.177 C 
BRANCH  11  16
ATOM     16  O   UNL     1      31.835  40.222  10.544  1.00  0.00    -0.341 OA
BRANCH  16  17
ATOM     17  C   UNL     1      31.751  40.858   9.318  1.00  0.00     0.184 C 
ATOM     18  C   UNL     1      32.729  40.477   8.282  1.00  0.00     0.178 C 
ATOM     19  O   UNL     1      32.927  41.603   7.435  1.00  0.00    -0.341 OA
ATOM     20  C   UNL     1      33.742  42.556   8.060  1.00  0.00     0.281 C 
ATOM     21  C   UNL     1      31.713  42.371   9.490  1.00  0.00     0.180 C 
ATOM     22  C   UNL     1      33.105  42.993   9.367  1.00  0.00     0.202 C 
BRANCH  18  23
ATOM     23  C   UNL     1      32.249  39.400   7.310  1.00  0.00     0.191 C 
BRANCH  23  24
ATOM     24  O   UNL     1      30.914  39.139   7.370  1.00  0.00    -0.394 OA
ATOM     25  H   UNL     1      30.399  39.972   7.267  1.00  0.00     0.210 HD
ENDBRANCH  23  24
ENDBRANCH  18  23
BRANCH  20  26
ATOM     26  O   UNL     1      33.879  43.625   7.204  1.00  0.00    -0.350 OA
BRANCH  26  27
ATOM     27  C   UNL     1      34.053  44.846   7.802  1.00  0.00     0.169 C 
BRANCH  27  28
ATOM     28  C   UNL     1      33.329  45.972   7.104  1.00  0.00     0.119 C 
BRANCH  28  29
ATOM     29  N   UNL     1      31.917  45.752   7.286  1.00  0.00    -0.092 NA
ATOM     30  N   UNL     1      31.384  46.091   8.339  1.00  0.00     0.001 N 
ATOM     31  N   UNL     1      30.857  46.009   9.451  1.00  0.00    -0.003 NA
ENDBRANCH  28  29
ENDBRANCH  27  28
ENDBRANCH  26  27
ENDBRANCH  20  26
BRANCH  21  32
ATOM     32  O   UNL     1      30.925  42.964   8.505  1.00  0.00    -0.387 OA
ATOM     33  H   UNL     1      31.380  42.963   7.632  1.00  0.00     0.211 HD
ENDBRANCH  21  32
BRANCH  22  34
ATOM     34  O   UNL     1      33.888  42.708  10.477  1.00  0.00    -0.385 OA
ATOM     35  H   UNL     1      34.621  43.363  10.488  1.00  0.00     0.211 HD
ENDBRANCH  22  34
ENDBRANCH  16  17
ENDBRANCH  11  16
BRANCH  13  36
ATOM     36  O   UNL     1      30.136  40.186  13.331  1.00  0.00    -0.385 OA
ATOM     37  H   UNL     1      29.628  40.738  13.943  1.00  0.00     0.211 HD
ENDBRANCH  13  36
BRANCH  14  38
ATOM     38  O   UNL     1      28.184  41.498  10.701  1.00  0.00    -0.387 OA
ATOM     39  H   UNL     1      27.310  41.268  10.292  1.00  0.00     0.211 HD
ENDBRANCH  14  38
BRANCH  15  40
ATOM     40  O   UNL     1      26.679  39.308  11.155  1.00  0.00    -0.387 OA
ATOM     41  H   UNL     1      26.542  39.360  10.195  1.00  0.00     0.211 HD
ENDBRANCH  15  40
ENDBRANCH   9  10
ENDBRANCH   8   9
ENDBRANCH   3   8
BRANCH   3  42
ATOM     42  C   UNL     1      27.134  37.311   6.387  1.00  0.00     0.364 C 
ATOM     43  O   UNL     1      26.669  36.182   6.746  1.00  0.00    -0.246 OA
BRANCH  42  44
ATOM     44  O   UNL     1      27.444  37.418   5.042  1.00  0.00    -0.477 OA
ATOM     45  H   UNL     1      27.259  38.299   4.546  1.00  0.00     0.296 HD
ENDBRANCH  42  44
ENDBRANCH   3  42
BRANCH   6  46
ATOM     46  O   UNL     1      28.564  41.240   8.005  1.00  0.00    -0.391 OA
ATOM     47  H   UNL     1      28.320  41.087   8.949  1.00  0.00     0.211 HD
ENDBRANCH   6  46
BRANCH   7  48
ATOM     48  N   UNL     1      25.509  42.181   7.841  1.00  0.00    -0.348 N 
ATOM     49  C   UNL     1      25.269  43.009   8.973  1.00  0.00     0.217 C 
ATOM     50  H   UNL     1      25.183  42.523   6.917  1.00  0.00     0.163 HD
ATOM     51  C   UNL     1      24.589  44.312   8.900  1.00  0.00     0.114 C 
ATOM     52  O   UNL     1      25.663  42.612  10.123  1.00  0.00    -0.275 OA
ENDBRANCH   7  48
ENDBRANCH   1   2
BRANCH   1  53
ATOM     53  O   UNL     1      24.270  39.933   9.655  1.00  0.00    -0.388 OA
ATOM     54  H   UNL     1      23.713  39.396  10.248  1.00  0.00     0.211 HD
ENDBRANCH   1  53
BRANCH   1  55
ATOM     55  C   UNL     1      23.492  38.159   8.270  1.00  0.00     0.165 C 
BRANCH  55  56
ATOM     56  O   UNL     1      23.247  37.921   6.875  1.00  0.00    -0.388 OA
ATOM     57  H   UNL     1      24.051  38.191   6.360  1.00  0.00     0.211 HD
ENDBRANCH  55  56
BRANCH  55  58
ATOM     58  C   UNL     1      22.092  38.145   8.869  1.00  0.00     0.154 C 
BRANCH  58  59
ATOM     59  N   UNL     1      22.170  37.404  10.100  1.00  0.00    -0.319 N 
ATOM     60  C   UNL     1      21.896  36.014  10.198  1.00  0.00     0.407 C 
ATOM     61  H   UNL     1      22.450  37.891  11.014  1.00  0.00     0.167 HD
ATOM     62  O   UNL     1      21.587  35.358   9.197  1.00  0.00    -0.225 OA
BRANCH  60  63
ATOM     63  O   UNL     1      21.963  35.348  11.416  1.00  0.00    -0.443 OA
BRANCH  63  64
ATOM     64  C   UNL     1      23.052  34.607  11.893  1.00  0.00     0.294 C 
BRANCH  64  65
ATOM     65  C   UNL     1      24.228  35.403  12.282  1.00  0.00     0.121 A 
ATOM     66  C   UNL     1      25.543  34.940  12.382  1.00  0.00     0.144 A 
ATOM     67  N   UNL     1      24.305  36.693  12.606  1.00  0.00    -0.131 NA
ATOM     68  N   UNL     1      26.364  35.954  12.758  1.00  0.00    -0.220 N 
ATOM     69  N   UNL     1      25.579  37.008  12.888  1.00  0.00    -0.062 NA
BRANCH  68  70
ATOM     70  C   UNL     1      27.784  35.841  12.954  1.00  0.00     0.066 A 
ATOM     71  C   UNL     1      28.541  34.908  12.306  1.00  0.00     0.030 A 
ATOM     72  C   UNL     1      28.392  36.710  13.844  1.00  0.00     0.030 A 
ATOM     73  C   UNL     1      29.913  34.832  12.541  1.00  0.00     0.024 A 
ATOM     74  C   UNL     1      29.739  36.674  14.109  1.00  0.00     0.024 A 
ATOM     75  C   UNL     1      30.479  35.712  13.433  1.00  0.00     0.088 A 
BRANCH  75  76
ATOM     76  S   UNL     1      32.194  35.638  13.754  1.00  0.00     0.263 S 
ATOM     77  O   UNL     1      32.543  36.805  14.657  1.00  0.00    -0.201 OA
ATOM     78  O   UNL     1      32.894  35.856  12.442  1.00  0.00    -0.201 OA
BRANCH  76  79
ATOM     79  N   UNL     1      32.593  34.138  14.454  1.00  0.00    -0.255 N 
ATOM     80  H   UNL     1      33.322  33.561  13.997  1.00  0.00     0.182 HD
BRANCH  79  81
ATOM     81  C   UNL     1      31.948  33.719  15.605  1.00  0.00     0.196 A 
ATOM     82  N   UNL     1      31.856  34.025  16.840  1.00  0.00    -0.228 NA
ATOM     83  S   UNL     1      30.802  32.257  15.576  1.00  0.00    -0.105 S 
ATOM     84  C   UNL     1      31.144  33.424  17.720  1.00  0.00     0.125 A 
ATOM     85  C   UNL     1      30.389  32.342  17.353  1.00  0.00     0.089 A 
ENDBRANCH  79  81
ENDBRANCH  76  79
ENDBRANCH  75  76
ENDBRANCH  68  70
ENDBRANCH  64  65
ENDBRANCH  63  64
ENDBRANCH  60  63
ENDBRANCH  58  59
ENDBRANCH  55  58
ENDBRANCH   1  55
TORSDOF 33
BEGIN_RES LYS A 131
REMARK  4 active torsions:
REMARK  status: ('A' for Active; 'I' for Inactive)
REMARK    1  A    between atoms: CA   and  CB  
REMARK    2  A    between atoms: CB   and  CG  
REMARK    3  A    between atoms: CG   and  CD  
REMARK    4  A    between atoms: CD   and  CE  
ROOT
ATOM      1  CA  LYS A 131      29.867  25.555  16.977  1.00 20.52     0.186 C 
ENDROOT
BRANCH   1   2
ATOM      2  CB  LYS A 131      28.345  25.722  17.026  1.00 20.94     0.034 C 
BRANCH   2   3
ATOM      3  CG  LYS A 131      27.601  24.403  16.886  1.00 22.96     0.005 C 
BRANCH   3   4
ATOM      4  CD  LYS A 131      26.655  24.162  18.030  1.00 24.33     0.041 C 
BRANCH   4   5
ATOM      5  CE  LYS A 131      25.537  23.228  17.578  1.00 26.91     0.338 C 
ATOM      6  NZ  LYS A 131      24.467  23.992  16.894  1.00 27.40     0.618 N 
ENDBRANCH   4   5
ENDBRANCH   3   4
ENDBRANCH   2   3
ENDBRANCH   1   2
END_RES LYS A 131
BEGIN_RES LYS A 135
REMARK  4 active torsions:
REMARK  status: ('A' for Active; 'I' for Inactive)
REMARK    5  A    between atoms: CA   and  CB  
REMARK    6  A    between atoms: CB   and  CG  
REMARK    7  A    between atoms: CG   and  CD  
REMARK    8  A    between atoms: CD   and  CE  
ROOT
ATOM      7  CA  LYS A 135      33.193  34.663   9.290  1.00 25.02     0.186 C 
ENDROOT
BRANCH   7   8
ATOM      8  CB  LYS A 135      32.060  35.360  10.034  1.00 26.63     0.034 C 
BRANCH   8   9
ATOM      9  CG  LYS A 135      30.818  35.548   9.201  1.00 29.45     0.005 C 
BRANCH   9  10
ATOM     10  CD  LYS A 135      30.171  34.207   8.892  1.00 32.00     0.041 C 
BRANCH  10  11
ATOM     11  CE  LYS A 135      28.746  34.402   8.410  1.00 34.25     0.338 C 
ATOM     12  NZ  LYS A 135      27.775  33.750   9.331  1.00 35.99     0.618 N 
ENDBRANCH  10  11
ENDBRANCH   9  10
ENDBRANCH   8   9
ENDBRANCH   7   8
END_RES LYS A 135
