REMARK VINA RESULT:    -4.046      3.991      6.321
REMARK INTER + INTRA:         -23.379
REMARK INTER:                 -12.275
REMARK INTRA:                 -11.104
REMARK UNBOUND:               -13.184
REMARK SMILES CC(=O)N[C@@H]1[C@@H](O)C[C@](OC[C@H]2O[C@@H](O[C@H]3[C@H](O)[C@@H](O)[C@H](OCCN=[N+]=[N-])O[C@@H]3CO)[C@H](O)[C@@H](O)[C@H]2O)(C(=O)O)O[C@H]1C(O)[C@H](O)CNC(=O)OCc1cn(-c2cc(Cl)ccc2C(=O)N(C)C)nn1
REMARK SMILES IDX 9 1 8 2 6 3 5 4 42 5 41 6 10 7 11 8 12 9 14 10 13 11 32 12
REMARK SMILES IDX 34 13 36 14 15 15 16 16 29 17 28 18 21 19 17 20 19 21 30 22
REMARK SMILES IDX 31 23 22 25 23 26 24 27 25 28 26 29 27 30 18 31 20 33 33 35
REMARK SMILES IDX 35 37 37 39 38 41 39 42 40 43 7 45 43 47 44 48 45 50 46 51
REMARK SMILES IDX 47 53 48 54 49 55 50 57 51 58 52 59 53 60 54 61 69 62 55 63
REMARK SMILES IDX 68 64 56 65 57 66 62 67 58 68 61 69 59 70 60 71 63 72 64 73
REMARK SMILES IDX 65 74 66 75 67 76 4 77 2 78 1 80 3 81
REMARK H PARENT 31 24 18 32 20 34 33 36 35 38 37 40 40 44 7 46 44 49 46 52
REMARK H PARENT 48 56 4 79
REMARK Flexibility Score: inf
ROOT
ATOM      1  C   UNL     1      31.217  35.889  13.415  1.00  0.00     0.272 C 
ATOM      2  C   UNL     1      31.224  37.213  14.082  1.00  0.00     0.113 C 
ATOM      3  C   UNL     1      29.816  37.636  14.413  1.00  0.00     0.145 C 
ATOM      4  C   UNL     1      29.063  37.697  13.106  1.00  0.00     0.142 C 
ATOM      5  C   UNL     1      29.135  36.421  12.378  1.00  0.00     0.178 C 
ATOM      6  O   UNL     1      30.172  35.573  12.605  1.00  0.00    -0.332 OA
ENDROOT
BRANCH   1   7
ATOM      7  O   UNL     1      31.345  34.854  14.327  1.00  0.00    -0.338 OA
BRANCH   7   8
ATOM      8  C   UNL     1      30.448  33.846  14.296  1.00  0.00     0.199 C 
BRANCH   8   9
ATOM      9  C   UNL     1      30.015  33.500  15.729  1.00  0.00     0.179 C 
ATOM     10  C   UNL     1      28.020  33.123  16.824  1.00  0.00     0.282 C 
ATOM     11  O   UNL     1      28.755  33.984  15.927  1.00  0.00    -0.341 OA
ATOM     12  C   UNL     1      28.957  32.781  17.961  1.00  0.00     0.202 C 
ATOM     13  C   UNL     1      30.068  31.861  17.501  1.00  0.00     0.179 C 
ATOM     14  C   UNL     1      30.294  32.085  16.016  1.00  0.00     0.177 C 
BRANCH  10  15
ATOM     15  O   UNL     1      27.600  32.104  16.082  1.00  0.00    -0.341 OA
BRANCH  15  16
ATOM     16  C   UNL     1      26.260  31.784  15.954  1.00  0.00     0.184 C 
ATOM     17  C   UNL     1      26.198  30.303  15.763  1.00  0.00     0.178 C 
ATOM     18  O   UNL     1      24.863  29.891  15.603  1.00  0.00    -0.341 OA
ATOM     19  C   UNL     1      24.604  30.299  14.249  1.00  0.00     0.281 C 
ATOM     20  C   UNL     1      25.658  32.494  14.769  1.00  0.00     0.180 C 
ATOM     21  C   UNL     1      24.456  31.775  14.237  1.00  0.00     0.202 C 
BRANCH  17  22
ATOM     22  C   UNL     1      26.821  29.570  16.933  1.00  0.00     0.191 C 
BRANCH  22  23
ATOM     23  O   UNL     1      27.984  28.967  16.505  1.00  0.00    -0.394 OA
ATOM     24  H   UNL     1      27.773  28.141  16.003  1.00  0.00     0.210 HD
ENDBRANCH  22  23
ENDBRANCH  17  22
BRANCH  19  25
ATOM     25  O   UNL     1      23.529  29.627  13.815  1.00  0.00    -0.350 OA
BRANCH  25  26
ATOM     26  C   UNL     1      22.397  29.730  14.606  1.00  0.00     0.169 C 
BRANCH  26  27
ATOM     27  C   UNL     1      21.176  30.226  13.858  1.00  0.00     0.119 C 
BRANCH  27  28
ATOM     28  N   UNL     1      21.261  29.891  12.453  1.00  0.00    -0.092 NA
ATOM     29  N   UNL     1      20.569  28.995  11.982  1.00  0.00     0.001 N 
ATOM     30  N   UNL     1      19.730  28.125  11.670  1.00  0.00    -0.003 NA
ENDBRANCH  27  28
ENDBRANCH  26  27
ENDBRANCH  25  26
ENDBRANCH  19  25
BRANCH  20  31
ATOM     31  O   UNL     1      25.243  33.789  15.102  1.00  0.00    -0.387 OA
ATOM     32  H   UNL     1      25.252  33.914  16.095  1.00  0.00     0.211 HD
ENDBRANCH  20  31
BRANCH  21  33
ATOM     33  O   UNL     1      24.210  32.214  12.938  1.00  0.00    -0.385 OA
ATOM     34  H   UNL     1      23.422  32.793  12.861  1.00  0.00     0.211 HD
ENDBRANCH  21  33
ENDBRANCH  15  16
ENDBRANCH  10  15
BRANCH  12  35
ATOM     35  O   UNL     1      29.567  33.991  18.349  1.00  0.00    -0.385 OA
ATOM     36  H   UNL     1      29.569  34.092  19.353  1.00  0.00     0.211 HD
ENDBRANCH  12  35
BRANCH  13  37
ATOM     37  O   UNL     1      29.832  30.529  17.713  1.00  0.00    -0.387 OA
ATOM     38  H   UNL     1      30.650  29.975  17.718  1.00  0.00     0.211 HD
ENDBRANCH  13  37
BRANCH  14  39
ATOM     39  O   UNL     1      29.740  31.135  15.206  1.00  0.00    -0.387 OA
ATOM     40  H   UNL     1      30.124  31.080  14.302  1.00  0.00     0.211 HD
ENDBRANCH  14  39
ENDBRANCH   8   9
ENDBRANCH   7   8
ENDBRANCH   1   7
BRANCH   1  41
ATOM     41  C   UNL     1      32.502  35.782  12.571  1.00  0.00     0.364 C 
ATOM     42  O   UNL     1      32.689  36.703  11.744  1.00  0.00    -0.246 OA
BRANCH  41  43
ATOM     43  O   UNL     1      33.395  34.764  12.688  1.00  0.00    -0.477 OA
ATOM     44  H   UNL     1      34.246  34.674  12.178  1.00  0.00     0.296 HD
ENDBRANCH  41  43
ENDBRANCH   1  41
BRANCH   3  45
ATOM     45  O   UNL     1      29.284  36.796  15.349  1.00  0.00    -0.391 OA
ATOM     46  H   UNL     1      29.355  35.848  15.201  1.00  0.00     0.211 HD
ENDBRANCH   3  45
BRANCH   5  47
ATOM     47  C   UNL     1      27.873  35.568  12.429  1.00  0.00     0.176 C 
BRANCH  47  48
ATOM     48  O   UNL     1      27.308  35.454  13.668  1.00  0.00    -0.388 OA
ATOM     49  H   UNL     1      26.435  34.980  13.689  1.00  0.00     0.211 HD
ENDBRANCH  47  48
BRANCH  47  50
ATOM     50  C   UNL     1      26.843  35.875  11.407  1.00  0.00     0.165 C 
BRANCH  50  51
ATOM     51  O   UNL     1      26.194  37.110  11.649  1.00  0.00    -0.388 OA
ATOM     52  H   UNL     1      25.813  37.140  12.558  1.00  0.00     0.211 HD
ENDBRANCH  50  51
BRANCH  50  53
ATOM     53  C   UNL     1      25.705  34.852  11.629  1.00  0.00     0.154 C 
BRANCH  53  54
ATOM     54  N   UNL     1      24.737  35.377  12.550  1.00  0.00    -0.319 N 
ATOM     55  C   UNL     1      23.355  35.175  12.359  1.00  0.00     0.407 C 
ATOM     56  H   UNL     1      25.029  35.935  13.406  1.00  0.00     0.167 HD
ATOM     57  O   UNL     1      22.928  34.509  11.388  1.00  0.00    -0.225 OA
BRANCH  55  58
ATOM     58  O   UNL     1      22.416  35.713  13.247  1.00  0.00    -0.443 OA
BRANCH  58  59
ATOM     59  C   UNL     1      21.613  36.807  12.900  1.00  0.00     0.294 C 
BRANCH  59  60
ATOM     60  C   UNL     1      22.394  37.826  12.135  1.00  0.00     0.121 A 
ATOM     61  C   UNL     1      21.974  38.389  10.912  1.00  0.00     0.144 A 
ATOM     62  N   UNL     1      23.559  38.396  12.403  1.00  0.00    -0.131 NA
ATOM     63  N   UNL     1      22.891  39.256  10.506  1.00  0.00    -0.219 N 
ATOM     64  N   UNL     1      23.849  39.236  11.443  1.00  0.00    -0.062 NA
BRANCH  63  65
ATOM     65  C   UNL     1      22.976  40.093   9.368  1.00  0.00     0.081 A 
ATOM     66  C   UNL     1      22.569  41.430   9.470  1.00  0.00     0.049 A 
ATOM     67  C   UNL     1      23.403  39.694   8.135  1.00  0.00     0.065 A 
ATOM     68  C   UNL     1      22.600  42.265   8.401  1.00  0.00     0.043 A 
ATOM     69  C   UNL     1      23.434  40.559   7.025  1.00  0.00     0.017 A 
ATOM     70  Cl  UNL     1      22.075  43.931   8.598  1.00  0.00    -0.084 Cl
ATOM     71  C   UNL     1      23.026  41.863   7.165  1.00  0.00     0.021 A 
BRANCH  67  72
ATOM     72  C   UNL     1      23.906  38.337   7.897  1.00  0.00     0.255 C 
ATOM     73  O   UNL     1      23.113  37.472   7.474  1.00  0.00    -0.269 OA
ATOM     74  N   UNL     1      25.247  38.028   8.140  1.00  0.00    -0.345 N 
ATOM     75  C   UNL     1      26.164  39.051   8.636  1.00  0.00     0.146 C 
ATOM     76  C   UNL     1      25.776  36.687   7.901  1.00  0.00     0.146 C 
ENDBRANCH  67  72
ENDBRANCH  63  65
ENDBRANCH  59  60
ENDBRANCH  58  59
ENDBRANCH  55  58
ENDBRANCH  53  54
ENDBRANCH  50  53
ENDBRANCH  47  50
ENDBRANCH   5  47
BRANCH   4  77
ATOM     77  N   UNL     1      29.632  38.822  12.357  1.00  0.00    -0.348 N 
ATOM     78  C   UNL     1      28.830  39.792  11.720  1.00  0.00     0.217 C 
ATOM     79  H   UNL     1      30.663  38.919  12.280  1.00  0.00     0.163 HD
ATOM     80  C   UNL     1      29.398  40.931  10.960  1.00  0.00     0.114 C 
ATOM     81  O   UNL     1      27.577  39.689  11.801  1.00  0.00    -0.275 OA
ENDBRANCH   4  77
TORSDOF 31
BEGIN_RES LYS A 131
REMARK  4 active torsions:
REMARK  status: ('A' for Active; 'I' for Inactive)
REMARK    1  A    between atoms: CA   and  CB  
REMARK    2  A    between atoms: CB   and  CG  
REMARK    3  A    between atoms: CG   and  CD  
REMARK    4  A    between atoms: CD   and  CE  
ROOT
ATOM      1  CA  LYS A 131      29.867  25.555  16.977  1.00 20.52     0.186 C 
ENDROOT
BRANCH   1   2
ATOM      2  CB  LYS A 131      28.345  25.722  17.026  1.00 20.94     0.034 C 
BRANCH   2   3
ATOM      3  CG  LYS A 131      27.601  24.402  16.891  1.00 22.96     0.005 C 
BRANCH   3   4
ATOM      4  CD  LYS A 131      26.162  24.518  17.311  1.00 24.33     0.041 C 
BRANCH   4   5
ATOM      5  CE  LYS A 131      25.981  25.764  18.171  1.00 26.91     0.338 C 
ATOM      6  NZ  LYS A 131      24.822  26.557  17.698  1.00 27.40     0.618 N 
ENDBRANCH   4   5
ENDBRANCH   3   4
ENDBRANCH   2   3
ENDBRANCH   1   2
END_RES LYS A 131
BEGIN_RES LYS A 135
REMARK  4 active torsions:
REMARK  status: ('A' for Active; 'I' for Inactive)
REMARK    5  A    between atoms: CA   and  CB  
REMARK    6  A    between atoms: CB   and  CG  
REMARK    7  A    between atoms: CG   and  CD  
REMARK    8  A    between atoms: CD   and  CE  
ROOT
ATOM      7  CA  LYS A 135      33.193  34.663   9.290  1.00 25.02     0.186 C 
ENDROOT
BRANCH   7   8
ATOM      8  CB  LYS A 135      32.060  35.360  10.034  1.00 26.63     0.034 C 
BRANCH   8   9
ATOM      9  CG  LYS A 135      30.830  35.579   9.191  1.00 29.45     0.005 C 
BRANCH   9  10
ATOM     10  CD  LYS A 135      30.125  34.259   8.917  1.00 32.00     0.041 C 
BRANCH  10  11
ATOM     11  CE  LYS A 135      28.759  34.502   8.306  1.00 34.25     0.338 C 
ATOM     12  NZ  LYS A 135      28.868  35.273   7.037  1.00 35.99     0.618 N 
ENDBRANCH  10  11
ENDBRANCH   9  10
ENDBRANCH   8   9
ENDBRANCH   7   8
END_RES LYS A 135
