REMARK VINA RESULT:    -4.221      3.013      8.417
REMARK INTER + INTRA:         -23.078
REMARK INTER:                 -13.521
REMARK INTRA:                  -9.557
REMARK UNBOUND:               -11.702
REMARK SMILES CC(=O)N[C@@H]1[C@@H](O)C[C@](OC[C@H]2O[C@@H](O[C@H]3[C@H](O)[C@@H](O)[C@H](OCCN=[N+]=[N-])O[C@@H]3CO)[C@H](O)[C@@H](O)[C@H]2O)(C(=O)O)O[C@H]1C(O)[C@H](O)CNC(=O)OCc1cn([C@@H](CC(=O)O)C(=O)O)nn1
REMARK SMILES IDX 43 1 42 2 9 3 8 4 41 5 6 6 5 7 10 8 11 9 12 10 14 11 13 12
REMARK SMILES IDX 32 13 34 14 36 15 15 16 16 17 29 18 28 19 21 20 17 21 19 22
REMARK SMILES IDX 30 23 31 24 22 26 23 27 24 28 25 29 26 30 27 31 18 32 20 34
REMARK SMILES IDX 33 36 35 38 37 40 38 42 39 43 40 44 7 46 4 48 2 49 1 51 3 52
REMARK SMILES IDX 44 53 45 55 46 56 47 58 48 59 49 60 50 62 51 63 52 64 53 65
REMARK SMILES IDX 54 66 65 67 55 68 64 69 56 70 57 71 58 72 59 73 60 74 61 76
REMARK SMILES IDX 62 77 63 78
REMARK H PARENT 31 25 18 33 20 35 33 37 35 39 37 41 40 45 7 47 4 50 44 54
REMARK H PARENT 46 57 48 61 60 75 63 79
REMARK Flexibility Score: inf
ROOT
ATOM      1  C   UNL     1      27.651  38.543   5.511  1.00  0.00     0.176 C 
ENDROOT
BRANCH   1   2
ATOM      2  C   UNL     1      26.945  39.414   6.536  1.00  0.00     0.178 C 
ATOM      3  C   UNL     1      25.601  39.237   8.457  1.00  0.00     0.272 C 
ATOM      4  C   UNL     1      25.383  40.686   8.000  1.00  0.00     0.113 C 
ATOM      5  O   UNL     1      26.258  38.598   7.381  1.00  0.00    -0.332 OA
ATOM      6  C   UNL     1      24.841  40.584   6.581  1.00  0.00     0.145 C 
ATOM      7  C   UNL     1      26.110  40.396   5.734  1.00  0.00     0.142 C 
BRANCH   3   8
ATOM      8  O   UNL     1      24.520  38.678   8.750  1.00  0.00    -0.338 OA
BRANCH   8   9
ATOM      9  C   UNL     1      23.441  38.132   9.046  1.00  0.00     0.199 C 
BRANCH   9  10
ATOM     10  C   UNL     1      23.134  36.775   8.412  1.00  0.00     0.179 C 
ATOM     11  C   UNL     1      22.199  35.604  10.157  1.00  0.00     0.282 C 
ATOM     12  O   UNL     1      23.206  35.710   9.242  1.00  0.00    -0.341 OA
ATOM     13  C   UNL     1      20.855  35.599   9.538  1.00  0.00     0.202 C 
ATOM     14  C   UNL     1      21.085  35.502   8.021  1.00  0.00     0.179 C 
ATOM     15  C   UNL     1      21.824  36.776   7.659  1.00  0.00     0.177 C 
BRANCH  11  16
ATOM     16  O   UNL     1      22.346  36.354  11.313  1.00  0.00    -0.341 OA
BRANCH  16  17
ATOM     17  C   UNL     1      23.140  35.755  12.264  1.00  0.00     0.184 C 
ATOM     18  C   UNL     1      22.550  35.845  13.626  1.00  0.00     0.178 C 
ATOM     19  O   UNL     1      23.335  35.187  14.563  1.00  0.00    -0.341 OA
ATOM     20  C   UNL     1      24.710  35.321  14.347  1.00  0.00     0.281 C 
ATOM     21  C   UNL     1      24.469  36.505  12.234  1.00  0.00     0.180 C 
ATOM     22  C   UNL     1      24.995  36.635  13.627  1.00  0.00     0.202 C 
BRANCH  18  23
ATOM     23  C   UNL     1      21.222  35.091  13.600  1.00  0.00     0.191 C 
BRANCH  23  24
ATOM     24  O   UNL     1      21.345  33.996  12.720  1.00  0.00    -0.394 OA
ATOM     25  H   UNL     1      21.711  33.257  13.290  1.00  0.00     0.210 HD
ENDBRANCH  23  24
ENDBRANCH  18  23
BRANCH  20  26
ATOM     26  O   UNL     1      25.101  34.294  13.507  1.00  0.00    -0.350 OA
BRANCH  26  27
ATOM     27  C   UNL     1      25.044  33.032  14.012  1.00  0.00     0.169 C 
BRANCH  27  28
ATOM     28  C   UNL     1      24.191  32.148  13.153  1.00  0.00     0.119 C 
BRANCH  28  29
ATOM     29  N   UNL     1      24.487  30.757  13.498  1.00  0.00    -0.092 NA
ATOM     30  N   UNL     1      24.019  29.866  12.761  1.00  0.00     0.001 N 
ATOM     31  N   UNL     1      23.409  28.812  12.499  1.00  0.00    -0.003 NA
ENDBRANCH  28  29
ENDBRANCH  27  28
ENDBRANCH  26  27
ENDBRANCH  20  26
BRANCH  21  32
ATOM     32  O   UNL     1      25.382  35.812  11.449  1.00  0.00    -0.387 OA
ATOM     33  H   UNL     1      24.902  35.251  10.774  1.00  0.00     0.211 HD
ENDBRANCH  21  32
BRANCH  22  34
ATOM     34  O   UNL     1      24.460  37.712  14.338  1.00  0.00    -0.385 OA
ATOM     35  H   UNL     1      24.939  38.519  13.968  1.00  0.00     0.211 HD
ENDBRANCH  22  34
ENDBRANCH  16  17
ENDBRANCH  11  16
BRANCH  13  36
ATOM     36  O   UNL     1      20.086  34.481   9.868  1.00  0.00    -0.385 OA
ATOM     37  H   UNL     1      20.719  33.719  10.016  1.00  0.00     0.211 HD
ENDBRANCH  13  36
BRANCH  14  38
ATOM     38  O   UNL     1      19.918  35.366   7.311  1.00  0.00    -0.387 OA
ATOM     39  H   UNL     1      20.072  35.390   6.325  1.00  0.00     0.211 HD
ENDBRANCH  14  38
BRANCH  15  40
ATOM     40  O   UNL     1      21.038  37.862   7.973  1.00  0.00    -0.387 OA
ATOM     41  H   UNL     1      21.097  38.600   7.342  1.00  0.00     0.211 HD
ENDBRANCH  15  40
ENDBRANCH   9  10
ENDBRANCH   8   9
ENDBRANCH   3   8
BRANCH   3  42
ATOM     42  C   UNL     1      26.619  39.367   9.586  1.00  0.00     0.364 C 
ATOM     43  O   UNL     1      27.465  40.272   9.553  1.00  0.00    -0.246 OA
BRANCH  42  44
ATOM     44  O   UNL     1      26.618  38.490  10.654  1.00  0.00    -0.477 OA
ATOM     45  H   UNL     1      26.797  37.483  10.540  1.00  0.00     0.296 HD
ENDBRANCH  42  44
ENDBRANCH   3  42
BRANCH   6  46
ATOM     46  O   UNL     1      24.162  39.357   6.416  1.00  0.00    -0.391 OA
ATOM     47  H   UNL     1      24.302  38.747   7.159  1.00  0.00     0.211 HD
ENDBRANCH   6  46
BRANCH   7  48
ATOM     48  N   UNL     1      26.712  41.704   5.622  1.00  0.00    -0.348 N 
ATOM     49  C   UNL     1      26.260  42.617   4.621  1.00  0.00     0.217 C 
ATOM     50  H   UNL     1      27.483  42.030   6.248  1.00  0.00     0.163 HD
ATOM     51  C   UNL     1      26.929  43.960   4.554  1.00  0.00     0.114 C 
ATOM     52  O   UNL     1      25.337  42.321   3.817  1.00  0.00    -0.275 OA
ENDBRANCH   7  48
ENDBRANCH   1   2
BRANCH   1  53
ATOM     53  O   UNL     1      26.953  37.366   5.270  1.00  0.00    -0.388 OA
ATOM     54  H   UNL     1      26.029  37.544   4.932  1.00  0.00     0.211 HD
ENDBRANCH   1  53
BRANCH   1  55
ATOM     55  C   UNL     1      29.081  38.261   5.779  1.00  0.00     0.165 C 
BRANCH  55  56
ATOM     56  O   UNL     1      29.449  36.934   5.794  1.00  0.00    -0.388 OA
ATOM     57  H   UNL     1      30.384  36.764   5.503  1.00  0.00     0.211 HD
ENDBRANCH  55  56
BRANCH  55  58
ATOM     58  C   UNL     1      29.587  39.050   6.938  1.00  0.00     0.154 C 
BRANCH  58  59
ATOM     59  N   UNL     1      29.573  38.392   8.208  1.00  0.00    -0.319 N 
ATOM     60  C   UNL     1      30.699  38.497   9.060  1.00  0.00     0.407 C 
ATOM     61  H   UNL     1      28.761  37.843   8.520  1.00  0.00     0.167 HD
ATOM     62  O   UNL     1      31.690  39.200   8.657  1.00  0.00    -0.225 OA
BRANCH  60  63
ATOM     63  O   UNL     1      30.840  37.903  10.301  1.00  0.00    -0.443 OA
BRANCH  63  64
ATOM     64  C   UNL     1      29.958  38.280  11.372  1.00  0.00     0.294 C 
BRANCH  64  65
ATOM     65  C   UNL     1      29.476  37.050  12.042  1.00  0.00     0.120 A 
ATOM     66  C   UNL     1      30.095  36.245  12.972  1.00  0.00     0.139 A 
ATOM     67  N   UNL     1      28.258  36.451  11.823  1.00  0.00    -0.132 NA
ATOM     68  N   UNL     1      29.263  35.209  13.283  1.00  0.00    -0.237 N 
ATOM     69  N   UNL     1      28.188  35.384  12.572  1.00  0.00    -0.066 NA
BRANCH  68  70
ATOM     70  C   UNL     1      29.542  34.134  14.208  1.00  0.00     0.229 C 
BRANCH  70  71
ATOM     71  C   UNL     1      30.995  34.243  14.634  1.00  0.00     0.161 C 
BRANCH  71  72
ATOM     72  C   UNL     1      31.398  33.108  15.486  1.00  0.00     0.306 C 
ATOM     73  O   UNL     1      31.720  33.280  16.689  1.00  0.00    -0.252 OA
BRANCH  72  74
ATOM     74  O   UNL     1      31.429  31.829  14.975  1.00  0.00    -0.481 OA
ATOM     75  H   UNL     1      31.825  31.683  14.038  1.00  0.00     0.296 HD
ENDBRANCH  72  74
ENDBRANCH  71  72
ENDBRANCH  70  71
BRANCH  70  76
ATOM     76  C   UNL     1      28.671  34.275  15.387  1.00  0.00     0.329 C 
ATOM     77  O   UNL     1      28.654  35.367  16.002  1.00  0.00    -0.250 OA
BRANCH  76  78
ATOM     78  O   UNL     1      27.859  33.251  15.857  1.00  0.00    -0.480 OA
ATOM     79  H   UNL     1      27.415  32.639  15.178  1.00  0.00     0.296 HD
ENDBRANCH  76  78
ENDBRANCH  70  76
ENDBRANCH  68  70
ENDBRANCH  64  65
ENDBRANCH  63  64
ENDBRANCH  60  63
ENDBRANCH  58  59
ENDBRANCH  55  58
ENDBRANCH   1  55
TORSDOF 35
BEGIN_RES LYS A 131
REMARK  4 active torsions:
REMARK  status: ('A' for Active; 'I' for Inactive)
REMARK    1  A    between atoms: CA   and  CB  
REMARK    2  A    between atoms: CB   and  CG  
REMARK    3  A    between atoms: CG   and  CD  
REMARK    4  A    between atoms: CD   and  CE  
ROOT
ATOM      1  CA  LYS A 131      29.867  25.555  16.977  1.00 20.52     0.186 C 
ENDROOT
BRANCH   1   2
ATOM      2  CB  LYS A 131      28.345  25.722  17.026  1.00 20.94     0.034 C 
BRANCH   2   3
ATOM      3  CG  LYS A 131      27.601  24.401  16.897  1.00 22.96     0.005 C 
BRANCH   3   4
ATOM      4  CD  LYS A 131      26.151  24.529  17.275  1.00 24.33     0.041 C 
BRANCH   4   5
ATOM      5  CE  LYS A 131      25.633  23.182  17.767  1.00 26.91     0.338 C 
ATOM      6  NZ  LYS A 131      25.518  23.179  19.245  1.00 27.40     0.618 N 
ENDBRANCH   4   5
ENDBRANCH   3   4
ENDBRANCH   2   3
ENDBRANCH   1   2
END_RES LYS A 131
BEGIN_RES LYS A 135
REMARK  4 active torsions:
REMARK  status: ('A' for Active; 'I' for Inactive)
REMARK    5  A    between atoms: CA   and  CB  
REMARK    6  A    between atoms: CB   and  CG  
REMARK    7  A    between atoms: CG   and  CD  
REMARK    8  A    between atoms: CD   and  CE  
ROOT
ATOM      7  CA  LYS A 135      33.193  34.663   9.290  1.00 25.02     0.186 C 
ENDROOT
BRANCH   7   8
ATOM      8  CB  LYS A 135      32.060  35.360  10.034  1.00 26.63     0.034 C 
BRANCH   8   9
ATOM      9  CG  LYS A 135      30.727  34.674   9.881  1.00 29.45     0.005 C 
BRANCH   9  10
ATOM     10  CD  LYS A 135      30.322  34.609   8.417  1.00 32.00     0.041 C 
BRANCH  10  11
ATOM     11  CE  LYS A 135      28.812  34.641   8.280  1.00 34.25     0.338 C 
ATOM     12  NZ  LYS A 135      28.159  33.842   9.354  1.00 35.99     0.618 N 
ENDBRANCH  10  11
ENDBRANCH   9  10
ENDBRANCH   8   9
ENDBRANCH   7   8
END_RES LYS A 135
