REMARK VINA RESULT:    -4.290      3.337      8.923
REMARK INTER + INTRA:         -24.311
REMARK INTER:                 -13.715
REMARK INTRA:                 -10.596
REMARK UNBOUND:               -13.000
REMARK SMILES CC(=O)N[C@@H]1[C@@H](O)C[C@](OC[C@H]2O[C@@H](O[C@H]3[C@H](O)[C@@H](O)[C@H](OCCN=[N+]=[N-])O[C@@H]3CO)[C@H](O)[C@@H](O)[C@H]2O)(C(=O)O)O[C@H]1C(O)[C@H](O)CNC(=O)OCc1cn(C(C)CC(=O)c2ccccc2)nn1
REMARK SMILES IDX 43 1 42 2 9 3 8 4 41 5 6 6 5 7 10 8 11 9 12 10 14 11 13 12
REMARK SMILES IDX 32 13 34 14 36 15 15 16 16 17 29 18 28 19 21 20 17 21 19 22
REMARK SMILES IDX 30 23 31 24 22 26 23 27 24 28 25 29 26 30 27 31 18 32 20 34
REMARK SMILES IDX 33 36 35 38 37 40 38 42 39 43 40 44 7 46 4 48 2 49 1 51 3 52
REMARK SMILES IDX 44 53 45 55 46 56 47 58 48 59 49 60 50 62 51 63 52 64 53 65
REMARK SMILES IDX 54 66 68 67 55 68 67 69 56 70 57 71 58 72 59 73 60 74 61 75
REMARK SMILES IDX 62 76 66 77 63 78 65 79 64 80
REMARK H PARENT 31 25 18 33 20 35 33 37 35 39 37 41 40 45 7 47 4 50 44 54
REMARK H PARENT 46 57 48 61
REMARK Flexibility Score: inf
ROOT
ATOM      1  C   UNL     1      27.391  36.652  14.167  1.00  0.00     0.176 C 
ENDROOT
BRANCH   1   2
ATOM      2  C   UNL     1      28.845  36.652  13.992  1.00  0.00     0.178 C 
ATOM      3  C   UNL     1      30.126  35.150  15.284  1.00  0.00     0.272 C 
ATOM      4  C   UNL     1      31.301  36.065  15.360  1.00  0.00     0.113 C 
ATOM      5  O   UNL     1      29.496  35.483  14.028  1.00  0.00    -0.332 OA
ATOM      6  C   UNL     1      30.975  37.437  14.802  1.00  0.00     0.145 C 
ATOM      7  C   UNL     1      29.523  37.724  14.877  1.00  0.00     0.142 C 
BRANCH   3   8
ATOM      8  O   UNL     1      29.190  35.134  16.187  1.00  0.00    -0.338 OA
BRANCH   8   9
ATOM      9  C   UNL     1      28.925  34.573  17.314  1.00  0.00     0.199 C 
BRANCH   9  10
ATOM     10  C   UNL     1      28.406  33.193  17.558  1.00  0.00     0.179 C 
ATOM     11  C   UNL     1      27.223  31.584  16.286  1.00  0.00     0.282 C 
ATOM     12  O   UNL     1      27.595  32.848  16.551  1.00  0.00    -0.341 OA
ATOM     13  C   UNL     1      28.401  30.674  16.194  1.00  0.00     0.202 C 
ATOM     14  C   UNL     1      29.405  30.911  17.228  1.00  0.00     0.179 C 
ATOM     15  C   UNL     1      29.364  32.171  18.024  1.00  0.00     0.177 C 
BRANCH  11  16
ATOM     16  O   UNL     1      26.546  31.655  15.039  1.00  0.00    -0.341 OA
BRANCH  16  17
ATOM     17  C   UNL     1      25.420  30.869  15.088  1.00  0.00     0.184 C 
ATOM     18  C   UNL     1      24.767  30.759  13.741  1.00  0.00     0.178 C 
ATOM     19  O   UNL     1      24.277  31.980  13.305  1.00  0.00    -0.341 OA
ATOM     20  C   UNL     1      23.426  32.641  14.135  1.00  0.00     0.281 C 
ATOM     21  C   UNL     1      24.424  31.505  16.080  1.00  0.00     0.180 C 
ATOM     22  C   UNL     1      23.874  32.778  15.550  1.00  0.00     0.202 C 
BRANCH  18  23
ATOM     23  C   UNL     1      23.698  29.685  13.725  1.00  0.00     0.191 C 
BRANCH  23  24
ATOM     24  O   UNL     1      23.002  29.643  12.523  1.00  0.00    -0.394 OA
ATOM     25  H   UNL     1      23.581  30.005  11.800  1.00  0.00     0.210 HD
ENDBRANCH  23  24
ENDBRANCH  18  23
BRANCH  20  26
ATOM     26  O   UNL     1      22.118  32.234  14.071  1.00  0.00    -0.350 OA
BRANCH  26  27
ATOM     27  C   UNL     1      21.332  32.919  13.185  1.00  0.00     0.169 C 
BRANCH  27  28
ATOM     28  C   UNL     1      20.504  33.990  13.843  1.00  0.00     0.119 C 
BRANCH  28  29
ATOM     29  N   UNL     1      21.052  35.284  13.478  1.00  0.00    -0.092 NA
ATOM     30  N   UNL     1      21.904  35.804  14.193  1.00  0.00     0.001 N 
ATOM     31  N   UNL     1      22.894  36.213  14.803  1.00  0.00    -0.003 NA
ENDBRANCH  28  29
ENDBRANCH  27  28
ENDBRANCH  26  27
ENDBRANCH  20  26
BRANCH  21  32
ATOM     32  O   UNL     1      23.448  30.589  16.452  1.00  0.00    -0.387 OA
ATOM     33  H   UNL     1      23.267  29.920  15.748  1.00  0.00     0.211 HD
ENDBRANCH  21  32
BRANCH  22  34
ATOM     34  O   UNL     1      24.740  33.854  15.751  1.00  0.00    -0.385 OA
ATOM     35  H   UNL     1      24.194  34.667  15.596  1.00  0.00     0.211 HD
ENDBRANCH  22  34
ENDBRANCH  16  17
ENDBRANCH  11  16
BRANCH  13  36
ATOM     36  O   UNL     1      27.969  29.319  16.291  1.00  0.00    -0.385 OA
ATOM     37  H   UNL     1      28.643  28.803  15.774  1.00  0.00     0.211 HD
ENDBRANCH  13  36
BRANCH  14  38
ATOM     38  O   UNL     1      30.688  30.772  16.625  1.00  0.00    -0.387 OA
ATOM     39  H   UNL     1      31.348  31.379  17.035  1.00  0.00     0.211 HD
ENDBRANCH  14  38
BRANCH  15  40
ATOM     40  O   UNL     1      30.662  32.601  18.213  1.00  0.00    -0.387 OA
ATOM     41  H   UNL     1      31.269  32.029  18.688  1.00  0.00     0.211 HD
ENDBRANCH  15  40
ENDBRANCH   9  10
ENDBRANCH   8   9
ENDBRANCH   3   8
BRANCH   3  42
ATOM     42  C   UNL     1      30.667  33.752  14.993  1.00  0.00     0.364 C 
ATOM     43  O   UNL     1      30.011  32.977  14.287  1.00  0.00    -0.246 OA
BRANCH  42  44
ATOM     44  O   UNL     1      31.879  33.345  15.504  1.00  0.00    -0.477 OA
ATOM     45  H   UNL     1      31.888  32.500  16.062  1.00  0.00     0.296 HD
ENDBRANCH  42  44
ENDBRANCH   3  42
BRANCH   6  46
ATOM     46  O   UNL     1      31.761  38.422  15.389  1.00  0.00    -0.391 OA
ATOM     47  H   UNL     1      32.638  37.993  15.664  1.00  0.00     0.211 HD
ENDBRANCH   6  46
BRANCH   7  48
ATOM     48  N   UNL     1      29.224  39.011  14.256  1.00  0.00    -0.348 N 
ATOM     49  C   UNL     1      28.434  40.011  14.885  1.00  0.00     0.217 C 
ATOM     50  H   UNL     1      29.605  39.210  13.314  1.00  0.00     0.163 HD
ATOM     51  C   UNL     1      28.136  41.300  14.258  1.00  0.00     0.114 C 
ATOM     52  O   UNL     1      27.960  39.773  16.049  1.00  0.00    -0.275 OA
ENDBRANCH   7  48
ENDBRANCH   1   2
BRANCH   1  53
ATOM     53  O   UNL     1      26.964  36.901  15.494  1.00  0.00    -0.388 OA
ATOM     54  H   UNL     1      26.823  35.997  15.912  1.00  0.00     0.211 HD
ENDBRANCH   1  53
BRANCH   1  55
ATOM     55  C   UNL     1      26.630  35.426  13.711  1.00  0.00     0.165 C 
BRANCH  55  56
ATOM     56  O   UNL     1      27.205  34.241  14.037  1.00  0.00    -0.388 OA
ATOM     57  H   UNL     1      26.576  33.696  14.565  1.00  0.00     0.211 HD
ENDBRANCH  55  56
BRANCH  55  58
ATOM     58  C   UNL     1      26.501  35.543  12.185  1.00  0.00     0.154 C 
BRANCH  58  59
ATOM     59  N   UNL     1      25.419  36.437  11.837  1.00  0.00    -0.319 N 
ATOM     60  C   UNL     1      24.136  36.051  11.392  1.00  0.00     0.407 C 
ATOM     61  H   UNL     1      25.556  37.493  11.917  1.00  0.00     0.167 HD
ATOM     62  O   UNL     1      23.820  34.848  11.309  1.00  0.00    -0.225 OA
BRANCH  60  63
ATOM     63  O   UNL     1      23.170  37.009  11.023  1.00  0.00    -0.443 OA
BRANCH  63  64
ATOM     64  C   UNL     1      22.804  37.109   9.630  1.00  0.00     0.294 C 
BRANCH  64  65
ATOM     65  C   UNL     1      23.904  37.958   9.039  1.00  0.00     0.120 A 
ATOM     66  C   UNL     1      24.879  37.442   8.164  1.00  0.00     0.138 A 
ATOM     67  N   UNL     1      24.222  39.226   9.211  1.00  0.00    -0.132 NA
ATOM     68  N   UNL     1      25.742  38.420   7.853  1.00  0.00    -0.249 N 
ATOM     69  N   UNL     1      25.333  39.489   8.491  1.00  0.00    -0.067 NA
BRANCH  68  70
ATOM     70  C   UNL     1      26.904  38.231   6.982  1.00  0.00     0.114 C 
ATOM     71  C   UNL     1      28.147  38.508   7.768  1.00  0.00     0.034 C 
BRANCH  70  72
ATOM     72  C   UNL     1      26.846  36.901   6.307  1.00  0.00     0.108 C 
BRANCH  72  73
ATOM     73  C   UNL     1      28.204  36.297   6.372  1.00  0.00     0.164 C 
ATOM     74  O   UNL     1      29.064  36.552   5.526  1.00  0.00    -0.294 OA
BRANCH  73  75
ATOM     75  C   UNL     1      28.482  35.382   7.490  1.00  0.00     0.018 A 
ATOM     76  C   UNL     1      27.509  34.811   8.226  1.00  0.00     0.012 A 
ATOM     77  C   UNL     1      29.833  35.115   7.766  1.00  0.00     0.012 A 
ATOM     78  C   UNL     1      27.836  33.938   9.278  1.00  0.00     0.001 A 
ATOM     79  C   UNL     1      30.130  34.264   8.791  1.00  0.00     0.001 A 
ATOM     80  C   UNL     1      29.158  33.671   9.551  1.00  0.00     0.000 A 
ENDBRANCH  73  75
ENDBRANCH  72  73
ENDBRANCH  70  72
ENDBRANCH  68  70
ENDBRANCH  64  65
ENDBRANCH  63  64
ENDBRANCH  60  63
ENDBRANCH  58  59
ENDBRANCH  55  58
ENDBRANCH   1  55
TORSDOF 33
BEGIN_RES LYS A 131
REMARK  4 active torsions:
REMARK  status: ('A' for Active; 'I' for Inactive)
REMARK    1  A    between atoms: CA   and  CB  
REMARK    2  A    between atoms: CB   and  CG  
REMARK    3  A    between atoms: CG   and  CD  
REMARK    4  A    between atoms: CD   and  CE  
ROOT
ATOM      1  CA  LYS A 131      29.867  25.555  16.977  1.00 20.52     0.186 C 
ENDROOT
BRANCH   1   2
ATOM      2  CB  LYS A 131      28.345  25.722  17.026  1.00 20.94     0.034 C 
BRANCH   2   3
ATOM      3  CG  LYS A 131      27.602  24.399  16.926  1.00 22.96     0.005 C 
BRANCH   3   4
ATOM      4  CD  LYS A 131      26.556  24.254  17.996  1.00 24.33     0.041 C 
BRANCH   4   5
ATOM      5  CE  LYS A 131      25.953  25.620  18.306  1.00 26.91     0.338 C 
ATOM      6  NZ  LYS A 131      25.897  25.843  19.770  1.00 27.40     0.618 N 
ENDBRANCH   4   5
ENDBRANCH   3   4
ENDBRANCH   2   3
ENDBRANCH   1   2
END_RES LYS A 131
BEGIN_RES LYS A 135
REMARK  4 active torsions:
REMARK  status: ('A' for Active; 'I' for Inactive)
REMARK    5  A    between atoms: CA   and  CB  
REMARK    6  A    between atoms: CB   and  CG  
REMARK    7  A    between atoms: CG   and  CD  
REMARK    8  A    between atoms: CD   and  CE  
ROOT
ATOM      7  CA  LYS A 135      33.193  34.663   9.290  1.00 25.02     0.186 C 
ENDROOT
BRANCH   7   8
ATOM      8  CB  LYS A 135      32.060  35.360  10.034  1.00 26.63     0.034 C 
BRANCH   8   9
ATOM      9  CG  LYS A 135      32.510  36.082  11.278  1.00 29.45     0.005 C 
BRANCH   9  10
ATOM     10  CD  LYS A 135      31.926  37.485  11.325  1.00 32.00     0.041 C 
BRANCH  10  11
ATOM     11  CE  LYS A 135      31.151  37.782  10.056  1.00 34.25     0.338 C 
ATOM     12  NZ  LYS A 135      31.504  39.123   9.513  1.00 35.99     0.618 N 
ENDBRANCH  10  11
ENDBRANCH   9  10
ENDBRANCH   8   9
ENDBRANCH   7   8
END_RES LYS A 135
