REMARK VINA RESULT:    -4.546      5.200     10.042
REMARK INTER + INTRA:         -22.668
REMARK INTER:                 -11.044
REMARK INTRA:                 -11.624
REMARK UNBOUND:               -11.213
REMARK SMILES CC(=O)N[C@@H]1[C@@H](O)C[C@](OC[C@H]2O[C@@H](O[C@H]3[C@H](O)[C@@H](O)[C@H](OCCN=[N+]=[N-])O[C@@H]3CO)[C@H](O)[C@@H](O)[C@H]2O)(C(=O)O)O[C@H]1C(O)[C@H](O)CNC(=O)OCc1cn(CC2=CC[C@H]3C[C@@H]2C3(C)C)nn1
REMARK SMILES IDX 9 1 8 2 6 3 5 4 42 5 41 6 10 7 11 8 12 9 14 10 13 11 32 12
REMARK SMILES IDX 34 13 36 14 15 15 16 16 29 17 28 18 21 19 17 20 19 21 30 22
REMARK SMILES IDX 31 23 22 25 23 26 24 27 25 28 26 29 27 30 18 31 20 33 33 35
REMARK SMILES IDX 35 37 37 39 38 41 39 42 40 43 7 45 43 47 44 48 45 50 46 51
REMARK SMILES IDX 47 53 48 54 49 55 50 57 51 58 52 59 53 60 54 61 67 62 55 63
REMARK SMILES IDX 66 64 56 65 57 66 58 67 62 68 59 69 61 70 63 71 60 72 64 73
REMARK SMILES IDX 65 74 4 75 2 76 1 78 3 79
REMARK H PARENT 31 24 18 32 20 34 33 36 35 38 37 40 40 44 7 46 44 49 46 52
REMARK H PARENT 48 56 4 77
REMARK Flexibility Score: inf
ROOT
ATOM      1  C   UNL     1      31.252  34.474  14.994  1.00  0.00     0.272 C 
ATOM      2  C   UNL     1      32.121  35.687  14.935  1.00  0.00     0.113 C 
ATOM      3  C   UNL     1      32.340  36.250  16.350  1.00  0.00     0.145 C 
ATOM      4  C   UNL     1      31.049  36.684  16.945  1.00  0.00     0.142 C 
ATOM      5  C   UNL     1      29.948  36.081  16.098  1.00  0.00     0.178 C 
ATOM      6  O   UNL     1      30.145  34.769  15.860  1.00  0.00    -0.332 OA
ENDROOT
BRANCH   1   7
ATOM      7  O   UNL     1      31.780  33.374  15.507  1.00  0.00    -0.338 OA
BRANCH   7   8
ATOM      8  C   UNL     1      31.363  32.135  15.450  1.00  0.00     0.199 C 
BRANCH   8   9
ATOM      9  C   UNL     1      30.461  31.463  16.396  1.00  0.00     0.179 C 
ATOM     10  C   UNL     1      29.611  31.794  18.521  1.00  0.00     0.282 C 
ATOM     11  O   UNL     1      30.168  32.422  17.414  1.00  0.00    -0.341 OA
ATOM     12  C   UNL     1      28.618  30.759  18.237  1.00  0.00     0.202 C 
ATOM     13  C   UNL     1      28.375  30.345  16.840  1.00  0.00     0.179 C 
ATOM     14  C   UNL     1      29.048  31.233  15.824  1.00  0.00     0.177 C 
BRANCH  10  15
ATOM     15  O   UNL     1      29.010  32.841  19.246  1.00  0.00    -0.341 OA
BRANCH  15  16
ATOM     16  C   UNL     1      29.585  33.026  20.490  1.00  0.00     0.184 C 
ATOM     17  C   UNL     1      28.520  33.251  21.525  1.00  0.00     0.178 C 
ATOM     18  O   UNL     1      28.986  33.797  22.708  1.00  0.00    -0.341 OA
ATOM     19  C   UNL     1      30.341  33.849  22.861  1.00  0.00     0.281 C 
ATOM     20  C   UNL     1      30.396  34.324  20.412  1.00  0.00     0.180 C 
ATOM     21  C   UNL     1      31.052  34.563  21.738  1.00  0.00     0.202 C 
BRANCH  17  22
ATOM     22  C   UNL     1      27.868  31.898  21.831  1.00  0.00     0.191 C 
BRANCH  22  23
ATOM     23  O   UNL     1      28.842  30.918  21.706  1.00  0.00    -0.394 OA
ATOM     24  H   UNL     1      29.545  31.261  21.074  1.00  0.00     0.210 HD
ENDBRANCH  22  23
ENDBRANCH  17  22
BRANCH  19  25
ATOM     25  O   UNL     1      30.901  32.573  23.009  1.00  0.00    -0.350 OA
BRANCH  25  26
ATOM     26  C   UNL     1      32.284  32.631  23.191  1.00  0.00     0.169 C 
BRANCH  26  27
ATOM     27  C   UNL     1      32.805  31.245  22.803  1.00  0.00     0.119 C 
BRANCH  27  28
ATOM     28  N   UNL     1      32.586  31.030  21.389  1.00  0.00    -0.092 NA
ATOM     29  N   UNL     1      31.912  30.109  20.965  1.00  0.00     0.001 N 
ATOM     30  N   UNL     1      31.338  29.085  20.575  1.00  0.00    -0.003 NA
ENDBRANCH  27  28
ENDBRANCH  26  27
ENDBRANCH  25  26
ENDBRANCH  19  25
BRANCH  20  31
ATOM     31  O   UNL     1      31.404  34.193  19.440  1.00  0.00    -0.387 OA
ATOM     32  H   UNL     1      31.012  33.972  18.567  1.00  0.00     0.211 HD
ENDBRANCH  20  31
BRANCH  21  33
ATOM     33  O   UNL     1      31.188  35.919  22.032  1.00  0.00    -0.385 OA
ATOM     34  H   UNL     1      30.865  36.064  22.967  1.00  0.00     0.211 HD
ENDBRANCH  21  33
ENDBRANCH  15  16
ENDBRANCH  10  15
BRANCH  12  35
ATOM     35  O   UNL     1      28.999  29.599  18.964  1.00  0.00    -0.385 OA
ATOM     36  H   UNL     1      28.380  28.845  18.788  1.00  0.00     0.211 HD
ENDBRANCH  12  35
BRANCH  13  37
ATOM     37  O   UNL     1      27.014  30.164  16.571  1.00  0.00    -0.387 OA
ATOM     38  H   UNL     1      26.473  30.416  17.368  1.00  0.00     0.211 HD
ENDBRANCH  13  37
BRANCH  14  39
ATOM     39  O   UNL     1      28.389  32.479  15.851  1.00  0.00    -0.387 OA
ATOM     40  H   UNL     1      29.036  33.201  16.047  1.00  0.00     0.211 HD
ENDBRANCH  14  39
ENDBRANCH   8   9
ENDBRANCH   7   8
ENDBRANCH   1   7
BRANCH   1  41
ATOM     41  C   UNL     1      30.550  34.282  13.697  1.00  0.00     0.364 C 
ATOM     42  O   UNL     1      29.316  33.938  13.684  1.00  0.00    -0.246 OA
BRANCH  41  43
ATOM     43  O   UNL     1      31.142  34.446  12.490  1.00  0.00    -0.477 OA
ATOM     44  H   UNL     1      31.589  35.269  12.123  1.00  0.00     0.296 HD
ENDBRANCH  41  43
ENDBRANCH   1  41
BRANCH   3  45
ATOM     45  O   UNL     1      32.777  35.138  17.085  1.00  0.00    -0.391 OA
ATOM     46  H   UNL     1      33.764  35.114  17.034  1.00  0.00     0.211 HD
ENDBRANCH   3  45
BRANCH   5  47
ATOM     47  C   UNL     1      28.595  36.227  16.800  1.00  0.00     0.176 C 
BRANCH  47  48
ATOM     48  O   UNL     1      28.367  35.161  17.632  1.00  0.00    -0.388 OA
ATOM     49  H   UNL     1      29.141  34.906  18.207  1.00  0.00     0.211 HD
ENDBRANCH  47  48
BRANCH  47  50
ATOM     50  C   UNL     1      27.491  36.383  15.797  1.00  0.00     0.165 C 
BRANCH  50  51
ATOM     51  O   UNL     1      27.191  35.062  15.357  1.00  0.00    -0.388 OA
ATOM     52  H   UNL     1      27.139  35.166  14.355  1.00  0.00     0.211 HD
ENDBRANCH  50  51
BRANCH  50  53
ATOM     53  C   UNL     1      27.939  37.125  14.578  1.00  0.00     0.154 C 
BRANCH  53  54
ATOM     54  N   UNL     1      27.016  37.116  13.490  1.00  0.00    -0.319 N 
ATOM     55  C   UNL     1      27.423  36.669  12.210  1.00  0.00     0.407 C 
ATOM     56  H   UNL     1      26.029  37.437  13.653  1.00  0.00     0.167 HD
ATOM     57  O   UNL     1      28.585  36.284  12.025  1.00  0.00    -0.225 OA
BRANCH  55  58
ATOM     58  O   UNL     1      26.537  36.654  11.150  1.00  0.00    -0.443 OA
BRANCH  58  59
ATOM     59  C   UNL     1      25.385  35.887  11.039  1.00  0.00     0.294 C 
BRANCH  59  60
ATOM     60  C   UNL     1      25.073  35.058  12.239  1.00  0.00     0.120 A 
ATOM     61  C   UNL     1      25.394  33.742  12.468  1.00  0.00     0.138 A 
ATOM     62  N   UNL     1      24.406  35.472  13.352  1.00  0.00    -0.132 NA
ATOM     63  N   UNL     1      24.934  33.391  13.671  1.00  0.00    -0.248 N 
ATOM     64  N   UNL     1      24.343  34.452  14.183  1.00  0.00    -0.067 NA
BRANCH  63  65
ATOM     65  C   UNL     1      25.059  32.073  14.321  1.00  0.00     0.177 C 
BRANCH  65  66
ATOM     66  C   UNL     1      23.967  31.236  13.721  1.00  0.00    -0.049 C 
ATOM     67  C   UNL     1      22.992  31.805  12.983  1.00  0.00    -0.025 C 
ATOM     68  C   UNL     1      23.901  29.778  13.896  1.00  0.00     0.023 C 
ATOM     69  C   UNL     1      21.850  30.975  12.542  1.00  0.00     0.031 C 
ATOM     70  C   UNL     1      23.533  29.189  12.528  1.00  0.00     0.013 C 
ATOM     71  C   UNL     1      22.530  29.389  14.357  1.00  0.00    -0.026 C 
ATOM     72  C   UNL     1      22.084  29.534  12.895  1.00  0.00    -0.000 C 
ATOM     73  C   UNL     1      22.391  27.945  14.777  1.00  0.00     0.012 C 
ATOM     74  C   UNL     1      21.844  30.296  15.322  1.00  0.00     0.012 C 
ENDBRANCH  65  66
ENDBRANCH  63  65
ENDBRANCH  59  60
ENDBRANCH  58  59
ENDBRANCH  55  58
ENDBRANCH  53  54
ENDBRANCH  50  53
ENDBRANCH  47  50
ENDBRANCH   5  47
BRANCH   4  75
ATOM     75  N   UNL     1      30.816  38.084  17.033  1.00  0.00    -0.348 N 
ATOM     76  C   UNL     1      30.715  38.847  18.205  1.00  0.00     0.217 C 
ATOM     77  H   UNL     1      30.708  38.589  16.106  1.00  0.00     0.163 HD
ATOM     78  C   UNL     1      30.468  40.311  18.152  1.00  0.00     0.114 C 
ATOM     79  O   UNL     1      30.842  38.242  19.284  1.00  0.00    -0.275 OA
ENDBRANCH   4  75
TORSDOF 31
BEGIN_RES LYS A 131
REMARK  4 active torsions:
REMARK  status: ('A' for Active; 'I' for Inactive)
REMARK    1  A    between atoms: CA   and  CB  
REMARK    2  A    between atoms: CB   and  CG  
REMARK    3  A    between atoms: CG   and  CD  
REMARK    4  A    between atoms: CD   and  CE  
ROOT
ATOM      1  CA  LYS A 131      29.867  25.555  16.977  1.00 20.52     0.186 C 
ENDROOT
BRANCH   1   2
ATOM      2  CB  LYS A 131      28.345  25.722  17.026  1.00 20.94     0.034 C 
BRANCH   2   3
ATOM      3  CG  LYS A 131      27.601  24.401  16.904  1.00 22.96     0.005 C 
BRANCH   3   4
ATOM      4  CD  LYS A 131      26.185  24.500  17.400  1.00 24.33     0.041 C 
BRANCH   4   5
ATOM      5  CE  LYS A 131      25.896  23.340  18.347  1.00 26.91     0.338 C 
ATOM      6  NZ  LYS A 131      25.406  23.845  19.651  1.00 27.40     0.618 N 
ENDBRANCH   4   5
ENDBRANCH   3   4
ENDBRANCH   2   3
ENDBRANCH   1   2
END_RES LYS A 131
BEGIN_RES LYS A 135
REMARK  4 active torsions:
REMARK  status: ('A' for Active; 'I' for Inactive)
REMARK    5  A    between atoms: CA   and  CB  
REMARK    6  A    between atoms: CB   and  CG  
REMARK    7  A    between atoms: CG   and  CD  
REMARK    8  A    between atoms: CD   and  CE  
ROOT
ATOM      7  CA  LYS A 135      33.193  34.663   9.290  1.00 25.02     0.186 C 
ENDROOT
BRANCH   7   8
ATOM      8  CB  LYS A 135      32.060  35.360  10.034  1.00 26.63     0.034 C 
BRANCH   8   9
ATOM      9  CG  LYS A 135      30.802  35.505   9.217  1.00 29.45     0.005 C 
BRANCH   9  10
ATOM     10  CD  LYS A 135      30.001  34.212   9.231  1.00 32.00     0.041 C 
BRANCH  10  11
ATOM     11  CE  LYS A 135      28.594  34.452   8.718  1.00 34.25     0.338 C 
ATOM     12  NZ  LYS A 135      27.598  33.660   9.491  1.00 35.99     0.618 N 
ENDBRANCH  10  11
ENDBRANCH   9  10
ENDBRANCH   8   9
ENDBRANCH   7   8
END_RES LYS A 135
