REMARK VINA RESULT:    -4.230      2.755      6.019
REMARK INTER + INTRA:         -22.905
REMARK INTER:                 -10.672
REMARK INTRA:                 -12.233
REMARK UNBOUND:               -12.122
REMARK SMILES CC(=O)N[C@@H]1[C@@H](O)C[C@](OC[C@H]2O[C@@H](O[C@H]3[C@H](O)[C@@H](O)[C@H](OCCN=[N+]=[N-])O[C@@H]3CO)[C@H](O)[C@@H](O)[C@H]2O)(C(=O)O)O[C@H]1C(O)[C@H](O)CNC(=O)OCc1cn(-c2ccc(O)c([N+](=O)[O-])c2)nn1
REMARK SMILES IDX 9 1 8 2 6 3 5 4 42 5 41 6 10 7 11 8 12 9 14 10 13 11 32 12
REMARK SMILES IDX 34 13 36 14 15 15 16 16 29 17 28 18 21 19 17 20 19 21 30 22
REMARK SMILES IDX 31 23 22 25 23 26 24 27 25 28 26 29 27 30 18 31 20 33 33 35
REMARK SMILES IDX 35 37 37 39 38 41 39 42 40 43 7 45 43 47 44 48 45 50 46 51
REMARK SMILES IDX 47 53 48 54 49 55 50 57 51 58 52 59 53 60 54 61 67 62 55 63
REMARK SMILES IDX 66 64 56 65 57 66 65 67 58 68 61 69 59 70 62 71 63 72 64 73
REMARK SMILES IDX 60 74 4 76 2 77 1 79 3 80
REMARK H PARENT 31 24 18 32 20 34 33 36 35 38 37 40 40 44 7 46 44 49 46 52
REMARK H PARENT 48 56 60 75 4 78
REMARK Flexibility Score: inf
ROOT
ATOM      1  C   UNL     1      28.873  32.691  16.388  1.00  0.00     0.272 C 
ATOM      2  C   UNL     1      29.305  32.819  14.915  1.00  0.00     0.113 C 
ATOM      3  C   UNL     1      30.817  32.633  14.827  1.00  0.00     0.145 C 
ATOM      4  C   UNL     1      31.393  33.890  15.529  1.00  0.00     0.142 C 
ATOM      5  C   UNL     1      30.585  34.191  16.760  1.00  0.00     0.178 C 
ATOM      6  O   UNL     1      29.918  33.039  17.215  1.00  0.00    -0.332 OA
ENDROOT
BRANCH   1   7
ATOM      7  O   UNL     1      28.589  31.347  16.551  1.00  0.00    -0.338 OA
BRANCH   7   8
ATOM      8  C   UNL     1      27.830  30.757  15.586  1.00  0.00     0.199 C 
BRANCH   8   9
ATOM      9  C   UNL     1      26.707  30.007  16.344  1.00  0.00     0.179 C 
ATOM     10  C   UNL     1      25.867  29.996  18.451  1.00  0.00     0.282 C 
ATOM     11  O   UNL     1      27.009  30.161  17.663  1.00  0.00    -0.341 OA
ATOM     12  C   UNL     1      25.025  31.208  18.255  1.00  0.00     0.202 C 
ATOM     13  C   UNL     1      24.566  31.263  16.821  1.00  0.00     0.179 C 
ATOM     14  C   UNL     1      25.401  30.499  15.862  1.00  0.00     0.177 C 
BRANCH  10  15
ATOM     15  O   UNL     1      26.243  29.772  19.782  1.00  0.00    -0.341 OA
BRANCH  15  16
ATOM     16  C   UNL     1      27.615  29.900  19.877  1.00  0.00     0.184 C 
ATOM     17  C   UNL     1      28.319  28.780  20.562  1.00  0.00     0.178 C 
ATOM     18  O   UNL     1      29.676  28.922  20.304  1.00  0.00    -0.341 OA
ATOM     19  C   UNL     1      30.199  30.039  21.021  1.00  0.00     0.281 C 
ATOM     20  C   UNL     1      27.954  31.158  20.721  1.00  0.00     0.180 C 
ATOM     21  C   UNL     1      29.474  31.284  20.671  1.00  0.00     0.202 C 
BRANCH  17  22
ATOM     22  C   UNL     1      27.877  27.405  20.188  1.00  0.00     0.191 C 
BRANCH  22  23
ATOM     23  O   UNL     1      27.489  26.683  21.303  1.00  0.00    -0.394 OA
ATOM     24  H   UNL     1      26.728  27.185  21.737  1.00  0.00     0.210 HD
ENDBRANCH  22  23
ENDBRANCH  17  22
BRANCH  19  25
ATOM     25  O   UNL     1      31.519  30.104  20.589  1.00  0.00    -0.350 OA
BRANCH  25  26
ATOM     26  C   UNL     1      32.204  28.910  20.705  1.00  0.00     0.169 C 
BRANCH  26  27
ATOM     27  C   UNL     1      32.549  28.600  22.128  1.00  0.00     0.119 C 
BRANCH  27  28
ATOM     28  N   UNL     1      32.146  27.224  22.406  1.00  0.00    -0.092 NA
ATOM     29  N   UNL     1      31.052  27.011  22.977  1.00  0.00     0.001 N 
ATOM     30  N   UNL     1      29.886  26.601  23.116  1.00  0.00    -0.003 NA
ENDBRANCH  27  28
ENDBRANCH  26  27
ENDBRANCH  25  26
ENDBRANCH  19  25
BRANCH  20  31
ATOM     31  O   UNL     1      27.424  32.299  20.138  1.00  0.00    -0.387 OA
ATOM     32  H   UNL     1      26.428  32.284  20.117  1.00  0.00     0.211 HD
ENDBRANCH  20  31
BRANCH  21  33
ATOM     33  O   UNL     1      29.780  32.293  21.582  1.00  0.00    -0.385 OA
ATOM     34  H   UNL     1      29.386  32.121  22.459  1.00  0.00     0.211 HD
ENDBRANCH  21  33
ENDBRANCH  15  16
ENDBRANCH  10  15
BRANCH  12  35
ATOM     35  O   UNL     1      23.927  31.263  19.106  1.00  0.00    -0.385 OA
ATOM     36  H   UNL     1      23.824  32.175  19.503  1.00  0.00     0.211 HD
ENDBRANCH  12  35
BRANCH  13  37
ATOM     37  O   UNL     1      24.405  32.615  16.497  1.00  0.00    -0.387 OA
ATOM     38  H   UNL     1      24.070  33.068  17.317  1.00  0.00     0.211 HD
ENDBRANCH  13  37
BRANCH  14  39
ATOM     39  O   UNL     1      25.519  31.262  14.680  1.00  0.00    -0.387 OA
ATOM     40  H   UNL     1      25.932  30.759  13.948  1.00  0.00     0.211 HD
ENDBRANCH  14  39
ENDBRANCH   8   9
ENDBRANCH   7   8
ENDBRANCH   1   7
BRANCH   1  41
ATOM     41  C   UNL     1      27.650  33.475  16.511  1.00  0.00     0.364 C 
ATOM     42  O   UNL     1      27.105  33.836  17.588  1.00  0.00    -0.246 OA
BRANCH  41  43
ATOM     43  O   UNL     1      26.987  33.887  15.353  1.00  0.00    -0.477 OA
ATOM     44  H   UNL     1      27.407  33.831  14.431  1.00  0.00     0.296 HD
ENDBRANCH  41  43
ENDBRANCH   1  41
BRANCH   3  45
ATOM     45  O   UNL     1      31.224  31.495  15.471  1.00  0.00    -0.391 OA
ATOM     46  H   UNL     1      30.433  30.997  15.787  1.00  0.00     0.211 HD
ENDBRANCH   3  45
BRANCH   5  47
ATOM     47  C   UNL     1      31.510  34.611  17.876  1.00  0.00     0.176 C 
BRANCH  47  48
ATOM     48  O   UNL     1      32.601  35.253  17.312  1.00  0.00    -0.388 OA
ATOM     49  H   UNL     1      32.552  35.296  16.325  1.00  0.00     0.211 HD
ENDBRANCH  47  48
BRANCH  47  50
ATOM     50  C   UNL     1      30.877  35.522  18.896  1.00  0.00     0.165 C 
BRANCH  50  51
ATOM     51  O   UNL     1      29.480  35.316  18.733  1.00  0.00    -0.388 OA
ATOM     52  H   UNL     1      29.280  34.923  17.838  1.00  0.00     0.211 HD
ENDBRANCH  50  51
BRANCH  50  53
ATOM     53  C   UNL     1      31.119  36.971  18.581  1.00  0.00     0.154 C 
BRANCH  53  54
ATOM     54  N   UNL     1      30.194  37.424  17.577  1.00  0.00    -0.319 N 
ATOM     55  C   UNL     1      30.528  37.808  16.262  1.00  0.00     0.407 C 
ATOM     56  H   UNL     1      29.158  37.484  17.822  1.00  0.00     0.167 HD
ATOM     57  O   UNL     1      31.722  37.760  15.934  1.00  0.00    -0.225 OA
BRANCH  55  58
ATOM     58  O   UNL     1      29.623  38.230  15.316  1.00  0.00    -0.443 OA
BRANCH  58  59
ATOM     59  C   UNL     1      28.256  37.931  15.437  1.00  0.00     0.294 C 
BRANCH  59  60
ATOM     60  C   UNL     1      27.874  37.044  14.297  1.00  0.00     0.121 A 
ATOM     61  C   UNL     1      26.670  37.094  13.589  1.00  0.00     0.144 A 
ATOM     62  N   UNL     1      28.540  36.040  13.712  1.00  0.00    -0.131 NA
ATOM     63  N   UNL     1      26.682  36.151  12.654  1.00  0.00    -0.220 N 
ATOM     64  N   UNL     1      27.845  35.526  12.761  1.00  0.00    -0.062 NA
BRANCH  63  65
ATOM     65  C   UNL     1      25.634  35.859  11.713  1.00  0.00     0.073 A 
ATOM     66  C   UNL     1      25.800  36.095  10.383  1.00  0.00     0.033 A 
ATOM     67  C   UNL     1      24.436  35.333  12.115  1.00  0.00     0.118 A 
ATOM     68  C   UNL     1      24.831  35.830   9.445  1.00  0.00     0.056 A 
ATOM     69  C   UNL     1      23.423  35.051  11.176  1.00  0.00     0.312 A 
ATOM     70  C   UNL     1      23.587  35.286   9.837  1.00  0.00     0.194 A 
BRANCH  69  71
ATOM     71  N   UNL     1      22.226  34.508  11.675  1.00  0.00     0.066 N 
ATOM     72  O   UNL     1      22.320  33.493  12.434  1.00  0.00    -0.258 OA
ATOM     73  O   UNL     1      21.013  35.031  11.364  1.00  0.00    -0.258 OA
ENDBRANCH  69  71
BRANCH  70  74
ATOM     74  O   UNL     1      22.648  35.036   8.852  1.00  0.00    -0.502 OA
ATOM     75  H   UNL     1      21.801  34.593   9.019  1.00  0.00     0.293 HD
ENDBRANCH  70  74
ENDBRANCH  63  65
ENDBRANCH  59  60
ENDBRANCH  58  59
ENDBRANCH  55  58
ENDBRANCH  53  54
ENDBRANCH  50  53
ENDBRANCH  47  50
ENDBRANCH   5  47
BRANCH   4  76
ATOM     76  N   UNL     1      31.290  34.931  14.526  1.00  0.00    -0.348 N 
ATOM     77  C   UNL     1      32.426  35.328  13.746  1.00  0.00     0.217 C 
ATOM     78  H   UNL     1      30.393  35.417  14.345  1.00  0.00     0.163 HD
ATOM     79  C   UNL     1      32.298  36.395  12.726  1.00  0.00     0.114 C 
ATOM     80  O   UNL     1      33.532  34.744  13.952  1.00  0.00    -0.275 OA
ENDBRANCH   4  76
TORSDOF 32
BEGIN_RES LYS A 131
REMARK  4 active torsions:
REMARK  status: ('A' for Active; 'I' for Inactive)
REMARK    1  A    between atoms: CA   and  CB  
REMARK    2  A    between atoms: CB   and  CG  
REMARK    3  A    between atoms: CG   and  CD  
REMARK    4  A    between atoms: CD   and  CE  
ROOT
ATOM      1  CA  LYS A 131      29.867  25.555  16.977  1.00 20.52     0.186 C 
ENDROOT
BRANCH   1   2
ATOM      2  CB  LYS A 131      28.345  25.722  17.026  1.00 20.94     0.034 C 
BRANCH   2   3
ATOM      3  CG  LYS A 131      27.601  24.402  16.889  1.00 22.96     0.005 C 
BRANCH   3   4
ATOM      4  CD  LYS A 131      26.527  24.247  17.929  1.00 24.33     0.041 C 
BRANCH   4   5
ATOM      5  CE  LYS A 131      25.633  23.066  17.565  1.00 26.91     0.338 C 
ATOM      6  NZ  LYS A 131      24.314  23.541  17.084  1.00 27.40     0.618 N 
ENDBRANCH   4   5
ENDBRANCH   3   4
ENDBRANCH   2   3
ENDBRANCH   1   2
END_RES LYS A 131
BEGIN_RES LYS A 135
REMARK  4 active torsions:
REMARK  status: ('A' for Active; 'I' for Inactive)
REMARK    5  A    between atoms: CA   and  CB  
REMARK    6  A    between atoms: CB   and  CG  
REMARK    7  A    between atoms: CG   and  CD  
REMARK    8  A    between atoms: CD   and  CE  
ROOT
ATOM      7  CA  LYS A 135      33.193  34.663   9.290  1.00 25.02     0.186 C 
ENDROOT
BRANCH   7   8
ATOM      8  CB  LYS A 135      32.060  35.360  10.034  1.00 26.63     0.034 C 
BRANCH   8   9
ATOM      9  CG  LYS A 135      30.710  34.731   9.802  1.00 29.45     0.005 C 
BRANCH   9  10
ATOM     10  CD  LYS A 135      30.458  34.535   8.316  1.00 32.00     0.041 C 
BRANCH  10  11
ATOM     11  CE  LYS A 135      29.008  34.827   7.979  1.00 34.25     0.338 C 
ATOM     12  NZ  LYS A 135      28.893  35.545   6.679  1.00 35.99     0.618 N 
ENDBRANCH  10  11
ENDBRANCH   9  10
ENDBRANCH   8   9
ENDBRANCH   7   8
END_RES LYS A 135
