REMARK VINA RESULT:    -3.919      6.535     11.646
REMARK INTER + INTRA:         -23.327
REMARK INTER:                 -10.264
REMARK INTRA:                 -13.063
REMARK UNBOUND:               -13.108
REMARK SMILES CC(=O)N[C@@H]1[C@@H](O)C[C@](OC[C@H]2O[C@@H](O[C@H]3[C@H](O)[C@@H](O)[C@H](OCCN=[N+]=[N-])O[C@@H]3CO)[C@H](O)[C@@H](O)[C@H]2O)(C(=O)O)O[C@H]1C(O)[C@H](O)CNC(=O)OCc1cn(-c2cccc(C=CC(=O)O)c2)nn1
REMARK SMILES IDX 43 1 42 2 9 3 8 4 41 5 6 6 5 7 10 8 11 9 12 10 14 11 13 12
REMARK SMILES IDX 32 13 34 14 36 15 15 16 16 17 29 18 28 19 21 20 17 21 19 22
REMARK SMILES IDX 30 23 31 24 22 26 23 27 24 28 25 29 26 30 27 31 18 32 20 34
REMARK SMILES IDX 33 36 35 38 37 40 38 42 39 43 40 44 7 46 4 48 2 49 1 51 3 52
REMARK SMILES IDX 44 53 45 55 46 56 47 58 48 59 49 60 50 62 51 63 52 64 53 65
REMARK SMILES IDX 54 66 68 67 55 68 67 69 56 70 66 71 57 72 60 73 58 74 59 75
REMARK SMILES IDX 61 76 62 77 63 78 64 79 65 80
REMARK H PARENT 31 25 18 33 20 35 33 37 35 39 37 41 40 45 7 47 4 50 44 54
REMARK H PARENT 46 57 48 61 65 81
REMARK Flexibility Score: inf
ROOT
ATOM      1  C   UNL     1      27.816  36.294  18.010  1.00  0.00     0.176 C 
ENDROOT
BRANCH   1   2
ATOM      2  C   UNL     1      27.841  34.797  17.777  1.00  0.00     0.178 C 
ATOM      3  C   UNL     1      29.461  33.101  17.535  1.00  0.00     0.272 C 
ATOM      4  C   UNL     1      28.055  32.350  17.357  1.00  0.00     0.113 C 
ATOM      5  O   UNL     1      29.155  34.441  17.649  1.00  0.00    -0.332 OA
ATOM      6  C   UNL     1      27.410  33.003  16.186  1.00  0.00     0.145 C 
ATOM      7  C   UNL     1      27.088  34.445  16.524  1.00  0.00     0.142 C 
BRANCH   3   8
ATOM      8  O   UNL     1      30.053  32.875  16.356  1.00  0.00    -0.338 OA
BRANCH   8   9
ATOM      9  C   UNL     1      31.351  32.851  16.115  1.00  0.00     0.199 C 
BRANCH   9  10
ATOM     10  C   UNL     1      31.908  33.659  14.961  1.00  0.00     0.179 C 
ATOM     11  C   UNL     1      30.748  34.892  13.309  1.00  0.00     0.282 C 
ATOM     12  O   UNL     1      30.967  33.718  14.002  1.00  0.00    -0.341 OA
ATOM     13  C   UNL     1      32.010  35.648  13.186  1.00  0.00     0.202 C 
ATOM     14  C   UNL     1      32.705  35.961  14.476  1.00  0.00     0.179 C 
ATOM     15  C   UNL     1      32.181  35.038  15.545  1.00  0.00     0.177 C 
BRANCH  11  16
ATOM     16  O   UNL     1      29.679  35.509  13.922  1.00  0.00    -0.341 OA
BRANCH  16  17
ATOM     17  C   UNL     1      28.804  36.140  13.106  1.00  0.00     0.184 C 
ATOM     18  C   UNL     1      28.484  37.516  13.602  1.00  0.00     0.178 C 
ATOM     19  O   UNL     1      27.896  38.175  12.496  1.00  0.00    -0.341 OA
ATOM     20  C   UNL     1      26.608  37.677  12.285  1.00  0.00     0.281 C 
ATOM     21  C   UNL     1      27.451  35.426  13.026  1.00  0.00     0.180 C 
ATOM     22  C   UNL     1      26.578  36.201  12.062  1.00  0.00     0.202 C 
BRANCH  18  23
ATOM     23  C   UNL     1      29.649  38.305  14.079  1.00  0.00     0.191 C 
BRANCH  23  24
ATOM     24  O   UNL     1      29.864  38.035  15.429  1.00  0.00    -0.394 OA
ATOM     25  H   UNL     1      30.843  38.126  15.649  1.00  0.00     0.210 HD
ENDBRANCH  23  24
ENDBRANCH  18  23
BRANCH  20  26
ATOM     26  O   UNL     1      26.097  38.312  11.157  1.00  0.00    -0.350 OA
BRANCH  26  27
ATOM     27  C   UNL     1      26.804  37.976  10.005  1.00  0.00     0.169 C 
BRANCH  27  28
ATOM     28  C   UNL     1      25.833  37.974   8.846  1.00  0.00     0.119 C 
BRANCH  28  29
ATOM     29  N   UNL     1      25.440  36.616   8.554  1.00  0.00    -0.092 NA
ATOM     30  N   UNL     1      24.391  36.147   9.031  1.00  0.00     0.001 N 
ATOM     31  N   UNL     1      23.610  35.551   9.788  1.00  0.00    -0.003 NA
ENDBRANCH  28  29
ENDBRANCH  27  28
ENDBRANCH  26  27
ENDBRANCH  20  26
BRANCH  21  32
ATOM     32  O   UNL     1      27.564  34.136  12.522  1.00  0.00    -0.387 OA
ATOM     33  H   UNL     1      28.154  34.213  11.730  1.00  0.00     0.211 HD
ENDBRANCH  21  32
BRANCH  22  34
ATOM     34  O   UNL     1      25.255  35.772  12.315  1.00  0.00    -0.385 OA
ATOM     35  H   UNL     1      24.988  35.029  11.728  1.00  0.00     0.211 HD
ENDBRANCH  22  34
ENDBRANCH  16  17
ENDBRANCH  11  16
BRANCH  13  36
ATOM     36  O   UNL     1      32.929  34.894  12.398  1.00  0.00    -0.385 OA
ATOM     37  H   UNL     1      33.838  34.959  12.805  1.00  0.00     0.211 HD
ENDBRANCH  13  36
BRANCH  14  38
ATOM     38  O   UNL     1      32.610  37.301  14.860  1.00  0.00    -0.387 OA
ATOM     39  H   UNL     1      32.515  37.903  14.079  1.00  0.00     0.211 HD
ENDBRANCH  14  38
BRANCH  15  40
ATOM     40  O   UNL     1      31.032  35.579  16.088  1.00  0.00    -0.387 OA
ATOM     41  H   UNL     1      30.200  35.133  15.738  1.00  0.00     0.211 HD
ENDBRANCH  15  40
ENDBRANCH   9  10
ENDBRANCH   8   9
ENDBRANCH   3   8
BRANCH   3  42
ATOM     42  C   UNL     1      30.010  32.580  18.775  1.00  0.00     0.364 C 
ATOM     43  O   UNL     1      30.575  33.194  19.698  1.00  0.00    -0.246 OA
BRANCH  42  44
ATOM     44  O   UNL     1      29.904  31.185  18.995  1.00  0.00    -0.477 OA
ATOM     45  H   UNL     1      30.189  30.562  18.223  1.00  0.00     0.296 HD
ENDBRANCH  42  44
ENDBRANCH   3  42
BRANCH   6  46
ATOM     46  O   UNL     1      28.395  32.997  15.143  1.00  0.00    -0.391 OA
ATOM     47  H   UNL     1      29.021  33.761  15.278  1.00  0.00     0.211 HD
ENDBRANCH   6  46
BRANCH   7  48
ATOM     48  N   UNL     1      25.710  34.781  16.511  1.00  0.00    -0.348 N 
ATOM     49  C   UNL     1      24.756  34.499  15.529  1.00  0.00     0.217 C 
ATOM     50  H   UNL     1      25.324  35.355  17.347  1.00  0.00     0.163 HD
ATOM     51  C   UNL     1      23.332  34.981  15.729  1.00  0.00     0.114 C 
ATOM     52  O   UNL     1      24.994  33.860  14.469  1.00  0.00    -0.275 OA
ENDBRANCH   7  48
ENDBRANCH   1   2
BRANCH   1  53
ATOM     53  O   UNL     1      27.398  36.933  16.857  1.00  0.00    -0.388 OA
ATOM     54  H   UNL     1      26.434  37.044  16.772  1.00  0.00     0.211 HD
ENDBRANCH   1  53
BRANCH   1  55
ATOM     55  C   UNL     1      26.813  36.683  19.097  1.00  0.00     0.165 C 
BRANCH  55  56
ATOM     56  O   UNL     1      25.534  36.836  18.638  1.00  0.00    -0.388 OA
ATOM     57  H   UNL     1      25.295  37.756  18.381  1.00  0.00     0.211 HD
ENDBRANCH  55  56
BRANCH  55  58
ATOM     58  C   UNL     1      27.281  37.881  19.861  1.00  0.00     0.154 C 
BRANCH  58  59
ATOM     59  N   UNL     1      28.554  38.330  19.427  1.00  0.00    -0.319 N 
ATOM     60  C   UNL     1      29.399  39.128  20.230  1.00  0.00     0.407 C 
ATOM     61  H   UNL     1      28.919  38.077  18.469  1.00  0.00     0.167 HD
ATOM     62  O   UNL     1      29.049  39.485  21.389  1.00  0.00    -0.225 OA
BRANCH  60  63
ATOM     63  O   UNL     1      30.651  39.561  19.799  1.00  0.00    -0.443 OA
BRANCH  63  64
ATOM     64  C   UNL     1      31.016  39.221  18.456  1.00  0.00     0.294 C 
BRANCH  64  65
ATOM     65  C   UNL     1      31.846  38.004  18.528  1.00  0.00     0.121 A 
ATOM     66  C   UNL     1      33.220  37.896  18.331  1.00  0.00     0.144 A 
ATOM     67  N   UNL     1      31.413  36.765  18.812  1.00  0.00    -0.131 NA
ATOM     68  N   UNL     1      33.563  36.599  18.505  1.00  0.00    -0.220 N 
ATOM     69  N   UNL     1      32.455  35.946  18.792  1.00  0.00    -0.062 NA
BRANCH  68  70
ATOM     70  C   UNL     1      34.891  36.116  18.392  1.00  0.00     0.067 A 
ATOM     71  C   UNL     1      35.504  36.062  17.140  1.00  0.00     0.036 A 
ATOM     72  C   UNL     1      35.588  35.703  19.478  1.00  0.00     0.028 A 
ATOM     73  C   UNL     1      36.776  35.608  16.981  1.00  0.00    -0.023 A 
ATOM     74  C   UNL     1      36.894  35.230  19.364  1.00  0.00     0.003 A 
ATOM     75  C   UNL     1      37.458  35.195  18.109  1.00  0.00     0.008 A 
BRANCH  73  76
ATOM     76  C   UNL     1      37.413  35.548  15.683  1.00  0.00     0.015 C 
ATOM     77  C   UNL     1      38.168  34.534  15.344  1.00  0.00     0.094 C 
BRANCH  77  78
ATOM     78  C   UNL     1      38.793  34.515  14.019  1.00  0.00     0.328 C 
ATOM     79  O   UNL     1      39.299  35.531  13.530  1.00  0.00    -0.247 OA
BRANCH  78  80
ATOM     80  O   UNL     1      38.828  33.337  13.277  1.00  0.00    -0.478 OA
ATOM     81  H   UNL     1      37.933  32.891  13.065  1.00  0.00     0.297 HD
ENDBRANCH  78  80
ENDBRANCH  77  78
ENDBRANCH  73  76
ENDBRANCH  68  70
ENDBRANCH  64  65
ENDBRANCH  63  64
ENDBRANCH  60  63
ENDBRANCH  58  59
ENDBRANCH  55  58
ENDBRANCH   1  55
TORSDOF 33
BEGIN_RES LYS A 131
REMARK  4 active torsions:
REMARK  status: ('A' for Active; 'I' for Inactive)
REMARK    1  A    between atoms: CA   and  CB  
REMARK    2  A    between atoms: CB   and  CG  
REMARK    3  A    between atoms: CG   and  CD  
REMARK    4  A    between atoms: CD   and  CE  
ROOT
ATOM      1  CA  LYS A 131      29.867  25.555  16.977  1.00 20.52     0.186 C 
ENDROOT
BRANCH   1   2
ATOM      2  CB  LYS A 131      28.345  25.722  17.026  1.00 20.94     0.034 C 
BRANCH   2   3
ATOM      3  CG  LYS A 131      27.602  24.400  16.909  1.00 22.96     0.005 C 
BRANCH   3   4
ATOM      4  CD  LYS A 131      26.153  24.530  17.289  1.00 24.33     0.041 C 
BRANCH   4   5
ATOM      5  CE  LYS A 131      25.637  23.186  17.795  1.00 26.91     0.338 C 
ATOM      6  NZ  LYS A 131      25.512  23.201  19.272  1.00 27.40     0.618 N 
ENDBRANCH   4   5
ENDBRANCH   3   4
ENDBRANCH   2   3
ENDBRANCH   1   2
END_RES LYS A 131
BEGIN_RES LYS A 135
REMARK  4 active torsions:
REMARK  status: ('A' for Active; 'I' for Inactive)
REMARK    5  A    between atoms: CA   and  CB  
REMARK    6  A    between atoms: CB   and  CG  
REMARK    7  A    between atoms: CG   and  CD  
REMARK    8  A    between atoms: CD   and  CE  
ROOT
ATOM      7  CA  LYS A 135      33.193  34.663   9.290  1.00 25.02     0.186 C 
ENDROOT
BRANCH   7   8
ATOM      8  CB  LYS A 135      32.060  35.360  10.034  1.00 26.63     0.034 C 
BRANCH   8   9
ATOM      9  CG  LYS A 135      30.762  35.383   9.270  1.00 29.45     0.005 C 
BRANCH   9  10
ATOM     10  CD  LYS A 135      30.020  34.065   9.431  1.00 32.00     0.041 C 
BRANCH  10  11
ATOM     11  CE  LYS A 135      28.573  34.211   9.001  1.00 34.25     0.338 C 
ATOM     12  NZ  LYS A 135      28.461  35.049   7.775  1.00 35.99     0.618 N 
ENDBRANCH  10  11
ENDBRANCH   9  10
ENDBRANCH   8   9
ENDBRANCH   7   8
END_RES LYS A 135
