REMARK VINA RESULT:    -3.423      3.484      7.503
REMARK INTER + INTRA:         -22.125
REMARK INTER:                  -7.226
REMARK INTRA:                 -14.899
REMARK UNBOUND:               -13.100
REMARK SMILES CC(=O)N[C@@H]1[C@@H](O)C[C@](OC[C@H]2O[C@@H](O[C@H]3[C@H](O)[C@@H](O)[C@H](OCCN=[N+]=[N-])O[C@@H]3CO)[C@H](O)[C@@H](O)[C@H]2O)(C(=O)O)O[C@H]1C(O)[C@H](O)CNC(=O)OCc1cn(CCNS(C)(=O)=O)nn1
REMARK SMILES IDX 43 1 42 2 9 3 8 4 41 5 6 6 5 7 10 8 11 9 12 10 14 11 13 12
REMARK SMILES IDX 32 13 34 14 36 15 15 16 16 17 29 18 28 19 21 20 17 21 19 22
REMARK SMILES IDX 30 23 31 24 22 26 23 27 24 28 25 29 26 30 27 31 18 32 20 34
REMARK SMILES IDX 33 36 35 38 37 40 38 42 39 43 40 44 7 46 4 48 2 49 1 51 3 52
REMARK SMILES IDX 44 53 45 55 46 56 47 58 48 59 49 60 50 62 51 63 52 64 53 65
REMARK SMILES IDX 54 66 64 67 55 68 63 69 56 70 57 71 58 72 59 74 61 75 62 76
REMARK SMILES IDX 60 77
REMARK H PARENT 31 25 18 33 20 35 33 37 35 39 37 41 40 45 7 47 4 50 44 54
REMARK H PARENT 46 57 48 61 58 73
REMARK Flexibility Score: inf
ROOT
ATOM      1  C   UNL     1      26.890  36.222  19.756  1.00  0.00     0.176 C 
ENDROOT
BRANCH   1   2
ATOM      2  C   UNL     1      27.276  35.331  20.951  1.00  0.00     0.178 C 
ATOM      3  C   UNL     1      26.696  33.215  21.768  1.00  0.00     0.272 C 
ATOM      4  C   UNL     1      26.128  33.717  23.035  1.00  0.00     0.113 C 
ATOM      5  O   UNL     1      26.628  34.160  20.752  1.00  0.00    -0.332 OA
ATOM      6  C   UNL     1      26.105  35.213  23.188  1.00  0.00     0.145 C 
ATOM      7  C   UNL     1      26.920  36.000  22.220  1.00  0.00     0.142 C 
BRANCH   3   8
ATOM      8  O   UNL     1      26.077  32.086  21.222  1.00  0.00    -0.338 OA
BRANCH   8   9
ATOM      9  C   UNL     1      26.068  31.009  22.092  1.00  0.00     0.199 C 
BRANCH   9  10
ATOM     10  C   UNL     1      26.491  29.769  21.384  1.00  0.00     0.179 C 
ATOM     11  C   UNL     1      27.154  28.847  19.377  1.00  0.00     0.282 C 
ATOM     12  O   UNL     1      26.974  30.029  20.114  1.00  0.00    -0.341 OA
ATOM     13  C   UNL     1      28.182  27.965  19.996  1.00  0.00     0.202 C 
ATOM     14  C   UNL     1      27.673  27.575  21.367  1.00  0.00     0.179 C 
ATOM     15  C   UNL     1      27.322  28.795  22.150  1.00  0.00     0.177 C 
BRANCH  11  16
ATOM     16  O   UNL     1      27.487  29.217  18.109  1.00  0.00    -0.341 OA
BRANCH  16  17
ATOM     17  C   UNL     1      27.676  30.539  17.894  1.00  0.00     0.184 C 
ATOM     18  C   UNL     1      26.918  31.246  16.842  1.00  0.00     0.178 C 
ATOM     19  O   UNL     1      27.658  32.358  16.438  1.00  0.00    -0.341 OA
ATOM     20  C   UNL     1      28.715  32.019  15.643  1.00  0.00     0.281 C 
ATOM     21  C   UNL     1      29.183  30.867  17.708  1.00  0.00     0.180 C 
ATOM     22  C   UNL     1      29.387  30.786  16.210  1.00  0.00     0.202 C 
BRANCH  18  23
ATOM     23  C   UNL     1      25.632  31.835  17.414  1.00  0.00     0.191 C 
BRANCH  23  24
ATOM     24  O   UNL     1      25.934  32.609  18.558  1.00  0.00    -0.394 OA
ATOM     25  H   UNL     1      25.489  33.485  18.532  1.00  0.00     0.210 HD
ENDBRANCH  23  24
ENDBRANCH  18  23
BRANCH  20  26
ATOM     26  O   UNL     1      29.626  33.078  15.515  1.00  0.00    -0.350 OA
BRANCH  26  27
ATOM     27  C   UNL     1      30.878  32.703  15.102  1.00  0.00     0.169 C 
BRANCH  27  28
ATOM     28  C   UNL     1      31.877  33.645  15.697  1.00  0.00     0.119 C 
BRANCH  28  29
ATOM     29  N   UNL     1      31.313  34.968  15.929  1.00  0.00    -0.092 NA
ATOM     30  N   UNL     1      31.869  35.890  15.306  1.00  0.00     0.001 N 
ATOM     31  N   UNL     1      32.238  36.982  14.891  1.00  0.00    -0.003 NA
ENDBRANCH  28  29
ENDBRANCH  27  28
ENDBRANCH  26  27
ENDBRANCH  20  26
BRANCH  21  32
ATOM     32  O   UNL     1      29.429  32.187  18.098  1.00  0.00    -0.387 OA
ATOM     33  H   UNL     1      30.391  32.389  17.958  1.00  0.00     0.211 HD
ENDBRANCH  21  32
BRANCH  22  34
ATOM     34  O   UNL     1      28.926  29.619  15.643  1.00  0.00    -0.385 OA
ATOM     35  H   UNL     1      28.056  29.710  15.178  1.00  0.00     0.211 HD
ENDBRANCH  22  34
ENDBRANCH  16  17
ENDBRANCH  11  16
BRANCH  13  36
ATOM     36  O   UNL     1      28.299  26.756  19.293  1.00  0.00    -0.385 OA
ATOM     37  H   UNL     1      28.224  25.970  19.890  1.00  0.00     0.211 HD
ENDBRANCH  13  36
BRANCH  14  38
ATOM     38  O   UNL     1      28.513  26.699  22.008  1.00  0.00    -0.387 OA
ATOM     39  H   UNL     1      28.645  25.846  21.487  1.00  0.00     0.211 HD
ENDBRANCH  14  38
BRANCH  15  40
ATOM     40  O   UNL     1      28.498  29.428  22.538  1.00  0.00    -0.387 OA
ATOM     41  H   UNL     1      28.818  29.141  23.431  1.00  0.00     0.211 HD
ENDBRANCH  15  40
ENDBRANCH   9  10
ENDBRANCH   8   9
ENDBRANCH   3   8
BRANCH   3  42
ATOM     42  C   UNL     1      28.110  32.807  21.940  1.00  0.00     0.364 C 
ATOM     43  O   UNL     1      28.758  33.055  23.011  1.00  0.00    -0.246 OA
BRANCH  42  44
ATOM     44  O   UNL     1      28.847  32.137  20.984  1.00  0.00    -0.477 OA
ATOM     45  H   UNL     1      29.068  32.527  20.072  1.00  0.00     0.296 HD
ENDBRANCH  42  44
ENDBRANCH   3  42
BRANCH   6  46
ATOM     46  O   UNL     1      24.805  35.695  23.204  1.00  0.00    -0.391 OA
ATOM     47  H   UNL     1      24.701  36.643  22.986  1.00  0.00     0.211 HD
ENDBRANCH   6  46
BRANCH   7  48
ATOM     48  N   UNL     1      28.146  36.431  22.912  1.00  0.00    -0.348 N 
ATOM     49  C   UNL     1      28.569  37.750  23.097  1.00  0.00     0.217 C 
ATOM     50  H   UNL     1      28.776  35.672  23.355  1.00  0.00     0.163 HD
ATOM     51  C   UNL     1      29.855  38.066  23.814  1.00  0.00     0.114 C 
ATOM     52  O   UNL     1      27.899  38.731  22.674  1.00  0.00    -0.275 OA
ENDBRANCH   7  48
ENDBRANCH   1   2
BRANCH   1  53
ATOM     53  O   UNL     1      27.253  37.548  20.054  1.00  0.00    -0.388 OA
ATOM     54  H   UNL     1      26.750  37.810  20.847  1.00  0.00     0.211 HD
ENDBRANCH   1  53
BRANCH   1  55
ATOM     55  C   UNL     1      27.628  35.798  18.539  1.00  0.00     0.165 C 
BRANCH  55  56
ATOM     56  O   UNL     1      28.215  34.558  18.591  1.00  0.00    -0.388 OA
ATOM     57  H   UNL     1      29.208  34.588  18.573  1.00  0.00     0.211 HD
ENDBRANCH  55  56
BRANCH  55  58
ATOM     58  C   UNL     1      28.554  36.818  17.953  1.00  0.00     0.154 C 
BRANCH  58  59
ATOM     59  N   UNL     1      29.936  36.498  18.189  1.00  0.00    -0.319 N 
ATOM     60  C   UNL     1      30.629  37.243  19.219  1.00  0.00     0.407 C 
ATOM     61  H   UNL     1      30.465  35.777  17.675  1.00  0.00     0.167 HD
ATOM     62  O   UNL     1      29.954  38.100  19.845  1.00  0.00    -0.225 OA
BRANCH  60  63
ATOM     63  O   UNL     1      31.954  37.013  19.483  1.00  0.00    -0.443 OA
BRANCH  63  64
ATOM     64  C   UNL     1      32.621  35.927  18.883  1.00  0.00     0.294 C 
BRANCH  64  65
ATOM     65  C   UNL     1      32.375  34.679  19.627  1.00  0.00     0.120 A 
ATOM     66  C   UNL     1      33.129  34.155  20.665  1.00  0.00     0.138 A 
ATOM     67  N   UNL     1      31.364  33.837  19.468  1.00  0.00    -0.132 NA
ATOM     68  N   UNL     1      32.565  33.029  21.102  1.00  0.00    -0.251 N 
ATOM     69  N   UNL     1      31.475  32.840  20.355  1.00  0.00    -0.067 NA
BRANCH  68  70
ATOM     70  C   UNL     1      33.050  32.174  22.173  1.00  0.00     0.162 C 
BRANCH  70  71
ATOM     71  C   UNL     1      32.221  30.892  22.224  1.00  0.00     0.122 C 
BRANCH  71  72
ATOM     72  N   UNL     1      31.064  31.066  23.053  1.00  0.00    -0.214 NA
ATOM     73  H   UNL     1      30.214  30.717  22.533  1.00  0.00     0.141 HD
BRANCH  72  74
ATOM     74  S   UNL     1      31.150  30.173  24.521  1.00  0.00     0.208 S 
ATOM     75  O   UNL     1      30.739  28.731  24.277  1.00  0.00    -0.213 OA
ATOM     76  O   UNL     1      32.607  30.191  24.943  1.00  0.00    -0.213 OA
ATOM     77  C   UNL     1      30.146  30.909  25.774  1.00  0.00     0.176 C 
ENDBRANCH  72  74
ENDBRANCH  71  72
ENDBRANCH  70  71
ENDBRANCH  68  70
ENDBRANCH  64  65
ENDBRANCH  63  64
ENDBRANCH  60  63
ENDBRANCH  58  59
ENDBRANCH  55  58
ENDBRANCH   1  55
TORSDOF 33
BEGIN_RES LYS A 131
REMARK  4 active torsions:
REMARK  status: ('A' for Active; 'I' for Inactive)
REMARK    1  A    between atoms: CA   and  CB  
REMARK    2  A    between atoms: CB   and  CG  
REMARK    3  A    between atoms: CG   and  CD  
REMARK    4  A    between atoms: CD   and  CE  
ROOT
ATOM      1  CA  LYS A 131      29.867  25.555  16.977  1.00 20.52     0.186 C 
ENDROOT
BRANCH   1   2
ATOM      2  CB  LYS A 131      28.345  25.722  17.026  1.00 20.94     0.034 C 
BRANCH   2   3
ATOM      3  CG  LYS A 131      27.599  24.470  16.591  1.00 22.96     0.005 C 
BRANCH   3   4
ATOM      4  CD  LYS A 131      26.974  23.750  17.753  1.00 24.33     0.041 C 
BRANCH   4   5
ATOM      5  CE  LYS A 131      25.598  24.343  18.039  1.00 26.91     0.338 C 
ATOM      6  NZ  LYS A 131      25.476  24.704  19.471  1.00 27.40     0.618 N 
ENDBRANCH   4   5
ENDBRANCH   3   4
ENDBRANCH   2   3
ENDBRANCH   1   2
END_RES LYS A 131
BEGIN_RES LYS A 135
REMARK  4 active torsions:
REMARK  status: ('A' for Active; 'I' for Inactive)
REMARK    5  A    between atoms: CA   and  CB  
REMARK    6  A    between atoms: CB   and  CG  
REMARK    7  A    between atoms: CG   and  CD  
REMARK    8  A    between atoms: CD   and  CE  
ROOT
ATOM      7  CA  LYS A 135      33.193  34.663   9.290  1.00 25.02     0.186 C 
ENDROOT
BRANCH   7   8
ATOM      8  CB  LYS A 135      32.060  35.360  10.034  1.00 26.63     0.034 C 
BRANCH   8   9
ATOM      9  CG  LYS A 135      30.868  35.668   9.165  1.00 29.45     0.005 C 
BRANCH   9  10
ATOM     10  CD  LYS A 135      30.325  34.397   8.529  1.00 32.00     0.041 C 
BRANCH  10  11
ATOM     11  CE  LYS A 135      28.814  34.459   8.422  1.00 34.25     0.338 C 
ATOM     12  NZ  LYS A 135      28.166  33.779   9.577  1.00 35.99     0.618 N 
ENDBRANCH  10  11
ENDBRANCH   9  10
ENDBRANCH   8   9
ENDBRANCH   7   8
END_RES LYS A 135
