REMARK VINA RESULT:    -3.349      4.306      8.557
REMARK INTER + INTRA:         -22.303
REMARK INTER:                 -12.269
REMARK INTRA:                 -10.033
REMARK UNBOUND:               -13.473
REMARK SMILES CC(=O)N[C@@H]1[C@@H](O)C[C@](OC[C@H]2O[C@@H](O[C@H]3[C@H](O)[C@@H](O)[C@H](OCCN=[N+]=[N-])O[C@@H]3CO)[C@H](O)[C@@H](O)[C@H]2O)(C(=O)O)O[C@H]1C(O)[C@H](O)CNC(=O)OCc1cn(CCOC(C)=O)nn1
REMARK SMILES IDX 43 1 42 2 9 3 8 4 41 5 6 6 5 7 10 8 11 9 12 10 14 11 13 12
REMARK SMILES IDX 32 13 34 14 36 15 15 16 16 17 29 18 28 19 21 20 17 21 19 22
REMARK SMILES IDX 30 23 31 24 22 26 23 27 24 28 25 29 26 30 27 31 18 32 20 34
REMARK SMILES IDX 33 36 35 38 37 40 38 42 39 43 40 44 7 46 4 48 2 49 1 51 3 52
REMARK SMILES IDX 44 53 45 55 46 56 47 58 48 59 49 60 50 62 51 63 52 64 53 65
REMARK SMILES IDX 54 66 63 67 55 68 62 69 56 70 57 71 58 72 59 73 61 74 60 75
REMARK H PARENT 31 25 18 33 20 35 33 37 35 39 37 41 40 45 7 47 4 50 44 54
REMARK H PARENT 46 57 48 61
REMARK Flexibility Score: inf
ROOT
ATOM      1  C   UNL     1      29.652  37.631   9.963  1.00  0.00     0.176 C 
ENDROOT
BRANCH   1   2
ATOM      2  C   UNL     1      29.040  36.769   8.890  1.00  0.00     0.178 C 
ATOM      3  C   UNL     1      27.759  37.048   6.930  1.00  0.00     0.272 C 
ATOM      4  C   UNL     1      28.009  35.560   6.886  1.00  0.00     0.113 C 
ATOM      5  O   UNL     1      28.535  37.681   7.939  1.00  0.00    -0.332 OA
ATOM      6  C   UNL     1      27.733  34.880   8.180  1.00  0.00     0.145 C 
ATOM      7  C   UNL     1      27.862  35.945   9.306  1.00  0.00     0.142 C 
BRANCH   3   8
ATOM      8  O   UNL     1      26.526  37.453   7.110  1.00  0.00    -0.338 OA
BRANCH   8   9
ATOM      9  C   UNL     1      26.017  38.524   7.652  1.00  0.00     0.199 C 
BRANCH   9  10
ATOM     10  C   UNL     1      24.605  38.759   7.981  1.00  0.00     0.179 C 
ATOM     11  C   UNL     1      22.529  37.849   7.560  1.00  0.00     0.282 C 
ATOM     12  O   UNL     1      23.886  37.530   7.716  1.00  0.00    -0.341 OA
ATOM     13  C   UNL     1      22.019  38.832   8.528  1.00  0.00     0.202 C 
ATOM     14  C   UNL     1      22.918  39.236   9.645  1.00  0.00     0.179 C 
ATOM     15  C   UNL     1      24.357  38.887   9.496  1.00  0.00     0.177 C 
BRANCH  11  16
ATOM     16  O   UNL     1      21.846  36.647   7.481  1.00  0.00    -0.341 OA
BRANCH  16  17
ATOM     17  C   UNL     1      20.703  36.618   8.236  1.00  0.00     0.184 C 
ATOM     18  C   UNL     1      20.700  35.388   9.116  1.00  0.00     0.178 C 
ATOM     19  O   UNL     1      19.520  35.468   9.867  1.00  0.00    -0.341 OA
ATOM     20  C   UNL     1      18.458  35.108   9.092  1.00  0.00     0.281 C 
ATOM     21  C   UNL     1      19.450  36.635   7.375  1.00  0.00     0.180 C 
ATOM     22  C   UNL     1      18.576  35.451   7.625  1.00  0.00     0.202 C 
BRANCH  18  23
ATOM     23  C   UNL     1      21.880  35.429  10.069  1.00  0.00     0.191 C 
BRANCH  23  24
ATOM     24  O   UNL     1      23.037  35.076   9.399  1.00  0.00    -0.394 OA
ATOM     25  H   UNL     1      23.720  34.889  10.110  1.00  0.00     0.210 HD
ENDBRANCH  23  24
ENDBRANCH  18  23
BRANCH  20  26
ATOM     26  O   UNL     1      17.312  35.689   9.652  1.00  0.00    -0.350 OA
BRANCH  26  27
ATOM     27  C   UNL     1      16.413  34.721  10.083  1.00  0.00     0.169 C 
BRANCH  27  28
ATOM     28  C   UNL     1      15.364  34.611   8.971  1.00  0.00     0.119 C 
BRANCH  28  29
ATOM     29  N   UNL     1      15.457  33.280   8.396  1.00  0.00    -0.092 NA
ATOM     30  N   UNL     1      15.815  33.086   7.227  1.00  0.00     0.001 N 
ATOM     31  N   UNL     1      15.786  32.914   5.994  1.00  0.00    -0.003 NA
ENDBRANCH  28  29
ENDBRANCH  27  28
ENDBRANCH  26  27
ENDBRANCH  20  26
BRANCH  21  32
ATOM     32  O   UNL     1      18.735  37.822   7.479  1.00  0.00    -0.387 OA
ATOM     33  H   UNL     1      19.163  38.496   8.063  1.00  0.00     0.211 HD
ENDBRANCH  21  32
BRANCH  22  34
ATOM     34  O   UNL     1      18.956  34.380   6.841  1.00  0.00    -0.385 OA
ATOM     35  H   UNL     1      19.555  34.720   6.115  1.00  0.00     0.211 HD
ENDBRANCH  22  34
ENDBRANCH  16  17
ENDBRANCH  11  16
BRANCH  13  36
ATOM     36  O   UNL     1      21.465  39.969   7.882  1.00  0.00    -0.385 OA
ATOM     37  H   UNL     1      21.648  39.965   6.919  1.00  0.00     0.211 HD
ENDBRANCH  13  36
BRANCH  14  38
ATOM     38  O   UNL     1      22.478  38.721  10.874  1.00  0.00    -0.387 OA
ATOM     39  H   UNL     1      22.561  37.723  10.836  1.00  0.00     0.211 HD
ENDBRANCH  14  38
BRANCH  15  40
ATOM     40  O   UNL     1      24.525  37.592  10.057  1.00  0.00    -0.387 OA
ATOM     41  H   UNL     1      23.710  37.307  10.518  1.00  0.00     0.211 HD
ENDBRANCH  15  40
ENDBRANCH   9  10
ENDBRANCH   8   9
ENDBRANCH   3   8
BRANCH   3  42
ATOM     42  C   UNL     1      28.411  37.584   5.703  1.00  0.00     0.364 C 
ATOM     43  O   UNL     1      29.579  38.009   5.616  1.00  0.00    -0.246 OA
BRANCH  42  44
ATOM     44  O   UNL     1      27.684  37.640   4.495  1.00  0.00    -0.477 OA
ATOM     45  H   UNL     1      27.021  38.389   4.364  1.00  0.00     0.296 HD
ENDBRANCH  42  44
ENDBRANCH   3  42
BRANCH   6  46
ATOM     46  O   UNL     1      26.527  34.225   8.263  1.00  0.00    -0.391 OA
ATOM     47  H   UNL     1      25.990  34.276   7.432  1.00  0.00     0.211 HD
ENDBRANCH   6  46
BRANCH   7  48
ATOM     48  N   UNL     1      27.926  35.284  10.567  1.00  0.00    -0.348 N 
ATOM     49  C   UNL     1      26.762  34.961  11.311  1.00  0.00     0.217 C 
ATOM     50  H   UNL     1      28.845  35.005  10.946  1.00  0.00     0.163 HD
ATOM     51  C   UNL     1      26.839  34.268  12.634  1.00  0.00     0.114 C 
ATOM     52  O   UNL     1      25.601  35.246  10.889  1.00  0.00    -0.275 OA
ENDBRANCH   7  48
ENDBRANCH   1   2
BRANCH   1  53
ATOM     53  O   UNL     1      28.634  38.586  10.275  1.00  0.00    -0.388 OA
ATOM     54  H   UNL     1      27.862  38.136  10.677  1.00  0.00     0.211 HD
ENDBRANCH   1  53
BRANCH   1  55
ATOM     55  C   UNL     1      30.767  38.471   9.386  1.00  0.00     0.165 C 
BRANCH  55  56
ATOM     56  O   UNL     1      31.246  37.858   8.218  1.00  0.00    -0.388 OA
ATOM     57  H   UNL     1      31.756  37.063   8.477  1.00  0.00     0.211 HD
ENDBRANCH  55  56
BRANCH  55  58
ATOM     58  C   UNL     1      31.870  38.741  10.361  1.00  0.00     0.154 C 
BRANCH  58  59
ATOM     59  N   UNL     1      31.457  39.180  11.657  1.00  0.00    -0.319 N 
ATOM     60  C   UNL     1      31.112  40.512  11.955  1.00  0.00     0.407 C 
ATOM     61  H   UNL     1      31.386  38.504  12.480  1.00  0.00     0.167 HD
ATOM     62  O   UNL     1      31.130  41.423  11.101  1.00  0.00    -0.225 OA
BRANCH  60  63
ATOM     63  O   UNL     1      30.726  40.905  13.246  1.00  0.00    -0.443 OA
BRANCH  63  64
ATOM     64  C   UNL     1      30.329  39.989  14.226  1.00  0.00     0.294 C 
BRANCH  64  65
ATOM     65  C   UNL     1      29.144  39.195  13.798  1.00  0.00     0.120 A 
ATOM     66  C   UNL     1      27.850  39.685  13.799  1.00  0.00     0.138 A 
ATOM     67  N   UNL     1      29.057  37.948  13.348  1.00  0.00    -0.132 NA
ATOM     68  N   UNL     1      27.050  38.713  13.353  1.00  0.00    -0.249 N 
ATOM     69  N   UNL     1      27.805  37.664  13.083  1.00  0.00    -0.067 NA
BRANCH  68  70
ATOM     70  C   UNL     1      25.589  38.766  13.193  1.00  0.00     0.187 C 
BRANCH  70  71
ATOM     71  C   UNL     1      24.969  37.494  13.729  1.00  0.00     0.256 C 
BRANCH  71  72
ATOM     72  O   UNL     1      23.828  37.184  12.937  1.00  0.00    -0.464 OA
BRANCH  72  73
ATOM     73  C   UNL     1      22.946  36.183  13.332  1.00  0.00     0.302 C 
ATOM     74  O   UNL     1      23.372  35.004  13.369  1.00  0.00    -0.253 OA
ATOM     75  C   UNL     1      21.523  36.470  13.708  1.00  0.00     0.139 C 
ENDBRANCH  72  73
ENDBRANCH  71  72
ENDBRANCH  70  71
ENDBRANCH  68  70
ENDBRANCH  64  65
ENDBRANCH  63  64
ENDBRANCH  60  63
ENDBRANCH  58  59
ENDBRANCH  55  58
ENDBRANCH   1  55
TORSDOF 33
BEGIN_RES LYS A 131
REMARK  4 active torsions:
REMARK  status: ('A' for Active; 'I' for Inactive)
REMARK    1  A    between atoms: CA   and  CB  
REMARK    2  A    between atoms: CB   and  CG  
REMARK    3  A    between atoms: CG   and  CD  
REMARK    4  A    between atoms: CD   and  CE  
ROOT
ATOM      1  CA  LYS A 131      29.867  25.555  16.977  1.00 20.52     0.186 C 
ENDROOT
BRANCH   1   2
ATOM      2  CB  LYS A 131      28.345  25.722  17.026  1.00 20.94     0.034 C 
BRANCH   2   3
ATOM      3  CG  LYS A 131      27.601  24.402  16.892  1.00 22.96     0.005 C 
BRANCH   3   4
ATOM      4  CD  LYS A 131      26.667  24.159  18.045  1.00 24.33     0.041 C 
BRANCH   4   5
ATOM      5  CE  LYS A 131      26.232  25.495  18.638  1.00 26.91     0.338 C 
ATOM      6  NZ  LYS A 131      24.830  25.796  18.263  1.00 27.40     0.618 N 
ENDBRANCH   4   5
ENDBRANCH   3   4
ENDBRANCH   2   3
ENDBRANCH   1   2
END_RES LYS A 131
BEGIN_RES LYS A 135
REMARK  4 active torsions:
REMARK  status: ('A' for Active; 'I' for Inactive)
REMARK    5  A    between atoms: CA   and  CB  
REMARK    6  A    between atoms: CB   and  CG  
REMARK    7  A    between atoms: CG   and  CD  
REMARK    8  A    between atoms: CD   and  CE  
ROOT
ATOM      7  CA  LYS A 135      33.193  34.663   9.290  1.00 25.02     0.186 C 
ENDROOT
BRANCH   7   8
ATOM      8  CB  LYS A 135      32.060  35.360  10.034  1.00 26.63     0.034 C 
BRANCH   8   9
ATOM      9  CG  LYS A 135      31.273  34.440  10.931  1.00 29.45     0.005 C 
BRANCH   9  10
ATOM     10  CD  LYS A 135      31.127  35.041  12.321  1.00 32.00     0.041 C 
BRANCH  10  11
ATOM     11  CE  LYS A 135      32.395  35.770  12.722  1.00 34.25     0.338 C 
ATOM     12  NZ  LYS A 135      32.190  36.556  13.969  1.00 35.99     0.618 N 
ENDBRANCH  10  11
ENDBRANCH   9  10
ENDBRANCH   8   9
ENDBRANCH   7   8
END_RES LYS A 135
