REMARK VINA RESULT:    -3.478      4.745      8.973
REMARK INTER + INTRA:         -20.557
REMARK INTER:                 -11.213
REMARK INTRA:                  -9.344
REMARK UNBOUND:               -11.690
REMARK SMILES CC(=O)N[C@@H]1[C@@H](O)C[C@](OC[C@H]2O[C@@H](O[C@H]3[C@H](O)[C@@H](O)[C@H](OCCN=[N+]=[N-])O[C@@H]3CO)[C@H](O)[C@@H](O)[C@H]2O)(C(=O)O)O[C@H]1C(O)[C@H](O)CNC(=O)OCc1cn(CCO)nn1
REMARK SMILES IDX 9 1 8 2 6 3 5 4 42 5 41 6 10 7 11 8 12 9 14 10 13 11 32 12
REMARK SMILES IDX 34 13 36 14 15 15 16 16 29 17 28 18 21 19 17 20 19 21 30 22
REMARK SMILES IDX 31 23 22 25 23 26 24 27 25 28 26 29 27 30 18 31 20 33 33 35
REMARK SMILES IDX 35 37 37 39 38 41 39 42 40 43 7 45 43 47 44 48 45 50 46 51
REMARK SMILES IDX 47 53 48 54 49 55 50 57 51 58 52 59 53 60 54 61 60 62 55 63
REMARK SMILES IDX 59 64 56 65 57 66 58 67 4 69 2 70 1 72 3 73
REMARK H PARENT 31 24 18 32 20 34 33 36 35 38 37 40 40 44 7 46 44 49 46 52
REMARK H PARENT 48 56 58 68 4 71
REMARK Flexibility Score: inf
ROOT
ATOM      1  C   UNL     1      30.107  36.327  13.861  1.00  0.00     0.272 C 
ATOM      2  C   UNL     1      30.958  37.555  13.825  1.00  0.00     0.113 C 
ATOM      3  C   UNL     1      30.848  38.221  12.481  1.00  0.00     0.145 C 
ATOM      4  C   UNL     1      29.359  38.495  12.270  1.00  0.00     0.142 C 
ATOM      5  C   UNL     1      28.694  37.127  12.160  1.00  0.00     0.178 C 
ATOM      6  O   UNL     1      28.831  36.593  13.463  1.00  0.00    -0.332 OA
ENDROOT
BRANCH   1   7
ATOM      7  O   UNL     1      30.043  35.792  15.168  1.00  0.00    -0.338 OA
BRANCH   7   8
ATOM      8  C   UNL     1      31.232  35.465  15.732  1.00  0.00     0.199 C 
BRANCH   8   9
ATOM      9  C   UNL     1      31.081  34.272  16.689  1.00  0.00     0.179 C 
ATOM     10  C   UNL     1      29.503  32.986  17.802  1.00  0.00     0.282 C 
ATOM     11  O   UNL     1      29.764  34.148  17.077  1.00  0.00    -0.341 OA
ATOM     12  C   UNL     1      29.753  31.740  16.994  1.00  0.00     0.202 C 
ATOM     13  C   UNL     1      30.678  31.953  15.822  1.00  0.00     0.179 C 
ATOM     14  C   UNL     1      31.685  33.017  16.158  1.00  0.00     0.177 C 
BRANCH  10  15
ATOM     15  O   UNL     1      28.207  33.037  18.147  1.00  0.00    -0.341 OA
BRANCH  15  16
ATOM     16  C   UNL     1      27.266  32.394  17.439  1.00  0.00     0.184 C 
ATOM     17  C   UNL     1      26.344  33.091  16.543  1.00  0.00     0.178 C 
ATOM     18  O   UNL     1      25.098  32.488  16.555  1.00  0.00    -0.341 OA
ATOM     19  C   UNL     1      25.046  31.131  16.555  1.00  0.00     0.281 C 
ATOM     20  C   UNL     1      26.389  31.680  18.502  1.00  0.00     0.180 C 
ATOM     21  C   UNL     1      25.772  30.514  17.760  1.00  0.00     0.202 C 
BRANCH  17  22
ATOM     22  C   UNL     1      26.815  33.129  15.091  1.00  0.00     0.191 C 
BRANCH  22  23
ATOM     23  O   UNL     1      27.788  34.108  14.887  1.00  0.00    -0.394 OA
ATOM     24  H   UNL     1      28.154  34.360  15.757  1.00  0.00     0.210 HD
ENDBRANCH  22  23
ENDBRANCH  17  22
BRANCH  19  25
ATOM     25  O   UNL     1      25.374  30.494  15.392  1.00  0.00    -0.350 OA
BRANCH  25  26
ATOM     26  C   UNL     1      24.350  30.022  14.628  1.00  0.00     0.169 C 
BRANCH  26  27
ATOM     27  C   UNL     1      24.385  30.600  13.254  1.00  0.00     0.119 C 
BRANCH  27  28
ATOM     28  N   UNL     1      23.009  30.890  12.817  1.00  0.00    -0.092 NA
ATOM     29  N   UNL     1      22.380  29.904  12.391  1.00  0.00     0.001 N 
ATOM     30  N   UNL     1      21.526  29.006  12.495  1.00  0.00    -0.003 NA
ENDBRANCH  27  28
ENDBRANCH  26  27
ENDBRANCH  25  26
ENDBRANCH  19  25
BRANCH  20  31
ATOM     31  O   UNL     1      27.141  31.302  19.583  1.00  0.00    -0.387 OA
ATOM     32  H   UNL     1      27.099  31.953  20.328  1.00  0.00     0.211 HD
ENDBRANCH  20  31
BRANCH  21  33
ATOM     33  O   UNL     1      24.949  29.786  18.577  1.00  0.00    -0.385 OA
ATOM     34  H   UNL     1      25.264  28.858  18.714  1.00  0.00     0.211 HD
ENDBRANCH  21  33
ENDBRANCH  15  16
ENDBRANCH  10  15
BRANCH  12  35
ATOM     35  O   UNL     1      30.404  30.816  17.826  1.00  0.00    -0.385 OA
ATOM     36  H   UNL     1      31.312  31.086  18.069  1.00  0.00     0.211 HD
ENDBRANCH  12  35
BRANCH  13  37
ATOM     37  O   UNL     1      29.942  32.222  14.698  1.00  0.00    -0.387 OA
ATOM     38  H   UNL     1      30.088  33.164  14.368  1.00  0.00     0.211 HD
ENDBRANCH  13  37
BRANCH  14  39
ATOM     39  O   UNL     1      32.352  33.346  14.957  1.00  0.00    -0.387 OA
ATOM     40  H   UNL     1      32.148  32.686  14.249  1.00  0.00     0.211 HD
ENDBRANCH  14  39
ENDBRANCH   8   9
ENDBRANCH   7   8
ENDBRANCH   1   7
BRANCH   1  41
ATOM     41  C   UNL     1      30.770  35.266  13.071  1.00  0.00     0.364 C 
ATOM     42  O   UNL     1      31.937  35.365  12.650  1.00  0.00    -0.246 OA
BRANCH  41  43
ATOM     43  O   UNL     1      30.102  34.094  12.763  1.00  0.00    -0.477 OA
ATOM     44  H   UNL     1      29.726  33.895  11.820  1.00  0.00     0.296 HD
ENDBRANCH  41  43
ENDBRANCH   1  41
BRANCH   3  45
ATOM     45  O   UNL     1      31.478  39.484  12.500  1.00  0.00    -0.391 OA
ATOM     46  H   UNL     1      31.404  39.864  13.417  1.00  0.00     0.211 HD
ENDBRANCH   3  45
BRANCH   5  47
ATOM     47  C   UNL     1      27.221  37.317  11.989  1.00  0.00     0.176 C 
BRANCH  47  48
ATOM     48  O   UNL     1      26.827  37.151  10.660  1.00  0.00    -0.388 OA
ATOM     49  H   UNL     1      26.065  36.519  10.574  1.00  0.00     0.211 HD
ENDBRANCH  47  48
BRANCH  47  50
ATOM     50  C   UNL     1      26.299  36.594  12.892  1.00  0.00     0.165 C 
BRANCH  50  51
ATOM     51  O   UNL     1      26.300  35.248  12.321  1.00  0.00    -0.388 OA
ATOM     52  H   UNL     1      26.285  34.602  13.065  1.00  0.00     0.211 HD
ENDBRANCH  50  51
BRANCH  50  53
ATOM     53  C   UNL     1      24.837  36.971  12.728  1.00  0.00     0.154 C 
BRANCH  53  54
ATOM     54  N   UNL     1      24.160  36.230  11.713  1.00  0.00    -0.319 N 
ATOM     55  C   UNL     1      22.928  36.687  11.179  1.00  0.00     0.407 C 
ATOM     56  H   UNL     1      24.546  35.318  11.338  1.00  0.00     0.167 HD
ATOM     57  O   UNL     1      22.474  37.778  11.664  1.00  0.00    -0.225 OA
BRANCH  55  58
ATOM     58  O   UNL     1      22.194  36.073  10.200  1.00  0.00    -0.443 OA
BRANCH  58  59
ATOM     59  C   UNL     1      22.831  35.694   8.995  1.00  0.00     0.294 C 
BRANCH  59  60
ATOM     60  C   UNL     1      23.767  36.706   8.500  1.00  0.00     0.120 A 
ATOM     61  C   UNL     1      23.417  37.905   7.929  1.00  0.00     0.138 A 
ATOM     62  N   UNL     1      25.110  36.684   8.495  1.00  0.00    -0.132 NA
ATOM     63  N   UNL     1      24.534  38.579   7.593  1.00  0.00    -0.250 N 
ATOM     64  N   UNL     1      25.550  37.824   7.945  1.00  0.00    -0.067 NA
BRANCH  63  65
ATOM     65  C   UNL     1      24.575  39.904   6.959  1.00  0.00     0.174 C 
BRANCH  65  66
ATOM     66  C   UNL     1      26.014  40.235   6.651  1.00  0.00     0.179 C 
BRANCH  66  67
ATOM     67  O   UNL     1      26.428  39.385   5.612  1.00  0.00    -0.394 OA
ATOM     68  H   UNL     1      26.512  39.835   4.754  1.00  0.00     0.210 HD
ENDBRANCH  66  67
ENDBRANCH  65  66
ENDBRANCH  63  65
ENDBRANCH  59  60
ENDBRANCH  58  59
ENDBRANCH  55  58
ENDBRANCH  53  54
ENDBRANCH  50  53
ENDBRANCH  47  50
ENDBRANCH   5  47
BRANCH   4  69
ATOM     69  N   UNL     1      29.096  39.414  11.234  1.00  0.00    -0.348 N 
ATOM     70  C   UNL     1      28.433  40.654  11.383  1.00  0.00     0.217 C 
ATOM     71  H   UNL     1      29.422  39.197  10.258  1.00  0.00     0.163 HD
ATOM     72  C   UNL     1      28.222  41.519  10.204  1.00  0.00     0.114 C 
ATOM     73  O   UNL     1      28.023  41.029  12.492  1.00  0.00    -0.275 OA
ENDBRANCH   4  69
TORSDOF 32
BEGIN_RES LYS A 131
REMARK  4 active torsions:
REMARK  status: ('A' for Active; 'I' for Inactive)
REMARK    1  A    between atoms: CA   and  CB  
REMARK    2  A    between atoms: CB   and  CG  
REMARK    3  A    between atoms: CG   and  CD  
REMARK    4  A    between atoms: CD   and  CE  
ROOT
ATOM      1  CA  LYS A 131      29.867  25.555  16.977  1.00 20.52     0.186 C 
ENDROOT
BRANCH   1   2
ATOM      2  CB  LYS A 131      28.345  25.722  17.026  1.00 20.94     0.034 C 
BRANCH   2   3
ATOM      3  CG  LYS A 131      27.601  24.401  16.906  1.00 22.96     0.005 C 
BRANCH   3   4
ATOM      4  CD  LYS A 131      26.145  24.536  17.255  1.00 24.33     0.041 C 
BRANCH   4   5
ATOM      5  CE  LYS A 131      26.004  25.331  18.550  1.00 26.91     0.338 C 
ATOM      6  NZ  LYS A 131      24.952  26.366  18.411  1.00 27.40     0.618 N 
ENDBRANCH   4   5
ENDBRANCH   3   4
ENDBRANCH   2   3
ENDBRANCH   1   2
END_RES LYS A 131
BEGIN_RES LYS A 135
REMARK  4 active torsions:
REMARK  status: ('A' for Active; 'I' for Inactive)
REMARK    5  A    between atoms: CA   and  CB  
REMARK    6  A    between atoms: CB   and  CG  
REMARK    7  A    between atoms: CG   and  CD  
REMARK    8  A    between atoms: CD   and  CE  
ROOT
ATOM      7  CA  LYS A 135      33.193  34.663   9.290  1.00 25.02     0.186 C 
ENDROOT
BRANCH   7   8
ATOM      8  CB  LYS A 135      32.060  35.360  10.034  1.00 26.63     0.034 C 
BRANCH   8   9
ATOM      9  CG  LYS A 135      30.734  35.283   9.321  1.00 29.45     0.005 C 
BRANCH   9  10
ATOM     10  CD  LYS A 135      30.291  36.664   8.863  1.00 32.00     0.041 C 
BRANCH  10  11
ATOM     11  CE  LYS A 135      29.058  36.563   7.985  1.00 34.25     0.338 C 
ATOM     12  NZ  LYS A 135      28.709  35.142   7.711  1.00 35.99     0.618 N 
ENDBRANCH  10  11
ENDBRANCH   9  10
ENDBRANCH   8   9
ENDBRANCH   7   8
END_RES LYS A 135
