REMARK VINA RESULT:    -4.509      4.247     10.818
REMARK INTER + INTRA:         -23.034
REMARK INTER:                 -14.407
REMARK INTRA:                  -8.627
REMARK UNBOUND:               -11.408
REMARK SMILES CC(=O)N[C@@H]1[C@@H](O)C[C@](OC[C@H]2O[C@@H](O[C@H]3[C@H](O)[C@@H](O)[C@H](OCCN=[N+]=[N-])O[C@@H]3CO)[C@H](O)[C@@H](O)[C@H]2O)(C(=O)O)O[C@H]1C(O)[C@H](O)CNC(=O)OCc1cn(CS(=O)(=O)c2ccccc2)nn1
REMARK SMILES IDX 9 1 8 2 6 3 5 4 42 5 41 6 10 7 11 8 12 9 14 10 13 11 32 12
REMARK SMILES IDX 34 13 36 14 15 15 16 16 29 17 28 18 21 19 17 20 19 21 30 22
REMARK SMILES IDX 31 23 22 25 23 26 24 27 25 28 26 29 27 30 18 31 20 33 33 35
REMARK SMILES IDX 35 37 37 39 38 41 39 42 40 43 7 45 43 47 44 48 45 50 46 51
REMARK SMILES IDX 47 53 48 54 49 55 50 57 51 58 52 59 53 60 54 61 67 62 55 63
REMARK SMILES IDX 66 64 56 65 57 66 58 67 59 68 60 69 61 70 65 71 62 72 64 73
REMARK SMILES IDX 63 74 4 75 2 76 1 78 3 79
REMARK H PARENT 31 24 18 32 20 34 33 36 35 38 37 40 40 44 7 46 44 49 46 52
REMARK H PARENT 48 56 4 77
REMARK Flexibility Score: inf
ROOT
ATOM      1  C   UNL     1      26.466  37.557   8.430  1.00  0.00     0.272 C 
ATOM      2  C   UNL     1      26.608  38.491   7.299  1.00  0.00     0.113 C 
ATOM      3  C   UNL     1      27.598  38.065   6.233  1.00  0.00     0.145 C 
ATOM      4  C   UNL     1      28.859  37.710   6.939  1.00  0.00     0.142 C 
ATOM      5  C   UNL     1      28.654  36.766   8.091  1.00  0.00     0.178 C 
ATOM      6  O   UNL     1      27.642  37.030   8.940  1.00  0.00    -0.332 OA
ENDROOT
BRANCH   1   7
ATOM      7  O   UNL     1      25.494  36.598   8.238  1.00  0.00    -0.338 OA
BRANCH   7   8
ATOM      8  C   UNL     1      24.235  37.030   7.976  1.00  0.00     0.199 C 
BRANCH   8   9
ATOM      9  C   UNL     1      23.190  36.036   8.527  1.00  0.00     0.179 C 
ATOM     10  C   UNL     1      22.539  36.367  10.778  1.00  0.00     0.282 C 
ATOM     11  O   UNL     1      23.415  35.901   9.840  1.00  0.00    -0.341 OA
ATOM     12  C   UNL     1      21.808  37.568  10.309  1.00  0.00     0.202 C 
ATOM     13  C   UNL     1      21.163  37.351   8.974  1.00  0.00     0.179 C 
ATOM     14  C   UNL     1      21.803  36.327   8.127  1.00  0.00     0.177 C 
BRANCH  10  15
ATOM     15  O   UNL     1      23.326  36.621  11.914  1.00  0.00    -0.341 OA
BRANCH  15  16
ATOM     16  C   UNL     1      23.624  35.556  12.694  1.00  0.00     0.184 C 
ATOM     17  C   UNL     1      23.149  35.719  14.107  1.00  0.00     0.178 C 
ATOM     18  O   UNL     1      23.106  34.449  14.676  1.00  0.00    -0.341 OA
ATOM     19  C   UNL     1      24.220  33.683  14.473  1.00  0.00     0.281 C 
ATOM     20  C   UNL     1      25.155  35.388  12.854  1.00  0.00     0.180 C 
ATOM     21  C   UNL     1      25.396  34.377  13.905  1.00  0.00     0.202 C 
BRANCH  17  22
ATOM     22  C   UNL     1      21.820  36.366  14.280  1.00  0.00     0.191 C 
BRANCH  22  23
ATOM     23  O   UNL     1      21.932  37.725  14.009  1.00  0.00    -0.394 OA
ATOM     24  H   UNL     1      22.371  37.860  13.138  1.00  0.00     0.210 HD
ENDBRANCH  22  23
ENDBRANCH  17  22
BRANCH  19  25
ATOM     25  O   UNL     1      23.844  32.651  13.616  1.00  0.00    -0.350 OA
BRANCH  25  26
ATOM     26  C   UNL     1      23.054  31.688  14.284  1.00  0.00     0.169 C 
BRANCH  26  27
ATOM     27  C   UNL     1      23.847  31.109  15.435  1.00  0.00     0.119 C 
BRANCH  27  28
ATOM     28  N   UNL     1      24.950  30.337  14.867  1.00  0.00    -0.092 NA
ATOM     29  N   UNL     1      26.065  30.432  15.418  1.00  0.00     0.001 N 
ATOM     30  N   UNL     1      27.185  30.768  15.843  1.00  0.00    -0.003 NA
ENDBRANCH  27  28
ENDBRANCH  26  27
ENDBRANCH  25  26
ENDBRANCH  19  25
BRANCH  20  31
ATOM     31  O   UNL     1      25.721  34.991  11.654  1.00  0.00    -0.387 OA
ATOM     32  H   UNL     1      26.707  35.046  11.747  1.00  0.00     0.211 HD
ENDBRANCH  20  31
BRANCH  21  33
ATOM     33  O   UNL     1      26.050  35.027  14.982  1.00  0.00    -0.385 OA
ATOM     34  H   UNL     1      27.006  35.161  14.813  1.00  0.00     0.211 HD
ENDBRANCH  21  33
ENDBRANCH  15  16
ENDBRANCH  10  15
BRANCH  12  35
ATOM     35  O   UNL     1      20.712  37.872  11.178  1.00  0.00    -0.385 OA
ATOM     36  H   UNL     1      19.935  37.420  10.770  1.00  0.00     0.211 HD
ENDBRANCH  12  35
BRANCH  13  37
ATOM     37  O   UNL     1      21.033  38.579   8.278  1.00  0.00    -0.387 OA
ATOM     38  H   UNL     1      20.245  38.526   7.664  1.00  0.00     0.211 HD
ENDBRANCH  13  37
BRANCH  14  39
ATOM     39  O   UNL     1      21.698  36.712   6.777  1.00  0.00    -0.387 OA
ATOM     40  H   UNL     1      21.815  37.695   6.736  1.00  0.00     0.211 HD
ENDBRANCH  14  39
ENDBRANCH   8   9
ENDBRANCH   7   8
ENDBRANCH   1   7
BRANCH   1  41
ATOM     41  C   UNL     1      25.990  38.413   9.593  1.00  0.00     0.364 C 
ATOM     42  O   UNL     1      25.859  39.633   9.401  1.00  0.00    -0.246 OA
BRANCH  41  43
ATOM     43  O   UNL     1      25.712  37.836  10.821  1.00  0.00    -0.477 OA
ATOM     44  H   UNL     1      25.144  36.977  10.872  1.00  0.00     0.296 HD
ENDBRANCH  41  43
ENDBRANCH   1  41
BRANCH   3  45
ATOM     45  O   UNL     1      27.045  37.061   5.487  1.00  0.00    -0.391 OA
ATOM     46  H   UNL     1      26.079  37.001   5.726  1.00  0.00     0.211 HD
ENDBRANCH   3  45
BRANCH   5  47
ATOM     47  C   UNL     1      28.747  35.315   7.680  1.00  0.00     0.176 C 
BRANCH  47  48
ATOM     48  O   UNL     1      29.988  34.961   7.156  1.00  0.00    -0.388 OA
ATOM     49  H   UNL     1      29.990  34.782   6.204  1.00  0.00     0.211 HD
ENDBRANCH  47  48
BRANCH  47  50
ATOM     50  C   UNL     1      28.387  34.359   8.808  1.00  0.00     0.165 C 
BRANCH  50  51
ATOM     51  O   UNL     1      27.046  34.370   9.113  1.00  0.00    -0.388 OA
ATOM     52  H   UNL     1      26.785  33.843   9.884  1.00  0.00     0.211 HD
ENDBRANCH  50  51
BRANCH  50  53
ATOM     53  C   UNL     1      29.237  34.485  10.015  1.00  0.00     0.154 C 
BRANCH  53  54
ATOM     54  N   UNL     1      28.736  35.280  11.095  1.00  0.00    -0.319 N 
ATOM     55  C   UNL     1      28.983  35.077  12.471  1.00  0.00     0.407 C 
ATOM     56  H   UNL     1      28.112  36.107  10.842  1.00  0.00     0.167 HD
ATOM     57  O   UNL     1      29.709  34.145  12.866  1.00  0.00    -0.225 OA
BRANCH  55  58
ATOM     58  O   UNL     1      28.401  35.942  13.385  1.00  0.00    -0.443 OA
BRANCH  58  59
ATOM     59  C   UNL     1      28.684  37.306  13.478  1.00  0.00     0.294 C 
BRANCH  59  60
ATOM     60  C   UNL     1      29.709  37.531  14.515  1.00  0.00     0.120 A 
ATOM     61  C   UNL     1      30.713  36.627  14.818  1.00  0.00     0.139 A 
ATOM     62  N   UNL     1      29.908  38.572  15.338  1.00  0.00    -0.132 NA
ATOM     63  N   UNL     1      31.481  37.135  15.800  1.00  0.00    -0.237 N 
ATOM     64  N   UNL     1      30.959  38.322  16.092  1.00  0.00    -0.066 NA
BRANCH  63  65
ATOM     65  C   UNL     1      32.632  36.521  16.401  1.00  0.00     0.287 C 
BRANCH  65  66
ATOM     66  S   UNL     1      32.037  35.578  17.804  1.00  0.00     0.198 S 
ATOM     67  O   UNL     1      30.923  36.284  18.478  1.00  0.00    -0.222 OA
ATOM     68  O   UNL     1      33.222  35.386  18.735  1.00  0.00    -0.222 OA
BRANCH  66  69
ATOM     69  C   UNL     1      31.518  34.025  17.202  1.00  0.00     0.069 A 
ATOM     70  C   UNL     1      30.778  33.152  17.970  1.00  0.00     0.020 A 
ATOM     71  C   UNL     1      31.836  33.617  15.925  1.00  0.00     0.020 A 
ATOM     72  C   UNL     1      30.370  31.931  17.499  1.00  0.00     0.001 A 
ATOM     73  C   UNL     1      31.437  32.399  15.439  1.00  0.00     0.001 A 
ATOM     74  C   UNL     1      30.701  31.555  16.232  1.00  0.00     0.000 A 
ENDBRANCH  66  69
ENDBRANCH  65  66
ENDBRANCH  63  65
ENDBRANCH  59  60
ENDBRANCH  58  59
ENDBRANCH  55  58
ENDBRANCH  53  54
ENDBRANCH  50  53
ENDBRANCH  47  50
ENDBRANCH   5  47
BRANCH   4  75
ATOM     75  N   UNL     1      29.442  38.929   7.486  1.00  0.00    -0.348 N 
ATOM     76  C   UNL     1      30.378  39.707   6.749  1.00  0.00     0.217 C 
ATOM     77  H   UNL     1      29.197  39.288   8.459  1.00  0.00     0.163 HD
ATOM     78  C   UNL     1      30.951  40.958   7.361  1.00  0.00     0.114 C 
ATOM     79  O   UNL     1      30.734  39.360   5.586  1.00  0.00    -0.275 OA
ENDBRANCH   4  75
TORSDOF 32
BEGIN_RES LYS A 131
REMARK  4 active torsions:
REMARK  status: ('A' for Active; 'I' for Inactive)
REMARK    1  A    between atoms: CA   and  CB  
REMARK    2  A    between atoms: CB   and  CG  
REMARK    3  A    between atoms: CG   and  CD  
REMARK    4  A    between atoms: CD   and  CE  
ROOT
ATOM      1  CA  LYS A 131      29.867  25.555  16.977  1.00 20.52     0.186 C 
ENDROOT
BRANCH   1   2
ATOM      2  CB  LYS A 131      28.345  25.722  17.026  1.00 20.94     0.034 C 
BRANCH   2   3
ATOM      3  CG  LYS A 131      27.599  24.477  16.570  1.00 22.96     0.005 C 
BRANCH   3   4
ATOM      4  CD  LYS A 131      27.238  23.580  17.722  1.00 24.33     0.041 C 
BRANCH   4   5
ATOM      5  CE  LYS A 131      25.850  23.947  18.237  1.00 26.91     0.338 C 
ATOM      6  NZ  LYS A 131      24.818  23.626  17.223  1.00 27.40     0.618 N 
ENDBRANCH   4   5
ENDBRANCH   3   4
ENDBRANCH   2   3
ENDBRANCH   1   2
END_RES LYS A 131
BEGIN_RES LYS A 135
REMARK  4 active torsions:
REMARK  status: ('A' for Active; 'I' for Inactive)
REMARK    5  A    between atoms: CA   and  CB  
REMARK    6  A    between atoms: CB   and  CG  
REMARK    7  A    between atoms: CG   and  CD  
REMARK    8  A    between atoms: CD   and  CE  
ROOT
ATOM      7  CA  LYS A 135      33.193  34.663   9.290  1.00 25.02     0.186 C 
ENDROOT
BRANCH   7   8
ATOM      8  CB  LYS A 135      32.060  35.360  10.034  1.00 26.63     0.034 C 
BRANCH   8   9
ATOM      9  CG  LYS A 135      32.444  35.829  11.414  1.00 29.45     0.005 C 
BRANCH   9  10
ATOM     10  CD  LYS A 135      32.202  37.323  11.559  1.00 32.00     0.041 C 
BRANCH  10  11
ATOM     11  CE  LYS A 135      31.125  37.785  10.597  1.00 34.25     0.338 C 
ATOM     12  NZ  LYS A 135      30.793  39.220  10.811  1.00 35.99     0.618 N 
ENDBRANCH  10  11
ENDBRANCH   9  10
ENDBRANCH   8   9
ENDBRANCH   7   8
END_RES LYS A 135
