REMARK VINA RESULT:    -5.307      7.574     15.246
REMARK INTER + INTRA:         -21.170
REMARK INTER:                 -11.970
REMARK INTRA:                  -9.201
REMARK UNBOUND:                -8.107
REMARK SMILES CC(=O)N[C@@H]1[C@@H](O)C[C@](OC[C@H]2O[C@@H](O[C@H]3[C@H](O)[C@@H](O)[C@H](OCCN=[N+]=[N-])O[C@@H]3CO)[C@H](O)[C@@H](O)[C@H]2O)(C(=O)O)O[C@H]1C(O)[C@H](O)CNC(=O)OCc1cn(C2CCN(C)CC2)nn1
REMARK SMILES IDX 9 1 8 2 6 3 5 4 42 5 41 6 10 7 11 8 12 9 14 10 13 11 32 12
REMARK SMILES IDX 34 13 36 14 15 15 16 16 29 17 28 18 21 19 17 20 19 21 30 22
REMARK SMILES IDX 31 23 22 25 23 26 24 27 25 28 26 29 27 30 18 31 20 33 33 35
REMARK SMILES IDX 35 37 37 39 38 41 39 42 40 43 7 45 43 47 44 48 45 50 46 51
REMARK SMILES IDX 47 53 48 54 49 55 50 57 51 58 52 59 53 60 54 61 64 62 55 63
REMARK SMILES IDX 63 64 56 65 57 66 62 67 58 68 61 69 59 70 60 71 4 72 2 73
REMARK SMILES IDX 1 75 3 76
REMARK H PARENT 31 24 18 32 20 34 33 36 35 38 37 40 40 44 7 46 44 49 46 52
REMARK H PARENT 48 56 4 74
REMARK Flexibility Score: inf
ROOT
ATOM      1  C   UNL     1      31.477  31.055  22.323  1.00  0.00     0.272 C 
ATOM      2  C   UNL     1      32.945  31.406  22.481  1.00  0.00     0.113 C 
ATOM      3  C   UNL     1      33.804  30.372  23.080  1.00  0.00     0.145 C 
ATOM      4  C   UNL     1      33.489  28.956  22.651  1.00  0.00     0.142 C 
ATOM      5  C   UNL     1      32.114  28.789  22.130  1.00  0.00     0.178 C 
ATOM      6  O   UNL     1      31.454  29.815  21.607  1.00  0.00    -0.332 OA
ENDROOT
BRANCH   1   7
ATOM      7  O   UNL     1      30.930  31.906  21.441  1.00  0.00    -0.338 OA
BRANCH   7   8
ATOM      8  C   UNL     1      30.965  31.994  20.155  1.00  0.00     0.199 C 
BRANCH   8   9
ATOM      9  C   UNL     1      29.781  32.324  19.299  1.00  0.00     0.179 C 
ATOM     10  C   UNL     1      30.591  33.158  17.214  1.00  0.00     0.282 C 
ATOM     11  O   UNL     1      30.163  33.353  18.483  1.00  0.00    -0.341 OA
ATOM     12  C   UNL     1      30.678  31.754  16.802  1.00  0.00     0.202 C 
ATOM     13  C   UNL     1      29.303  31.141  17.117  1.00  0.00     0.179 C 
ATOM     14  C   UNL     1      29.186  31.148  18.599  1.00  0.00     0.177 C 
BRANCH  10  15
ATOM     15  O   UNL     1      31.734  33.942  17.115  1.00  0.00    -0.341 OA
BRANCH  15  16
ATOM     16  C   UNL     1      31.592  35.199  16.694  1.00  0.00     0.184 C 
ATOM     17  C   UNL     1      32.566  35.527  15.616  1.00  0.00     0.178 C 
ATOM     18  O   UNL     1      32.112  36.662  14.935  1.00  0.00    -0.341 OA
ATOM     19  C   UNL     1      32.176  37.759  15.762  1.00  0.00     0.281 C 
ATOM     20  C   UNL     1      31.873  36.255  17.775  1.00  0.00     0.180 C 
ATOM     21  C   UNL     1      31.525  37.582  17.107  1.00  0.00     0.202 C 
BRANCH  17  22
ATOM     22  C   UNL     1      32.900  34.405  14.695  1.00  0.00     0.191 C 
BRANCH  22  23
ATOM     23  O   UNL     1      32.776  34.849  13.385  1.00  0.00    -0.394 OA
ATOM     24  H   UNL     1      31.875  34.669  13.015  1.00  0.00     0.210 HD
ENDBRANCH  22  23
ENDBRANCH  17  22
BRANCH  19  25
ATOM     25  O   UNL     1      31.461  38.780  15.121  1.00  0.00    -0.350 OA
BRANCH  25  26
ATOM     26  C   UNL     1      30.309  38.360  14.508  1.00  0.00     0.169 C 
BRANCH  26  27
ATOM     27  C   UNL     1      30.025  39.066  13.198  1.00  0.00     0.119 C 
BRANCH  27  28
ATOM     28  N   UNL     1      31.206  39.097  12.357  1.00  0.00    -0.092 NA
ATOM     29  N   UNL     1      31.633  38.074  11.826  1.00  0.00     0.001 N 
ATOM     30  N   UNL     1      32.402  37.130  11.631  1.00  0.00    -0.003 NA
ENDBRANCH  27  28
ENDBRANCH  26  27
ENDBRANCH  25  26
ENDBRANCH  19  25
BRANCH  20  31
ATOM     31  O   UNL     1      31.055  36.140  18.867  1.00  0.00    -0.387 OA
ATOM     32  H   UNL     1      30.790  35.200  18.972  1.00  0.00     0.211 HD
ENDBRANCH  20  31
BRANCH  21  33
ATOM     33  O   UNL     1      31.868  38.615  17.944  1.00  0.00    -0.385 OA
ATOM     34  H   UNL     1      32.291  39.357  17.482  1.00  0.00     0.211 HD
ENDBRANCH  21  33
ENDBRANCH  15  16
ENDBRANCH  10  15
BRANCH  12  35
ATOM     35  O   UNL     1      30.810  31.547  15.430  1.00  0.00    -0.385 OA
ATOM     36  H   UNL     1      31.632  31.984  15.095  1.00  0.00     0.211 HD
ENDBRANCH  12  35
BRANCH  13  37
ATOM     37  O   UNL     1      29.144  29.892  16.573  1.00  0.00    -0.387 OA
ATOM     38  H   UNL     1      29.869  29.315  16.925  1.00  0.00     0.211 HD
ENDBRANCH  13  37
BRANCH  14  39
ATOM     39  O   UNL     1      29.772  29.986  19.092  1.00  0.00    -0.387 OA
ATOM     40  H   UNL     1      30.253  29.472  18.403  1.00  0.00     0.211 HD
ENDBRANCH  14  39
ENDBRANCH   8   9
ENDBRANCH   7   8
ENDBRANCH   1   7
BRANCH   1  41
ATOM     41  C   UNL     1      30.897  30.836  23.640  1.00  0.00     0.364 C 
ATOM     42  O   UNL     1      30.948  31.828  24.475  1.00  0.00    -0.246 OA
BRANCH  41  43
ATOM     43  O   UNL     1      30.291  29.733  24.180  1.00  0.00    -0.477 OA
ATOM     44  H   UNL     1      30.199  29.558  25.181  1.00  0.00     0.296 HD
ENDBRANCH  41  43
ENDBRANCH   1  41
BRANCH   3  45
ATOM     45  O   UNL     1      35.162  30.654  22.743  1.00  0.00    -0.391 OA
ATOM     46  H   UNL     1      35.529  29.958  22.158  1.00  0.00     0.211 HD
ENDBRANCH   3  45
BRANCH   5  47
ATOM     47  C   UNL     1      32.057  27.635  21.091  1.00  0.00     0.176 C 
BRANCH  47  48
ATOM     48  O   UNL     1      32.261  28.159  19.821  1.00  0.00    -0.388 OA
ATOM     49  H   UNL     1      32.597  29.079  19.834  1.00  0.00     0.211 HD
ENDBRANCH  47  48
BRANCH  47  50
ATOM     50  C   UNL     1      30.792  26.914  21.188  1.00  0.00     0.165 C 
BRANCH  50  51
ATOM     51  O   UNL     1      29.922  27.498  20.187  1.00  0.00    -0.388 OA
ATOM     52  H   UNL     1      30.013  26.986  19.348  1.00  0.00     0.211 HD
ENDBRANCH  50  51
BRANCH  50  53
ATOM     53  C   UNL     1      30.035  26.879  22.445  1.00  0.00     0.154 C 
BRANCH  53  54
ATOM     54  N   UNL     1      28.635  26.835  22.501  1.00  0.00    -0.319 N 
ATOM     55  C   UNL     1      27.739  27.932  22.497  1.00  0.00     0.407 C 
ATOM     56  H   UNL     1      28.177  25.861  22.554  1.00  0.00     0.167 HD
ATOM     57  O   UNL     1      28.147  29.105  22.400  1.00  0.00    -0.225 OA
BRANCH  55  58
ATOM     58  O   UNL     1      26.355  27.668  22.608  1.00  0.00    -0.443 OA
BRANCH  58  59
ATOM     59  C   UNL     1      25.698  27.038  21.539  1.00  0.00     0.294 C 
BRANCH  59  60
ATOM     60  C   UNL     1      26.123  27.685  20.274  1.00  0.00     0.120 A 
ATOM     61  C   UNL     1      25.483  28.770  19.650  1.00  0.00     0.138 A 
ATOM     62  N   UNL     1      27.160  27.421  19.466  1.00  0.00    -0.132 NA
ATOM     63  N   UNL     1      26.144  29.103  18.528  1.00  0.00    -0.249 N 
ATOM     64  N   UNL     1      27.150  28.274  18.442  1.00  0.00    -0.067 NA
BRANCH  63  65
ATOM     65  C   UNL     1      25.799  30.166  17.613  1.00  0.00     0.111 C 
ATOM     66  C   UNL     1      25.692  29.568  16.240  1.00  0.00     0.043 C 
ATOM     67  C   UNL     1      24.497  30.827  17.971  1.00  0.00     0.043 C 
ATOM     68  C   UNL     1      24.233  29.410  15.878  1.00  0.00     0.086 C 
ATOM     69  C   UNL     1      23.883  31.585  16.825  1.00  0.00     0.086 C 
ATOM     70  N   UNL     1      23.684  30.748  15.660  1.00  0.00    -0.306 NA
ATOM     71  C   UNL     1      24.387  31.332  14.530  1.00  0.00     0.105 C 
ENDBRANCH  63  65
ENDBRANCH  59  60
ENDBRANCH  58  59
ENDBRANCH  55  58
ENDBRANCH  53  54
ENDBRANCH  50  53
ENDBRANCH  47  50
ENDBRANCH   5  47
BRANCH   4  72
ATOM     72  N   UNL     1      33.777  28.003  23.705  1.00  0.00    -0.348 N 
ATOM     73  C   UNL     1      35.091  27.499  23.841  1.00  0.00     0.217 C 
ATOM     74  H   UNL     1      33.042  27.670  24.375  1.00  0.00     0.163 HD
ATOM     75  C   UNL     1      35.440  26.510  24.911  1.00  0.00     0.114 C 
ATOM     76  O   UNL     1      36.005  27.886  23.044  1.00  0.00    -0.275 OA
ENDBRANCH   4  72
TORSDOF 30
BEGIN_RES LYS A 131
REMARK  4 active torsions:
REMARK  status: ('A' for Active; 'I' for Inactive)
REMARK    1  A    between atoms: CA   and  CB  
REMARK    2  A    between atoms: CB   and  CG  
REMARK    3  A    between atoms: CG   and  CD  
REMARK    4  A    between atoms: CD   and  CE  
ROOT
ATOM      1  CA  LYS A 131      29.867  25.555  16.977  1.00 20.52     0.186 C 
ENDROOT
BRANCH   1   2
ATOM      2  CB  LYS A 131      28.345  25.722  17.026  1.00 20.94     0.034 C 
BRANCH   2   3
ATOM      3  CG  LYS A 131      27.599  24.462  16.614  1.00 22.96     0.005 C 
BRANCH   3   4
ATOM      4  CD  LYS A 131      27.129  23.669  17.801  1.00 24.33     0.041 C 
BRANCH   4   5
ATOM      5  CE  LYS A 131      25.969  24.397  18.474  1.00 26.91     0.338 C 
ATOM      6  NZ  LYS A 131      25.469  23.619  19.632  1.00 27.40     0.618 N 
ENDBRANCH   4   5
ENDBRANCH   3   4
ENDBRANCH   2   3
ENDBRANCH   1   2
END_RES LYS A 131
BEGIN_RES LYS A 135
REMARK  4 active torsions:
REMARK  status: ('A' for Active; 'I' for Inactive)
REMARK    5  A    between atoms: CA   and  CB  
REMARK    6  A    between atoms: CB   and  CG  
REMARK    7  A    between atoms: CG   and  CD  
REMARK    8  A    between atoms: CD   and  CE  
ROOT
ATOM      7  CA  LYS A 135      33.193  34.663   9.290  1.00 25.02     0.186 C 
ENDROOT
BRANCH   7   8
ATOM      8  CB  LYS A 135      32.060  35.360  10.034  1.00 26.63     0.034 C 
BRANCH   8   9
ATOM      9  CG  LYS A 135      30.758  35.369   9.276  1.00 29.45     0.005 C 
BRANCH   9  10
ATOM     10  CD  LYS A 135      29.720  34.511   9.982  1.00 32.00     0.041 C 
BRANCH  10  11
ATOM     11  CE  LYS A 135      29.617  34.896  11.446  1.00 34.25     0.338 C 
ATOM     12  NZ  LYS A 135      28.721  36.071  11.630  1.00 35.99     0.618 N 
ENDBRANCH  10  11
ENDBRANCH   9  10
ENDBRANCH   8   9
ENDBRANCH   7   8
END_RES LYS A 135
