REMARK VINA RESULT:    -4.904      3.918      9.369
REMARK INTER + INTRA:         -24.432
REMARK INTER:                 -12.447
REMARK INTRA:                 -11.985
REMARK UNBOUND:               -11.071
REMARK SMILES CC(=O)N[C@@H]1[C@@H](O)C[C@](OC[C@H]2O[C@@H](O[C@H]3[C@H](O)[C@@H](O)[C@H](OCCN=[N+]=[N-])O[C@@H]3CO)[C@H](O)[C@@H](O)[C@H]2O)(C(=O)O)O[C@H]1C(O)[C@H](O)CNC(=O)OCc1cn(CC(O)CCc2ccccc2)nn1
REMARK SMILES IDX 43 1 42 2 9 3 8 4 41 5 6 6 5 7 10 8 11 9 12 10 14 11 13 12
REMARK SMILES IDX 32 13 34 14 36 15 15 16 16 17 29 18 28 19 21 20 17 21 19 22
REMARK SMILES IDX 30 23 31 24 22 26 23 27 24 28 25 29 26 30 27 31 18 32 20 34
REMARK SMILES IDX 33 36 35 38 37 40 38 42 39 43 40 44 7 46 4 48 2 49 1 51 3 52
REMARK SMILES IDX 44 53 45 55 46 56 47 58 48 59 49 60 50 62 51 63 52 64 53 65
REMARK SMILES IDX 54 66 68 67 55 68 67 69 56 70 57 71 58 72 59 74 60 75 61 76
REMARK SMILES IDX 62 77 66 78 63 79 65 80 64 81
REMARK H PARENT 31 25 18 33 20 35 33 37 35 39 37 41 40 45 7 47 4 50 44 54
REMARK H PARENT 46 57 48 61 58 73
REMARK Flexibility Score: inf
ROOT
ATOM      1  C   UNL     1      25.789  33.759  14.108  1.00  0.00     0.176 C 
ENDROOT
BRANCH   1   2
ATOM      2  C   UNL     1      25.103  32.389  13.947  1.00  0.00     0.178 C 
ATOM      3  C   UNL     1      22.878  31.981  13.235  1.00  0.00     0.272 C 
ATOM      4  C   UNL     1      22.470  32.192  14.655  1.00  0.00     0.113 C 
ATOM      5  O   UNL     1      24.129  32.501  13.042  1.00  0.00    -0.332 OA
ATOM      6  C   UNL     1      23.415  31.528  15.592  1.00  0.00     0.145 C 
ATOM      7  C   UNL     1      24.853  31.830  15.296  1.00  0.00     0.142 C 
BRANCH   3   8
ATOM      8  O   UNL     1      21.935  32.551  12.356  1.00  0.00    -0.338 OA
BRANCH   8   9
ATOM      9  C   UNL     1      21.295  33.658  12.786  1.00  0.00     0.199 C 
BRANCH   9  10
ATOM     10  C   UNL     1      21.516  34.845  11.818  1.00  0.00     0.179 C 
ATOM     11  C   UNL     1      22.770  35.657  10.111  1.00  0.00     0.282 C 
ATOM     12  O   UNL     1      22.655  34.722  11.107  1.00  0.00    -0.341 OA
ATOM     13  C   UNL     1      21.573  35.373   9.161  1.00  0.00     0.202 C 
ATOM     14  C   UNL     1      20.399  35.981   9.935  1.00  0.00     0.179 C 
ATOM     15  C   UNL     1      20.226  35.068  11.118  1.00  0.00     0.177 C 
BRANCH  11  16
ATOM     16  O   UNL     1      23.902  35.485   9.396  1.00  0.00    -0.341 OA
BRANCH  16  17
ATOM     17  C   UNL     1      24.834  36.494   9.347  1.00  0.00     0.184 C 
ATOM     18  C   UNL     1      24.524  37.642  10.248  1.00  0.00     0.178 C 
ATOM     19  O   UNL     1      24.430  38.874   9.681  1.00  0.00    -0.341 OA
ATOM     20  C   UNL     1      25.193  39.143   8.585  1.00  0.00     0.281 C 
ATOM     21  C   UNL     1      25.052  36.823   7.898  1.00  0.00     0.180 C 
ATOM     22  C   UNL     1      24.747  38.216   7.480  1.00  0.00     0.202 C 
BRANCH  18  23
ATOM     23  C   UNL     1      25.573  37.719  11.336  1.00  0.00     0.191 C 
BRANCH  23  24
ATOM     24  O   UNL     1      26.126  36.468  11.600  1.00  0.00    -0.394 OA
ATOM     25  H   UNL     1      25.638  36.118  12.405  1.00  0.00     0.210 HD
ENDBRANCH  23  24
ENDBRANCH  18  23
BRANCH  20  26
ATOM     26  O   UNL     1      26.558  39.084   8.814  1.00  0.00    -0.350 OA
BRANCH  26  27
ATOM     27  C   UNL     1      27.190  40.127   8.135  1.00  0.00     0.169 C 
BRANCH  27  28
ATOM     28  C   UNL     1      28.340  39.504   7.345  1.00  0.00     0.119 C 
BRANCH  28  29
ATOM     29  N   UNL     1      28.760  38.259   7.928  1.00  0.00    -0.092 NA
ATOM     30  N   UNL     1      29.883  38.190   8.470  1.00  0.00     0.001 N 
ATOM     31  N   UNL     1      31.090  38.052   8.743  1.00  0.00    -0.003 NA
ENDBRANCH  28  29
ENDBRANCH  27  28
ENDBRANCH  26  27
ENDBRANCH  20  26
BRANCH  21  32
ATOM     32  O   UNL     1      26.402  36.591   7.518  1.00  0.00    -0.387 OA
ATOM     33  H   UNL     1      26.749  35.748   7.889  1.00  0.00     0.211 HD
ENDBRANCH  21  32
BRANCH  22  34
ATOM     34  O   UNL     1      23.373  38.398   7.304  1.00  0.00    -0.385 OA
ATOM     35  H   UNL     1      23.066  38.094   6.425  1.00  0.00     0.211 HD
ENDBRANCH  22  34
ENDBRANCH  16  17
ENDBRANCH  11  16
BRANCH  13  36
ATOM     36  O   UNL     1      21.732  35.884   7.916  1.00  0.00    -0.385 OA
ATOM     37  H   UNL     1      21.184  36.644   7.659  1.00  0.00     0.211 HD
ENDBRANCH  13  36
BRANCH  14  38
ATOM     38  O   UNL     1      19.256  36.044   9.143  1.00  0.00    -0.387 OA
ATOM     39  H   UNL     1      18.874  35.147   9.020  1.00  0.00     0.211 HD
ENDBRANCH  14  38
BRANCH  15  40
ATOM     40  O   UNL     1      19.739  33.858  10.612  1.00  0.00    -0.387 OA
ATOM     41  H   UNL     1      18.976  34.004  10.007  1.00  0.00     0.211 HD
ENDBRANCH  15  40
ENDBRANCH   9  10
ENDBRANCH   8   9
ENDBRANCH   3   8
BRANCH   3  42
ATOM     42  C   UNL     1      22.802  30.533  12.922  1.00  0.00     0.364 C 
ATOM     43  O   UNL     1      23.840  29.945  12.504  1.00  0.00    -0.246 OA
BRANCH  42  44
ATOM     44  O   UNL     1      21.664  29.789  13.061  1.00  0.00    -0.477 OA
ATOM     45  H   UNL     1      20.762  30.237  12.994  1.00  0.00     0.296 HD
ENDBRANCH  42  44
ENDBRANCH   3  42
BRANCH   6  46
ATOM     46  O   UNL     1      23.045  31.976  16.890  1.00  0.00    -0.391 OA
ATOM     47  H   UNL     1      22.679  31.252  17.436  1.00  0.00     0.211 HD
ENDBRANCH   6  46
BRANCH   7  48
ATOM     48  N   UNL     1      25.738  30.737  15.612  1.00  0.00    -0.348 N 
ATOM     49  C   UNL     1      26.757  30.806  16.600  1.00  0.00     0.217 C 
ATOM     50  H   UNL     1      25.657  29.812  15.093  1.00  0.00     0.163 HD
ATOM     51  C   UNL     1      27.598  29.613  16.835  1.00  0.00     0.114 C 
ATOM     52  O   UNL     1      26.939  31.840  17.251  1.00  0.00    -0.275 OA
ENDBRANCH   7  48
ENDBRANCH   1   2
BRANCH   1  53
ATOM     53  O   UNL     1      27.015  33.604  14.723  1.00  0.00    -0.388 OA
ATOM     54  H   UNL     1      27.467  32.760  14.478  1.00  0.00     0.211 HD
ENDBRANCH   1  53
BRANCH   1  55
ATOM     55  C   UNL     1      24.920  34.836  14.638  1.00  0.00     0.165 C 
BRANCH  55  56
ATOM     56  O   UNL     1      24.218  35.426  13.617  1.00  0.00    -0.388 OA
ATOM     57  H   UNL     1      24.348  36.393  13.559  1.00  0.00     0.211 HD
ENDBRANCH  55  56
BRANCH  55  58
ATOM     58  C   UNL     1      25.815  35.832  15.340  1.00  0.00     0.154 C 
BRANCH  58  59
ATOM     59  N   UNL     1      26.762  36.514  14.542  1.00  0.00    -0.319 N 
ATOM     60  C   UNL     1      27.752  37.439  14.968  1.00  0.00     0.407 C 
ATOM     61  H   UNL     1      26.779  36.347  13.476  1.00  0.00     0.167 HD
ATOM     62  O   UNL     1      27.872  37.719  16.166  1.00  0.00    -0.225 OA
BRANCH  60  63
ATOM     63  O   UNL     1      28.602  38.046  14.056  1.00  0.00    -0.443 OA
BRANCH  63  64
ATOM     64  C   UNL     1      29.690  37.492  13.414  1.00  0.00     0.294 C 
BRANCH  64  65
ATOM     65  C   UNL     1      29.984  36.076  13.683  1.00  0.00     0.120 A 
ATOM     66  C   UNL     1      31.014  35.565  14.463  1.00  0.00     0.138 A 
ATOM     67  N   UNL     1      29.318  35.014  13.185  1.00  0.00    -0.132 NA
ATOM     68  N   UNL     1      30.920  34.241  14.395  1.00  0.00    -0.250 N 
ATOM     69  N   UNL     1      29.904  33.924  13.632  1.00  0.00    -0.067 NA
BRANCH  68  70
ATOM     70  C   UNL     1      31.865  33.323  15.084  1.00  0.00     0.177 C 
BRANCH  70  71
ATOM     71  C   UNL     1      31.026  32.384  15.884  1.00  0.00     0.136 C 
BRANCH  71  72
ATOM     72  O   UNL     1      30.251  31.549  15.062  1.00  0.00    -0.391 OA
ATOM     73  H   UNL     1      29.420  31.266  15.500  1.00  0.00     0.211 HD
ENDBRANCH  71  72
BRANCH  71  74
ATOM     74  C   UNL     1      30.191  33.015  16.927  1.00  0.00     0.038 C 
BRANCH  74  75
ATOM     75  C   UNL     1      30.706  33.334  18.253  1.00  0.00     0.038 C 
BRANCH  75  76
ATOM     76  C   UNL     1      30.825  32.301  19.260  1.00  0.00    -0.048 A 
ATOM     77  C   UNL     1      30.259  31.044  19.064  1.00  0.00     0.004 A 
ATOM     78  C   UNL     1      31.438  32.545  20.489  1.00  0.00     0.004 A 
ATOM     79  C   UNL     1      30.308  30.097  20.045  1.00  0.00     0.000 A 
ATOM     80  C   UNL     1      31.470  31.569  21.456  1.00  0.00     0.000 A 
ATOM     81  C   UNL     1      30.905  30.316  21.262  1.00  0.00     0.000 A 
ENDBRANCH  75  76
ENDBRANCH  74  75
ENDBRANCH  71  74
ENDBRANCH  70  71
ENDBRANCH  68  70
ENDBRANCH  64  65
ENDBRANCH  63  64
ENDBRANCH  60  63
ENDBRANCH  58  59
ENDBRANCH  55  58
ENDBRANCH   1  55
TORSDOF 35
BEGIN_RES LYS A 131
REMARK  4 active torsions:
REMARK  status: ('A' for Active; 'I' for Inactive)
REMARK    1  A    between atoms: CA   and  CB  
REMARK    2  A    between atoms: CB   and  CG  
REMARK    3  A    between atoms: CG   and  CD  
REMARK    4  A    between atoms: CD   and  CE  
ROOT
ATOM      1  CA  LYS A 131      29.867  25.555  16.977  1.00 20.52     0.186 C 
ENDROOT
BRANCH   1   2
ATOM      2  CB  LYS A 131      28.345  25.722  17.026  1.00 20.94     0.034 C 
BRANCH   2   3
ATOM      3  CG  LYS A 131      27.599  24.481  16.561  1.00 22.96     0.005 C 
BRANCH   3   4
ATOM      4  CD  LYS A 131      26.966  23.739  17.706  1.00 24.33     0.041 C 
BRANCH   4   5
ATOM      5  CE  LYS A 131      25.462  23.633  17.474  1.00 26.91     0.338 C 
ATOM      6  NZ  LYS A 131      24.999  22.244  17.702  1.00 27.40     0.618 N 
ENDBRANCH   4   5
ENDBRANCH   3   4
ENDBRANCH   2   3
ENDBRANCH   1   2
END_RES LYS A 131
BEGIN_RES LYS A 135
REMARK  4 active torsions:
REMARK  status: ('A' for Active; 'I' for Inactive)
REMARK    5  A    between atoms: CA   and  CB  
REMARK    6  A    between atoms: CB   and  CG  
REMARK    7  A    between atoms: CG   and  CD  
REMARK    8  A    between atoms: CD   and  CE  
ROOT
ATOM      7  CA  LYS A 135      33.193  34.663   9.290  1.00 25.02     0.186 C 
ENDROOT
BRANCH   7   8
ATOM      8  CB  LYS A 135      32.060  35.360  10.034  1.00 26.63     0.034 C 
BRANCH   8   9
ATOM      9  CG  LYS A 135      30.742  34.636   9.940  1.00 29.45     0.005 C 
BRANCH   9  10
ATOM     10  CD  LYS A 135      30.343  34.434   8.486  1.00 32.00     0.041 C 
BRANCH  10  11
ATOM     11  CE  LYS A 135      28.834  34.475   8.337  1.00 34.25     0.338 C 
ATOM     12  NZ  LYS A 135      28.162  33.856   9.513  1.00 35.99     0.618 N 
ENDBRANCH  10  11
ENDBRANCH   9  10
ENDBRANCH   8   9
ENDBRANCH   7   8
END_RES LYS A 135
