REMARK VINA RESULT:    -4.160      2.840      7.527
REMARK INTER + INTRA:         -22.727
REMARK INTER:                 -10.275
REMARK INTRA:                 -12.452
REMARK UNBOUND:               -12.122
REMARK SMILES CC(=O)N[C@@H]1[C@@H](O)C[C@](OC[C@H]2O[C@@H](O[C@H]3[C@H](O)[C@@H](O)[C@H](OCCN=[N+]=[N-])O[C@@H]3CO)[C@H](O)[C@@H](O)[C@H]2O)(C(=O)O)O[C@H]1C(O)[C@H](O)CNC(=O)OCc1cn(-c2ccc(O)c([N+](=O)[O-])c2)nn1
REMARK SMILES IDX 9 1 8 2 6 3 5 4 42 5 41 6 10 7 11 8 12 9 14 10 13 11 32 12
REMARK SMILES IDX 34 13 36 14 15 15 16 16 29 17 28 18 21 19 17 20 19 21 30 22
REMARK SMILES IDX 31 23 22 25 23 26 24 27 25 28 26 29 27 30 18 31 20 33 33 35
REMARK SMILES IDX 35 37 37 39 38 41 39 42 40 43 7 45 43 47 44 48 45 50 46 51
REMARK SMILES IDX 47 53 48 54 49 55 50 57 51 58 52 59 53 60 54 61 67 62 55 63
REMARK SMILES IDX 66 64 56 65 57 66 65 67 58 68 61 69 59 70 62 71 63 72 64 73
REMARK SMILES IDX 60 74 4 76 2 77 1 79 3 80
REMARK H PARENT 31 24 18 32 20 34 33 36 35 38 37 40 40 44 7 46 44 49 46 52
REMARK H PARENT 48 56 60 75 4 78
REMARK Flexibility Score: inf
ROOT
ATOM      1  C   UNL     1      29.319  33.506  16.550  1.00  0.00     0.272 C 
ATOM      2  C   UNL     1      30.058  32.556  17.512  1.00  0.00     0.113 C 
ATOM      3  C   UNL     1      30.042  31.149  16.923  1.00  0.00     0.145 C 
ATOM      4  C   UNL     1      28.552  30.725  17.000  1.00  0.00     0.142 C 
ATOM      5  C   UNL     1      27.680  31.884  16.608  1.00  0.00     0.178 C 
ATOM      6  O   UNL     1      28.394  32.800  15.814  1.00  0.00    -0.332 OA
ENDROOT
BRANCH   1   7
ATOM      7  O   UNL     1      30.306  33.985  15.709  1.00  0.00    -0.338 OA
BRANCH   7   8
ATOM      8  C   UNL     1      30.024  34.002  14.376  1.00  0.00     0.199 C 
BRANCH   8   9
ATOM      9  C   UNL     1      30.559  35.358  13.857  1.00  0.00     0.179 C 
ATOM     10  C   UNL     1      30.637  37.495  14.613  1.00  0.00     0.282 C 
ATOM     11  O   UNL     1      29.915  36.300  14.601  1.00  0.00    -0.341 OA
ATOM     12  C   UNL     1      31.826  37.275  15.482  1.00  0.00     0.202 C 
ATOM     13  C   UNL     1      32.712  36.233  14.850  1.00  0.00     0.179 C 
ATOM     14  C   UNL     1      32.035  35.328  13.890  1.00  0.00     0.177 C 
BRANCH  10  15
ATOM     15  O   UNL     1      29.807  38.541  15.037  1.00  0.00    -0.341 OA
BRANCH  15  16
ATOM     16  C   UNL     1      29.098  39.007  13.947  1.00  0.00     0.184 C 
ATOM     17  C   UNL     1      29.292  40.448  13.624  1.00  0.00     0.178 C 
ATOM     18  O   UNL     1      28.762  40.665  12.358  1.00  0.00    -0.341 OA
ATOM     19  C   UNL     1      27.338  40.596  12.402  1.00  0.00     0.281 C 
ATOM     20  C   UNL     1      27.578  38.863  14.227  1.00  0.00     0.180 C 
ATOM     21  C   UNL     1      26.885  39.287  12.935  1.00  0.00     0.202 C 
BRANCH  17  22
ATOM     22  C   UNL     1      30.698  40.945  13.672  1.00  0.00     0.191 C 
BRANCH  22  23
ATOM     23  O   UNL     1      31.564  40.061  13.053  1.00  0.00    -0.394 OA
ATOM     24  H   UNL     1      31.388  39.146  13.441  1.00  0.00     0.210 HD
ENDBRANCH  22  23
ENDBRANCH  17  22
BRANCH  19  25
ATOM     25  O   UNL     1      26.971  40.733  11.069  1.00  0.00    -0.350 OA
BRANCH  25  26
ATOM     26  C   UNL     1      27.924  41.360  10.290  1.00  0.00     0.169 C 
BRANCH  26  27
ATOM     27  C   UNL     1      27.474  42.715   9.839  1.00  0.00     0.119 C 
BRANCH  27  28
ATOM     28  N   UNL     1      28.424  43.703  10.344  1.00  0.00    -0.092 NA
ATOM     29  N   UNL     1      28.403  44.007  11.558  1.00  0.00     0.001 N 
ATOM     30  N   UNL     1      28.812  44.102  12.729  1.00  0.00    -0.003 NA
ENDBRANCH  27  28
ENDBRANCH  26  27
ENDBRANCH  25  26
ENDBRANCH  19  25
BRANCH  20  31
ATOM     31  O   UNL     1      27.244  37.539  14.461  1.00  0.00    -0.387 OA
ATOM     32  H   UNL     1      27.152  37.339  15.433  1.00  0.00     0.211 HD
ENDBRANCH  20  31
BRANCH  21  33
ATOM     33  O   UNL     1      25.530  39.340  13.255  1.00  0.00    -0.385 OA
ATOM     34  H   UNL     1      25.117  40.168  12.946  1.00  0.00     0.211 HD
ENDBRANCH  21  33
ENDBRANCH  15  16
ENDBRANCH  10  15
BRANCH  12  35
ATOM     35  O   UNL     1      32.557  38.434  15.724  1.00  0.00    -0.385 OA
ATOM     36  H   UNL     1      32.934  38.435  16.650  1.00  0.00     0.211 HD
ENDBRANCH  12  35
BRANCH  13  37
ATOM     37  O   UNL     1      33.374  35.577  15.894  1.00  0.00    -0.387 OA
ATOM     38  H   UNL     1      34.061  34.990  15.475  1.00  0.00     0.211 HD
ENDBRANCH  13  37
BRANCH  14  39
ATOM     39  O   UNL     1      32.540  34.024  14.086  1.00  0.00    -0.387 OA
ATOM     40  H   UNL     1      32.600  33.783  15.034  1.00  0.00     0.211 HD
ENDBRANCH  14  39
ENDBRANCH   8   9
ENDBRANCH   7   8
ENDBRANCH   1   7
BRANCH   1  41
ATOM     41  C   UNL     1      28.807  34.590  17.381  1.00  0.00     0.364 C 
ATOM     42  O   UNL     1      28.775  34.608  18.640  1.00  0.00    -0.246 OA
BRANCH  41  43
ATOM     43  O   UNL     1      28.297  35.735  16.767  1.00  0.00    -0.477 OA
ATOM     44  H   UNL     1      27.914  36.515  17.290  1.00  0.00     0.296 HD
ENDBRANCH  41  43
ENDBRANCH   1  41
BRANCH   3  45
ATOM     45  O   UNL     1      30.476  31.139  15.624  1.00  0.00    -0.391 OA
ATOM     46  H   UNL     1      31.460  31.226  15.608  1.00  0.00     0.211 HD
ENDBRANCH   3  45
BRANCH   5  47
ATOM     47  C   UNL     1      26.540  31.386  15.754  1.00  0.00     0.176 C 
BRANCH  47  48
ATOM     48  O   UNL     1      26.738  30.035  15.517  1.00  0.00    -0.388 OA
ATOM     49  H   UNL     1      27.088  29.555  16.308  1.00  0.00     0.211 HD
ENDBRANCH  47  48
BRANCH  47  50
ATOM     50  C   UNL     1      25.176  31.583  16.366  1.00  0.00     0.165 C 
BRANCH  50  51
ATOM     51  O   UNL     1      24.271  31.252  15.322  1.00  0.00    -0.388 OA
ATOM     52  H   UNL     1      24.705  30.658  14.648  1.00  0.00     0.211 HD
ENDBRANCH  50  51
BRANCH  50  53
ATOM     53  C   UNL     1      24.914  33.025  16.697  1.00  0.00     0.154 C 
BRANCH  53  54
ATOM     54  N   UNL     1      24.682  33.778  15.493  1.00  0.00    -0.319 N 
ATOM     55  C   UNL     1      25.018  35.134  15.292  1.00  0.00     0.407 C 
ATOM     56  H   UNL     1      24.218  33.294  14.664  1.00  0.00     0.167 HD
ATOM     57  O   UNL     1      25.553  35.739  16.230  1.00  0.00    -0.225 OA
BRANCH  55  58
ATOM     58  O   UNL     1      24.794  35.831  14.128  1.00  0.00    -0.443 OA
BRANCH  58  59
ATOM     59  C   UNL     1      24.725  35.170  12.890  1.00  0.00     0.294 C 
BRANCH  59  60
ATOM     60  C   UNL     1      25.178  36.122  11.832  1.00  0.00     0.121 A 
ATOM     61  C   UNL     1      26.466  36.197  11.295  1.00  0.00     0.144 A 
ATOM     62  N   UNL     1      24.511  37.084  11.181  1.00  0.00    -0.131 NA
ATOM     63  N   UNL     1      26.497  37.165  10.386  1.00  0.00    -0.220 N 
ATOM     64  N   UNL     1      25.280  37.685  10.344  1.00  0.00    -0.062 NA
BRANCH  63  65
ATOM     65  C   UNL     1      27.633  37.575   9.604  1.00  0.00     0.073 A 
ATOM     66  C   UNL     1      27.526  37.765   8.260  1.00  0.00     0.033 A 
ATOM     67  C   UNL     1      28.857  37.790  10.176  1.00  0.00     0.118 A 
ATOM     68  C   UNL     1      28.581  38.159   7.470  1.00  0.00     0.056 A 
ATOM     69  C   UNL     1      29.956  38.194   9.392  1.00  0.00     0.312 A 
ATOM     70  C   UNL     1      29.853  38.388   8.041  1.00  0.00     0.194 A 
BRANCH  69  71
ATOM     71  N   UNL     1      31.175  38.397  10.062  1.00  0.00     0.066 N 
ATOM     72  O   UNL     1      31.320  37.833  11.191  1.00  0.00    -0.258 OA
ATOM     73  O   UNL     1      32.165  39.165   9.539  1.00  0.00    -0.258 OA
ENDBRANCH  69  71
BRANCH  70  74
ATOM     74  O   UNL     1      30.879  38.787   7.201  1.00  0.00    -0.502 OA
ATOM     75  H   UNL     1      31.610  38.208   6.936  1.00  0.00     0.293 HD
ENDBRANCH  70  74
ENDBRANCH  63  65
ENDBRANCH  59  60
ENDBRANCH  58  59
ENDBRANCH  55  58
ENDBRANCH  53  54
ENDBRANCH  50  53
ENDBRANCH  47  50
ENDBRANCH   5  47
BRANCH   4  76
ATOM     76  N   UNL     1      28.370  30.333  18.384  1.00  0.00    -0.348 N 
ATOM     77  C   UNL     1      27.719  29.103  18.730  1.00  0.00     0.217 C 
ATOM     78  H   UNL     1      28.704  30.932  19.160  1.00  0.00     0.163 HD
ATOM     79  C   UNL     1      27.543  28.723  20.151  1.00  0.00     0.114 C 
ATOM     80  O   UNL     1      27.304  28.357  17.793  1.00  0.00    -0.275 OA
ENDBRANCH   4  76
TORSDOF 32
BEGIN_RES LYS A 131
REMARK  4 active torsions:
REMARK  status: ('A' for Active; 'I' for Inactive)
REMARK    1  A    between atoms: CA   and  CB  
REMARK    2  A    between atoms: CB   and  CG  
REMARK    3  A    between atoms: CG   and  CD  
REMARK    4  A    between atoms: CD   and  CE  
ROOT
ATOM      1  CA  LYS A 131      29.867  25.555  16.977  1.00 20.52     0.186 C 
ENDROOT
BRANCH   1   2
ATOM      2  CB  LYS A 131      28.345  25.722  17.026  1.00 20.94     0.034 C 
BRANCH   2   3
ATOM      3  CG  LYS A 131      27.603  24.395  16.982  1.00 22.96     0.005 C 
BRANCH   3   4
ATOM      4  CD  LYS A 131      26.138  24.555  17.281  1.00 24.33     0.041 C 
BRANCH   4   5
ATOM      5  CE  LYS A 131      25.878  24.216  18.745  1.00 26.91     0.338 C 
ATOM      6  NZ  LYS A 131      25.816  25.452  19.561  1.00 27.40     0.618 N 
ENDBRANCH   4   5
ENDBRANCH   3   4
ENDBRANCH   2   3
ENDBRANCH   1   2
END_RES LYS A 131
BEGIN_RES LYS A 135
REMARK  4 active torsions:
REMARK  status: ('A' for Active; 'I' for Inactive)
REMARK    5  A    between atoms: CA   and  CB  
REMARK    6  A    between atoms: CB   and  CG  
REMARK    7  A    between atoms: CG   and  CD  
REMARK    8  A    between atoms: CD   and  CE  
ROOT
ATOM      7  CA  LYS A 135      33.193  34.663   9.290  1.00 25.02     0.186 C 
ENDROOT
BRANCH   7   8
ATOM      8  CB  LYS A 135      32.060  35.360  10.034  1.00 26.63     0.034 C 
BRANCH   8   9
ATOM      9  CG  LYS A 135      30.742  34.637   9.938  1.00 29.45     0.005 C 
BRANCH   9  10
ATOM     10  CD  LYS A 135      30.324  34.473   8.485  1.00 32.00     0.041 C 
BRANCH  10  11
ATOM     11  CE  LYS A 135      28.812  34.431   8.367  1.00 34.25     0.338 C 
ATOM     12  NZ  LYS A 135      28.203  33.719   9.525  1.00 35.99     0.618 N 
ENDBRANCH  10  11
ENDBRANCH   9  10
ENDBRANCH   8   9
ENDBRANCH   7   8
END_RES LYS A 135
