REMARK VINA RESULT:    -4.411      5.137     12.146
REMARK INTER + INTRA:         -22.429
REMARK INTER:                 -10.688
REMARK INTRA:                 -11.741
REMARK UNBOUND:               -11.571
REMARK SMILES CC(=O)N[C@@H]1[C@@H](O)C[C@](OC[C@H]2O[C@@H](O[C@H]3[C@H](O)[C@@H](O)[C@H](OCCN=[N+]=[N-])O[C@@H]3CO)[C@H](O)[C@@H](O)[C@H]2O)(C(=O)O)O[C@H]1C(O)[C@H](O)CNC(=O)OCc1cn(-c2ccc3[nH]ncc3c2)nn1
REMARK SMILES IDX 9 1 8 2 6 3 5 4 42 5 41 6 10 7 11 8 12 9 14 10 13 11 32 12
REMARK SMILES IDX 34 13 36 14 15 15 16 16 29 17 28 18 21 19 17 20 19 21 30 22
REMARK SMILES IDX 31 23 22 25 23 26 24 27 25 28 26 29 27 30 18 31 20 33 33 35
REMARK SMILES IDX 35 37 37 39 38 41 39 42 40 43 7 45 43 47 44 48 45 50 46 51
REMARK SMILES IDX 47 53 48 54 49 55 50 57 51 58 52 59 53 60 54 61 66 62 55 63
REMARK SMILES IDX 65 64 56 65 57 66 64 67 58 68 63 69 59 70 62 71 60 72 61 73
REMARK SMILES IDX 4 75 2 76 1 78 3 79
REMARK H PARENT 31 24 18 32 20 34 33 36 35 38 37 40 40 44 7 46 44 49 46 52
REMARK H PARENT 48 56 60 74 4 77
REMARK Flexibility Score: inf
ROOT
ATOM      1  C   UNL     1      28.126  38.797   7.180  1.00  0.00     0.272 C 
ATOM      2  C   UNL     1      28.268  40.268   7.030  1.00  0.00     0.113 C 
ATOM      3  C   UNL     1      27.131  40.962   6.326  1.00  0.00     0.145 C 
ATOM      4  C   UNL     1      25.880  40.625   7.180  1.00  0.00     0.142 C 
ATOM      5  C   UNL     1      25.842  39.147   7.237  1.00  0.00     0.178 C 
ATOM      6  O   UNL     1      26.898  38.485   7.760  1.00  0.00    -0.332 OA
ENDROOT
BRANCH   1   7
ATOM      7  O   UNL     1      29.147  38.341   8.041  1.00  0.00    -0.338 OA
BRANCH   7   8
ATOM      8  C   UNL     1      29.065  38.774   9.324  1.00  0.00     0.199 C 
BRANCH   8   9
ATOM      9  C   UNL     1      29.400  37.653  10.333  1.00  0.00     0.179 C 
ATOM     10  C   UNL     1      30.108  37.931  12.521  1.00  0.00     0.282 C 
ATOM     11  O   UNL     1      30.425  38.017  11.154  1.00  0.00    -0.341 OA
ATOM     12  C   UNL     1      29.001  38.906  12.758  1.00  0.00     0.202 C 
ATOM     13  C   UNL     1      27.751  38.311  12.094  1.00  0.00     0.179 C 
ATOM     14  C   UNL     1      28.139  37.267  11.082  1.00  0.00     0.177 C 
BRANCH  10  15
ATOM     15  O   UNL     1      31.252  38.135  13.272  1.00  0.00    -0.341 OA
BRANCH  15  16
ATOM     16  C   UNL     1      31.552  36.983  13.986  1.00  0.00     0.184 C 
ATOM     17  C   UNL     1      32.168  37.222  15.332  1.00  0.00     0.178 C 
ATOM     18  O   UNL     1      32.348  36.070  16.000  1.00  0.00    -0.341 OA
ATOM     19  C   UNL     1      32.361  34.871  15.362  1.00  0.00     0.281 C 
ATOM     20  C   UNL     1      32.642  36.190  13.238  1.00  0.00     0.180 C 
ATOM     21  C   UNL     1      32.779  34.879  13.931  1.00  0.00     0.202 C 
BRANCH  17  22
ATOM     22  C   UNL     1      31.401  38.195  16.203  1.00  0.00     0.191 C 
BRANCH  22  23
ATOM     23  O   UNL     1      30.033  38.014  16.108  1.00  0.00    -0.394 OA
ATOM     24  H   UNL     1      29.767  37.531  16.948  1.00  0.00     0.210 HD
ENDBRANCH  22  23
ENDBRANCH  17  22
BRANCH  19  25
ATOM     25  O   UNL     1      31.115  34.312  15.503  1.00  0.00    -0.350 OA
BRANCH  25  26
ATOM     26  C   UNL     1      30.835  33.222  14.754  1.00  0.00     0.169 C 
BRANCH  26  27
ATOM     27  C   UNL     1      30.408  32.023  15.539  1.00  0.00     0.119 C 
BRANCH  27  28
ATOM     28  N   UNL     1      29.003  31.745  15.528  1.00  0.00    -0.092 NA
ATOM     29  N   UNL     1      28.503  30.756  16.027  1.00  0.00     0.001 N 
ATOM     30  N   UNL     1      28.029  29.612  16.205  1.00  0.00    -0.003 NA
ENDBRANCH  27  28
ENDBRANCH  26  27
ENDBRANCH  25  26
ENDBRANCH  19  25
BRANCH  20  31
ATOM     31  O   UNL     1      32.353  36.059  11.906  1.00  0.00    -0.387 OA
ATOM     32  H   UNL     1      33.155  36.037  11.322  1.00  0.00     0.211 HD
ENDBRANCH  20  31
BRANCH  21  33
ATOM     33  O   UNL     1      34.117  34.469  13.787  1.00  0.00    -0.385 OA
ATOM     34  H   UNL     1      34.423  34.552  12.848  1.00  0.00     0.211 HD
ENDBRANCH  21  33
ENDBRANCH  15  16
ENDBRANCH  10  15
BRANCH  12  35
ATOM     35  O   UNL     1      28.755  39.233  14.068  1.00  0.00    -0.385 OA
ATOM     36  H   UNL     1      27.778  39.169  14.294  1.00  0.00     0.211 HD
ENDBRANCH  12  35
BRANCH  13  37
ATOM     37  O   UNL     1      26.907  39.290  11.613  1.00  0.00    -0.387 OA
ATOM     38  H   UNL     1      26.898  40.028  12.293  1.00  0.00     0.211 HD
ENDBRANCH  13  37
BRANCH  14  39
ATOM     39  O   UNL     1      27.090  37.228  10.128  1.00  0.00    -0.387 OA
ATOM     40  H   UNL     1      26.856  36.324   9.867  1.00  0.00     0.211 HD
ENDBRANCH  14  39
ENDBRANCH   8   9
ENDBRANCH   7   8
ENDBRANCH   1   7
BRANCH   1  41
ATOM     41  C   UNL     1      28.162  38.040   5.900  1.00  0.00     0.364 C 
ATOM     42  O   UNL     1      29.252  38.087   5.238  1.00  0.00    -0.246 OA
BRANCH  41  43
ATOM     43  O   UNL     1      27.162  37.300   5.349  1.00  0.00    -0.477 OA
ATOM     44  H   UNL     1      26.280  37.100   5.822  1.00  0.00     0.296 HD
ENDBRANCH  41  43
ENDBRANCH   1  41
BRANCH   3  45
ATOM     45  O   UNL     1      27.368  42.323   6.351  1.00  0.00    -0.391 OA
ATOM     46  H   UNL     1      28.132  42.580   5.751  1.00  0.00     0.211 HD
ENDBRANCH   3  45
BRANCH   5  47
ATOM     47  C   UNL     1      24.510  38.643   7.707  1.00  0.00     0.176 C 
BRANCH  47  48
ATOM     48  O   UNL     1      24.748  37.242   7.958  1.00  0.00    -0.388 OA
ATOM     49  H   UNL     1      24.952  37.096   8.903  1.00  0.00     0.211 HD
ENDBRANCH  47  48
BRANCH  47  50
ATOM     50  C   UNL     1      24.037  39.185   9.033  1.00  0.00     0.165 C 
BRANCH  50  51
ATOM     51  O   UNL     1      24.572  38.298  10.007  1.00  0.00    -0.388 OA
ATOM     52  H   UNL     1      25.283  38.709  10.530  1.00  0.00     0.211 HD
ENDBRANCH  50  51
BRANCH  50  53
ATOM     53  C   UNL     1      22.568  39.261   9.215  1.00  0.00     0.154 C 
BRANCH  53  54
ATOM     54  N   UNL     1      21.891  38.096   9.662  1.00  0.00    -0.319 N 
ATOM     55  C   UNL     1      21.423  37.019   8.873  1.00  0.00     0.407 C 
ATOM     56  H   UNL     1      21.698  37.985  10.709  1.00  0.00     0.167 HD
ATOM     57  O   UNL     1      21.588  36.996   7.650  1.00  0.00    -0.225 OA
BRANCH  55  58
ATOM     58  O   UNL     1      20.761  35.952   9.475  1.00  0.00    -0.443 OA
BRANCH  58  59
ATOM     59  C   UNL     1      21.173  35.278  10.625  1.00  0.00     0.294 C 
BRANCH  59  60
ATOM     60  C   UNL     1      22.622  35.298  10.871  1.00  0.00     0.121 A 
ATOM     61  C   UNL     1      23.244  35.308  12.099  1.00  0.00     0.144 A 
ATOM     62  N   UNL     1      23.590  35.322   9.932  1.00  0.00    -0.131 NA
ATOM     63  N   UNL     1      24.553  35.337  11.841  1.00  0.00    -0.220 N 
ATOM     64  N   UNL     1      24.740  35.345  10.534  1.00  0.00    -0.062 NA
BRANCH  63  65
ATOM     65  C   UNL     1      25.577  35.360  12.835  1.00  0.00     0.067 A 
ATOM     66  C   UNL     1      26.710  34.587  12.706  1.00  0.00     0.030 A 
ATOM     67  C   UNL     1      25.446  36.157  13.949  1.00  0.00     0.040 A 
ATOM     68  C   UNL     1      27.692  34.608  13.665  1.00  0.00     0.030 A 
ATOM     69  C   UNL     1      26.452  36.166  14.913  1.00  0.00     0.022 A 
ATOM     70  C   UNL     1      27.596  35.395  14.797  1.00  0.00     0.065 A 
ATOM     71  C   UNL     1      26.551  36.868  16.091  1.00  0.00     0.143 A 
ATOM     72  N   UNL     1      28.359  35.630  15.878  1.00  0.00    -0.278 N 
ATOM     73  N   UNL     1      27.726  36.501  16.629  1.00  0.00    -0.183 NA
ATOM     74  H   UNL     1      29.289  35.180  16.057  1.00  0.00     0.190 HD
ENDBRANCH  63  65
ENDBRANCH  59  60
ENDBRANCH  58  59
ENDBRANCH  55  58
ENDBRANCH  53  54
ENDBRANCH  50  53
ENDBRANCH  47  50
ENDBRANCH   5  47
BRANCH   4  75
ATOM     75  N   UNL     1      24.784  41.102   6.331  1.00  0.00    -0.348 N 
ATOM     76  C   UNL     1      23.957  42.125   6.801  1.00  0.00     0.217 C 
ATOM     77  H   UNL     1      24.603  40.702   5.395  1.00  0.00     0.163 HD
ATOM     78  C   UNL     1      22.811  42.665   5.998  1.00  0.00     0.114 C 
ATOM     79  O   UNL     1      24.176  42.628   7.951  1.00  0.00    -0.275 OA
ENDBRANCH   4  75
TORSDOF 30
BEGIN_RES LYS A 131
REMARK  4 active torsions:
REMARK  status: ('A' for Active; 'I' for Inactive)
REMARK    1  A    between atoms: CA   and  CB  
REMARK    2  A    between atoms: CB   and  CG  
REMARK    3  A    between atoms: CG   and  CD  
REMARK    4  A    between atoms: CD   and  CE  
ROOT
ATOM      1  CA  LYS A 131      29.867  25.555  16.977  1.00 20.52     0.186 C 
ENDROOT
BRANCH   1   2
ATOM      2  CB  LYS A 131      28.345  25.722  17.026  1.00 20.94     0.034 C 
BRANCH   2   3
ATOM      3  CG  LYS A 131      27.601  24.406  16.859  1.00 22.96     0.005 C 
BRANCH   3   4
ATOM      4  CD  LYS A 131      26.300  24.391  17.613  1.00 24.33     0.041 C 
BRANCH   4   5
ATOM      5  CE  LYS A 131      26.043  25.770  18.212  1.00 26.91     0.338 C 
ATOM      6  NZ  LYS A 131      25.865  25.674  19.680  1.00 27.40     0.618 N 
ENDBRANCH   4   5
ENDBRANCH   3   4
ENDBRANCH   2   3
ENDBRANCH   1   2
END_RES LYS A 131
BEGIN_RES LYS A 135
REMARK  4 active torsions:
REMARK  status: ('A' for Active; 'I' for Inactive)
REMARK    5  A    between atoms: CA   and  CB  
REMARK    6  A    between atoms: CB   and  CG  
REMARK    7  A    between atoms: CG   and  CD  
REMARK    8  A    between atoms: CD   and  CE  
ROOT
ATOM      7  CA  LYS A 135      33.193  34.663   9.290  1.00 25.02     0.186 C 
ENDROOT
BRANCH   7   8
ATOM      8  CB  LYS A 135      32.060  35.360  10.034  1.00 26.63     0.034 C 
BRANCH   8   9
ATOM      9  CG  LYS A 135      30.739  34.641   9.931  1.00 29.45     0.005 C 
BRANCH   9  10
ATOM     10  CD  LYS A 135      30.517  34.128   8.516  1.00 32.00     0.041 C 
BRANCH  10  11
ATOM     11  CE  LYS A 135      29.663  35.100   7.725  1.00 34.25     0.338 C 
ATOM     12  NZ  LYS A 135      28.213  34.836   7.936  1.00 35.99     0.618 N 
ENDBRANCH  10  11
ENDBRANCH   9  10
ENDBRANCH   8   9
ENDBRANCH   7   8
END_RES LYS A 135
