REMARK VINA RESULT:    -5.102      0.000      0.000
REMARK INTER + INTRA:         -22.874
REMARK INTER:                 -12.874
REMARK INTRA:                 -10.000
REMARK UNBOUND:               -10.018
REMARK SMILES COc1ccc(-n2cc(COC(=O)NC[C@@H](O)C(O)[C@@H]3O[C@@](OC[C@H]4O[C@@H](O[C@H]5[C@H](O)[C@@H](O)[C@H](OCCN=[N+]=[N-])O[C@@H]5CO)[C@H](O)[C@@H](O)[C@H]4O)(C(=O)O)C[C@H](O)[C@H]3NC(C)=O)nn2)cc1
REMARK SMILES IDX 22 1 54 2 55 3 57 4 20 5 21 6 23 7 24 8 25 9 27 10 26 11
REMARK SMILES IDX 45 12 47 13 49 14 28 15 29 16 42 17 41 18 34 19 30 20 32 21
REMARK SMILES IDX 43 22 44 23 35 25 36 26 37 27 38 28 39 29 40 30 31 31 33 33
REMARK SMILES IDX 46 35 48 37 50 39 51 41 52 42 53 43 56 45 18 47 19 48 16 50
REMARK SMILES IDX 17 51 15 53 14 54 12 55 13 57 11 58 10 59 9 60 8 61 62 62
REMARK SMILES IDX 7 63 63 64 6 65 5 66 64 67 4 68 65 69 3 70 2 71 1 72 58 73
REMARK SMILES IDX 59 74 60 76 61 77
REMARK H PARENT 44 24 31 32 33 34 46 36 48 38 50 40 53 44 56 46 19 49 17 52
REMARK H PARENT 14 56 58 75
REMARK Flexibility Score: inf
ROOT
ATOM      1  C   UNL     1      24.275  36.557   8.928  1.00  0.00     0.272 C 
ATOM      2  C   UNL     1      23.543  37.607   8.180  1.00  0.00     0.113 C 
ATOM      3  C   UNL     1      24.219  38.911   8.015  1.00  0.00     0.145 C 
ATOM      4  C   UNL     1      25.271  39.048   9.134  1.00  0.00     0.142 C 
ATOM      5  C   UNL     1      24.693  38.417  10.352  1.00  0.00     0.178 C 
ATOM      6  O   UNL     1      24.745  37.037  10.165  1.00  0.00    -0.332 OA
ENDROOT
BRANCH   1   7
ATOM      7  O   UNL     1      25.168  35.767   8.423  1.00  0.00    -0.338 OA
BRANCH   7   8
ATOM      8  C   UNL     1      25.851  34.715   8.684  1.00  0.00     0.199 C 
BRANCH   8   9
ATOM      9  C   UNL     1      27.331  34.586   8.467  1.00  0.00     0.179 C 
ATOM     10  C   UNL     1      29.254  35.542   7.686  1.00  0.00     0.282 C 
ATOM     11  O   UNL     1      27.905  35.731   8.031  1.00  0.00    -0.341 OA
ATOM     12  C   UNL     1      30.106  35.061   8.817  1.00  0.00     0.202 C 
ATOM     13  C   UNL     1      29.381  34.447   9.956  1.00  0.00     0.179 C 
ATOM     14  C   UNL     1      28.024  33.955   9.650  1.00  0.00     0.177 C 
BRANCH  10  15
ATOM     15  O   UNL     1      29.735  36.770   7.241  1.00  0.00    -0.341 OA
BRANCH  15  16
ATOM     16  C   UNL     1      28.910  37.816   7.553  1.00  0.00     0.184 C 
ATOM     17  C   UNL     1      28.490  38.596   6.362  1.00  0.00     0.178 C 
ATOM     18  O   UNL     1      27.721  39.726   6.746  1.00  0.00    -0.341 OA
ATOM     19  C   UNL     1      28.645  40.611   7.362  1.00  0.00     0.281 C 
ATOM     20  C   UNL     1      29.663  38.738   8.528  1.00  0.00     0.180 C 
ATOM     21  C   UNL     1      28.864  39.996   8.746  1.00  0.00     0.202 C 
BRANCH  17  22
ATOM     22  C   UNL     1      27.687  37.765   5.395  1.00  0.00     0.191 C 
BRANCH  22  23
ATOM     23  O   UNL     1      26.656  37.146   6.080  1.00  0.00    -0.394 OA
ATOM     24  H   UNL     1      26.436  36.257   5.722  1.00  0.00     0.210 HD
ENDBRANCH  22  23
ENDBRANCH  17  22
BRANCH  19  25
ATOM     25  O   UNL     1      28.156  41.869   7.432  1.00  0.00    -0.350 OA
BRANCH  25  26
ATOM     26  C   UNL     1      27.818  42.531   6.293  1.00  0.00     0.169 C 
BRANCH  26  27
ATOM     27  C   UNL     1      26.409  43.002   6.162  1.00  0.00     0.119 C 
BRANCH  27  28
ATOM     28  N   UNL     1      25.490  42.069   5.583  1.00  0.00    -0.092 NA
ATOM     29  N   UNL     1      24.307  42.053   5.908  1.00  0.00     0.001 N 
ATOM     30  N   UNL     1      23.180  42.069   6.412  1.00  0.00    -0.003 NA
ENDBRANCH  27  28
ENDBRANCH  26  27
ENDBRANCH  25  26
ENDBRANCH  19  25
BRANCH  20  31
ATOM     31  O   UNL     1      29.885  38.051   9.707  1.00  0.00    -0.387 OA
ATOM     32  H   UNL     1      28.980  37.844  10.099  1.00  0.00     0.211 HD
ENDBRANCH  20  31
BRANCH  21  33
ATOM     33  O   UNL     1      29.579  40.897   9.502  1.00  0.00    -0.385 OA
ATOM     34  H   UNL     1      29.599  40.634  10.456  1.00  0.00     0.211 HD
ENDBRANCH  21  33
ENDBRANCH  15  16
ENDBRANCH  10  15
BRANCH  12  35
ATOM     35  O   UNL     1      31.052  34.117   8.384  1.00  0.00    -0.385 OA
ATOM     36  H   UNL     1      30.617  33.323   8.001  1.00  0.00     0.211 HD
ENDBRANCH  12  35
BRANCH  13  37
ATOM     37  O   UNL     1      29.432  35.292  11.071  1.00  0.00    -0.387 OA
ATOM     38  H   UNL     1      30.176  35.927  11.042  1.00  0.00     0.211 HD
ENDBRANCH  13  37
BRANCH  14  39
ATOM     39  O   UNL     1      27.245  34.036  10.808  1.00  0.00    -0.387 OA
ATOM     40  H   UNL     1      27.689  34.688  11.406  1.00  0.00     0.211 HD
ENDBRANCH  14  39
ENDBRANCH   8   9
ENDBRANCH   7   8
ENDBRANCH   1   7
BRANCH   1  41
ATOM     41  C   UNL     1      23.117  35.630   9.420  1.00  0.00     0.364 C 
ATOM     42  O   UNL     1      22.193  35.331   8.660  1.00  0.00    -0.246 OA
BRANCH  41  43
ATOM     43  O   UNL     1      23.203  35.190  10.717  1.00  0.00    -0.477 OA
ATOM     44  H   UNL     1      24.110  35.078  11.192  1.00  0.00     0.296 HD
ENDBRANCH  41  43
ENDBRANCH   1  41
BRANCH   3  45
ATOM     45  O   UNL     1      24.732  39.193   6.782  1.00  0.00    -0.391 OA
ATOM     46  H   UNL     1      25.169  40.069   6.685  1.00  0.00     0.211 HD
ENDBRANCH   3  45
BRANCH   5  47
ATOM     47  C   UNL     1      25.529  38.670  11.628  1.00  0.00     0.176 C 
BRANCH  47  48
ATOM     48  O   UNL     1      24.803  38.398  12.747  1.00  0.00    -0.388 OA
ATOM     49  H   UNL     1      23.937  38.866  12.701  1.00  0.00     0.211 HD
ENDBRANCH  47  48
BRANCH  47  50
ATOM     50  C   UNL     1      26.906  38.269  11.481  1.00  0.00     0.165 C 
BRANCH  50  51
ATOM     51  O   UNL     1      27.166  37.276  10.497  1.00  0.00    -0.388 OA
ATOM     52  H   UNL     1      26.654  37.548   9.710  1.00  0.00     0.211 HD
ENDBRANCH  50  51
BRANCH  50  53
ATOM     53  C   UNL     1      27.800  37.922  12.597  1.00  0.00     0.154 C 
BRANCH  53  54
ATOM     54  N   UNL     1      27.765  36.635  13.128  1.00  0.00    -0.319 N 
ATOM     55  C   UNL     1      28.300  36.216  14.355  1.00  0.00     0.407 C 
ATOM     56  H   UNL     1      27.279  35.867  12.549  1.00  0.00     0.167 HD
ATOM     57  O   UNL     1      28.868  37.003  15.130  1.00  0.00    -0.225 OA
BRANCH  55  58
ATOM     58  O   UNL     1      28.191  34.856  14.726  1.00  0.00    -0.443 OA
BRANCH  58  59
ATOM     59  C   UNL     1      27.031  34.469  15.420  1.00  0.00     0.294 C 
BRANCH  59  60
ATOM     60  C   UNL     1      26.082  33.816  14.487  1.00  0.00     0.121 A 
ATOM     61  C   UNL     1      25.336  32.664  14.645  1.00  0.00     0.144 A 
ATOM     62  N   UNL     1      25.775  34.296  13.266  1.00  0.00    -0.131 NA
ATOM     63  N   UNL     1      24.616  32.494  13.530  1.00  0.00    -0.220 N 
ATOM     64  N   UNL     1      24.903  33.504  12.702  1.00  0.00    -0.062 NA
BRANCH  63  65
ATOM     65  C   UNL     1      23.682  31.495  13.151  1.00  0.00     0.067 A 
ATOM     66  C   UNL     1      23.979  30.162  13.057  1.00  0.00     0.032 A 
ATOM     67  C   UNL     1      22.379  31.881  12.842  1.00  0.00     0.032 A 
ATOM     68  C   UNL     1      23.019  29.238  12.669  1.00  0.00     0.048 A 
ATOM     69  C   UNL     1      21.424  30.961  12.455  1.00  0.00     0.048 A 
ATOM     70  C   UNL     1      21.725  29.619  12.361  1.00  0.00     0.119 A 
BRANCH  70  71
ATOM     71  O   UNL     1      20.761  28.670  11.968  1.00  0.00    -0.497 OA
ATOM     72  C   UNL     1      19.955  28.095  13.007  1.00  0.00     0.278 C 
ENDBRANCH  70  71
ENDBRANCH  63  65
ENDBRANCH  59  60
ENDBRANCH  58  59
ENDBRANCH  55  58
ENDBRANCH  53  54
ENDBRANCH  50  53
ENDBRANCH  47  50
ENDBRANCH   5  47
BRANCH   4  73
ATOM     73  N   UNL     1      25.676  40.423   9.216  1.00  0.00    -0.348 N 
ATOM     74  C   UNL     1      24.756  41.442   9.572  1.00  0.00     0.217 C 
ATOM     75  H   UNL     1      26.665  40.672   9.040  1.00  0.00     0.163 HD
ATOM     76  C   UNL     1      25.202  42.858   9.647  1.00  0.00     0.114 C 
ATOM     77  O   UNL     1      23.547  41.207   9.835  1.00  0.00    -0.275 OA
ENDBRANCH   4  73
TORSDOF 31
BEGIN_RES LYS A 131
REMARK  4 active torsions:
REMARK  status: ('A' for Active; 'I' for Inactive)
REMARK    1  A    between atoms: CA   and  CB  
REMARK    2  A    between atoms: CB   and  CG  
REMARK    3  A    between atoms: CG   and  CD  
REMARK    4  A    between atoms: CD   and  CE  
ROOT
ATOM      1  CA  LYS A 131      29.867  25.555  16.977  1.00 20.52     0.186 C 
ENDROOT
BRANCH   1   2
ATOM      2  CB  LYS A 131      28.345  25.722  17.026  1.00 20.94     0.034 C 
BRANCH   2   3
ATOM      3  CG  LYS A 131      27.602  24.398  16.935  1.00 22.96     0.005 C 
BRANCH   3   4
ATOM      4  CD  LYS A 131      26.527  24.278  17.980  1.00 24.33     0.041 C 
BRANCH   4   5
ATOM      5  CE  LYS A 131      25.368  23.457  17.425  1.00 26.91     0.338 C 
ATOM      6  NZ  LYS A 131      24.775  22.612  18.489  1.00 27.40     0.618 N 
ENDBRANCH   4   5
ENDBRANCH   3   4
ENDBRANCH   2   3
ENDBRANCH   1   2
END_RES LYS A 131
BEGIN_RES LYS A 135
REMARK  4 active torsions:
REMARK  status: ('A' for Active; 'I' for Inactive)
REMARK    5  A    between atoms: CA   and  CB  
REMARK    6  A    between atoms: CB   and  CG  
REMARK    7  A    between atoms: CG   and  CD  
REMARK    8  A    between atoms: CD   and  CE  
ROOT
ATOM      7  CA  LYS A 135      33.193  34.663   9.290  1.00 25.02     0.186 C 
ENDROOT
BRANCH   7   8
ATOM      8  CB  LYS A 135      32.060  35.360  10.034  1.00 26.63     0.034 C 
BRANCH   8   9
ATOM      9  CG  LYS A 135      32.536  36.354  11.062  1.00 29.45     0.005 C 
BRANCH   9  10
ATOM     10  CD  LYS A 135      32.647  35.700  12.430  1.00 32.00     0.041 C 
BRANCH  10  11
ATOM     11  CE  LYS A 135      31.965  36.551  13.484  1.00 34.25     0.338 C 
ATOM     12  NZ  LYS A 135      31.455  37.822  12.900  1.00 35.99     0.618 N 
ENDBRANCH  10  11
ENDBRANCH   9  10
ENDBRANCH   8   9
ENDBRANCH   7   8
END_RES LYS A 135
