REMARK VINA RESULT:    -5.502      3.558      6.815
REMARK INTER + INTRA:         -21.441
REMARK INTER:                 -11.657
REMARK INTRA:                  -9.785
REMARK UNBOUND:                -7.575
REMARK SMILES CC(=O)N[C@@H]1[C@@H](O)C[C@](OC[C@H]2O[C@@H](O[C@H]3[C@H](O)[C@@H](O)[C@H](OCCN=[N+]=[N-])O[C@@H]3CO)[C@H](O)[C@@H](O)[C@H]2O)(C(=O)O)O[C@H]1C(O)[C@H](O)CNC(=O)OCc1cn(Cc2ccccc2Br)nn1
REMARK SMILES IDX 9 1 8 2 6 3 5 4 42 5 41 6 10 7 11 8 12 9 14 10 13 11 32 12
REMARK SMILES IDX 34 13 36 14 15 15 16 16 29 17 28 18 21 19 17 20 19 21 30 22
REMARK SMILES IDX 31 23 22 25 23 26 24 27 25 28 26 29 27 30 18 31 20 33 33 35
REMARK SMILES IDX 35 37 37 39 38 41 39 42 40 43 7 45 43 47 44 48 45 50 46 51
REMARK SMILES IDX 47 53 48 54 49 55 50 57 51 58 52 59 53 60 54 61 65 62 55 63
REMARK SMILES IDX 64 64 56 65 57 66 58 67 62 68 59 69 61 70 63 71 60 72 4 73
REMARK SMILES IDX 2 74 1 76 3 77
REMARK H PARENT 31 24 18 32 20 34 33 36 35 38 37 40 40 44 7 46 44 49 46 52
REMARK H PARENT 48 56 4 75
REMARK Flexibility Score: inf
ROOT
ATOM      1  C   UNL     1      26.829  27.337  22.066  1.00  0.00     0.272 C 
ATOM      2  C   UNL     1      26.471  28.761  22.234  1.00  0.00     0.113 C 
ATOM      3  C   UNL     1      26.998  29.311  23.511  1.00  0.00     0.145 C 
ATOM      4  C   UNL     1      28.488  29.121  23.556  1.00  0.00     0.142 C 
ATOM      5  C   UNL     1      28.962  27.873  22.916  1.00  0.00     0.178 C 
ATOM      6  O   UNL     1      28.286  27.393  21.851  1.00  0.00    -0.332 OA
ENDROOT
BRANCH   1   7
ATOM      7  O   UNL     1      26.369  26.744  20.949  1.00  0.00    -0.338 OA
BRANCH   7   8
ATOM      8  C   UNL     1      25.574  27.180  20.025  1.00  0.00     0.199 C 
BRANCH   8   9
ATOM      9  C   UNL     1      25.846  27.991  18.838  1.00  0.00     0.179 C 
ATOM     10  C   UNL     1      25.340  29.757  17.464  1.00  0.00     0.282 C 
ATOM     11  O   UNL     1      25.293  29.275  18.795  1.00  0.00    -0.341 OA
ATOM     12  C   UNL     1      26.758  30.198  17.227  1.00  0.00     0.202 C 
ATOM     13  C   UNL     1      27.732  29.138  17.611  1.00  0.00     0.179 C 
ATOM     14  C   UNL     1      27.159  27.860  18.155  1.00  0.00     0.177 C 
BRANCH  10  15
ATOM     15  O   UNL     1      24.435  30.772  17.386  1.00  0.00    -0.341 OA
BRANCH  15  16
ATOM     16  C   UNL     1      23.183  30.486  16.934  1.00  0.00     0.184 C 
ATOM     17  C   UNL     1      22.874  29.047  16.711  1.00  0.00     0.178 C 
ATOM     18  O   UNL     1      22.310  28.911  15.446  1.00  0.00    -0.341 OA
ATOM     19  C   UNL     1      23.328  29.273  14.528  1.00  0.00     0.281 C 
ATOM     20  C   UNL     1      22.783  31.309  15.719  1.00  0.00     0.180 C 
ATOM     21  C   UNL     1      23.435  30.773  14.460  1.00  0.00     0.202 C 
BRANCH  17  22
ATOM     22  C   UNL     1      21.838  28.517  17.701  1.00  0.00     0.191 C 
BRANCH  22  23
ATOM     23  O   UNL     1      22.205  28.834  19.009  1.00  0.00    -0.394 OA
ATOM     24  H   UNL     1      21.438  29.112  19.559  1.00  0.00     0.210 HD
ENDBRANCH  22  23
ENDBRANCH  17  22
BRANCH  19  25
ATOM     25  O   UNL     1      22.969  28.690  13.316  1.00  0.00    -0.350 OA
BRANCH  25  26
ATOM     26  C   UNL     1      22.362  29.609  12.459  1.00  0.00     0.169 C 
BRANCH  26  27
ATOM     27  C   UNL     1      20.991  29.068  12.096  1.00  0.00     0.119 C 
BRANCH  27  28
ATOM     28  N   UNL     1      20.055  29.517  13.096  1.00  0.00    -0.092 NA
ATOM     29  N   UNL     1      19.517  30.627  13.030  1.00  0.00     0.001 N 
ATOM     30  N   UNL     1      19.395  31.868  13.089  1.00  0.00    -0.003 NA
ENDBRANCH  27  28
ENDBRANCH  26  27
ENDBRANCH  25  26
ENDBRANCH  19  25
BRANCH  20  31
ATOM     31  O   UNL     1      21.405  31.239  15.503  1.00  0.00    -0.387 OA
ATOM     32  H   UNL     1      21.238  30.368  15.047  1.00  0.00     0.211 HD
ENDBRANCH  20  31
BRANCH  21  33
ATOM     33  O   UNL     1      24.710  31.240  14.269  1.00  0.00    -0.385 OA
ATOM     34  H   UNL     1      24.904  31.284  13.303  1.00  0.00     0.211 HD
ENDBRANCH  21  33
ENDBRANCH  15  16
ENDBRANCH  10  15
BRANCH  12  35
ATOM     35  O   UNL     1      26.986  30.470  15.869  1.00  0.00    -0.385 OA
ATOM     36  H   UNL     1      27.315  31.396  15.820  1.00  0.00     0.211 HD
ENDBRANCH  12  35
BRANCH  13  37
ATOM     37  O   UNL     1      28.614  29.658  18.569  1.00  0.00    -0.387 OA
ATOM     38  H   UNL     1      29.344  29.041  18.776  1.00  0.00     0.211 HD
ENDBRANCH  13  37
BRANCH  14  39
ATOM     39  O   UNL     1      28.137  27.296  18.960  1.00  0.00    -0.387 OA
ATOM     40  H   UNL     1      27.825  26.779  19.717  1.00  0.00     0.211 HD
ENDBRANCH  14  39
ENDBRANCH   8   9
ENDBRANCH   7   8
ENDBRANCH   1   7
BRANCH   1  41
ATOM     41  C   UNL     1      26.776  26.465  23.258  1.00  0.00     0.364 C 
ATOM     42  O   UNL     1      25.993  26.580  24.229  1.00  0.00    -0.246 OA
BRANCH  41  43
ATOM     43  O   UNL     1      27.670  25.412  23.348  1.00  0.00    -0.477 OA
ATOM     44  H   UNL     1      27.989  24.904  22.522  1.00  0.00     0.296 HD
ENDBRANCH  41  43
ENDBRANCH   1  41
BRANCH   3  45
ATOM     45  O   UNL     1      26.736  30.718  23.448  1.00  0.00    -0.391 OA
ATOM     46  H   UNL     1      26.366  30.961  22.577  1.00  0.00     0.211 HD
ENDBRANCH   3  45
BRANCH   5  47
ATOM     47  C   UNL     1      30.414  28.055  22.463  1.00  0.00     0.176 C 
BRANCH  47  48
ATOM     48  O   UNL     1      30.916  29.165  23.125  1.00  0.00    -0.388 OA
ATOM     49  H   UNL     1      31.082  29.015  24.072  1.00  0.00     0.211 HD
ENDBRANCH  47  48
BRANCH  47  50
ATOM     50  C   UNL     1      30.538  28.254  20.993  1.00  0.00     0.165 C 
BRANCH  50  51
ATOM     51  O   UNL     1      30.888  27.066  20.329  1.00  0.00    -0.388 OA
ATOM     52  H   UNL     1      31.837  27.098  20.046  1.00  0.00     0.211 HD
ENDBRANCH  50  51
BRANCH  50  53
ATOM     53  C   UNL     1      31.643  29.230  20.682  1.00  0.00     0.154 C 
BRANCH  53  54
ATOM     54  N   UNL     1      31.115  30.438  20.154  1.00  0.00    -0.319 N 
ATOM     55  C   UNL     1      31.110  31.670  20.841  1.00  0.00     0.407 C 
ATOM     56  H   UNL     1      30.698  30.405  19.178  1.00  0.00     0.167 HD
ATOM     57  O   UNL     1      31.589  31.778  21.997  1.00  0.00    -0.225 OA
BRANCH  55  58
ATOM     58  O   UNL     1      30.569  32.825  20.262  1.00  0.00    -0.443 OA
BRANCH  58  59
ATOM     59  C   UNL     1      29.215  32.911  19.909  1.00  0.00     0.294 C 
BRANCH  59  60
ATOM     60  C   UNL     1      28.972  33.052  18.455  1.00  0.00     0.120 A 
ATOM     61  C   UNL     1      29.894  32.668  17.469  1.00  0.00     0.138 A 
ATOM     62  N   UNL     1      27.918  33.535  17.792  1.00  0.00    -0.132 NA
ATOM     63  N   UNL     1      29.361  32.933  16.281  1.00  0.00    -0.248 N 
ATOM     64  N   UNL     1      28.153  33.463  16.499  1.00  0.00    -0.067 NA
BRANCH  63  65
ATOM     65  C   UNL     1      29.913  32.705  14.946  1.00  0.00     0.182 C 
BRANCH  65  66
ATOM     66  C   UNL     1      30.841  33.767  14.502  1.00  0.00    -0.012 A 
ATOM     67  C   UNL     1      32.139  33.747  15.038  1.00  0.00     0.007 A 
ATOM     68  C   UNL     1      30.509  34.771  13.634  1.00  0.00     0.023 A 
ATOM     69  C   UNL     1      33.017  34.724  14.679  1.00  0.00     0.000 A 
ATOM     70  C   UNL     1      31.414  35.759  13.279  1.00  0.00     0.016 A 
ATOM     71  Br  UNL     1      28.789  34.821  12.828  1.00  0.00    -0.050 Br
ATOM     72  C   UNL     1      32.676  35.726  13.811  1.00  0.00     0.001 A 
ENDBRANCH  65  66
ENDBRANCH  63  65
ENDBRANCH  59  60
ENDBRANCH  58  59
ENDBRANCH  55  58
ENDBRANCH  53  54
ENDBRANCH  50  53
ENDBRANCH  47  50
ENDBRANCH   5  47
BRANCH   4  73
ATOM     73  N   UNL     1      28.925  29.177  24.927  1.00  0.00    -0.348 N 
ATOM     74  C   UNL     1      29.416  30.365  25.547  1.00  0.00     0.217 C 
ATOM     75  H   UNL     1      28.907  28.338  25.546  1.00  0.00     0.163 HD
ATOM     76  C   UNL     1      29.856  30.350  26.978  1.00  0.00     0.114 C 
ATOM     77  O   UNL     1      29.467  31.400  24.870  1.00  0.00    -0.275 OA
ENDBRANCH   4  73
TORSDOF 31
BEGIN_RES LYS A 131
REMARK  4 active torsions:
REMARK  status: ('A' for Active; 'I' for Inactive)
REMARK    1  A    between atoms: CA   and  CB  
REMARK    2  A    between atoms: CB   and  CG  
REMARK    3  A    between atoms: CG   and  CD  
REMARK    4  A    between atoms: CD   and  CE  
ROOT
ATOM      1  CA  LYS A 131      29.867  25.555  16.977  1.00 20.52     0.186 C 
ENDROOT
BRANCH   1   2
ATOM      2  CB  LYS A 131      28.345  25.722  17.026  1.00 20.94     0.034 C 
BRANCH   2   3
ATOM      3  CG  LYS A 131      27.601  24.403  16.884  1.00 22.96     0.005 C 
BRANCH   3   4
ATOM      4  CD  LYS A 131      26.153  24.525  17.271  1.00 24.33     0.041 C 
BRANCH   4   5
ATOM      5  CE  LYS A 131      25.697  23.237  17.949  1.00 26.91     0.338 C 
ATOM      6  NZ  LYS A 131      25.538  23.447  19.407  1.00 27.40     0.618 N 
ENDBRANCH   4   5
ENDBRANCH   3   4
ENDBRANCH   2   3
ENDBRANCH   1   2
END_RES LYS A 131
BEGIN_RES LYS A 135
REMARK  4 active torsions:
REMARK  status: ('A' for Active; 'I' for Inactive)
REMARK    5  A    between atoms: CA   and  CB  
REMARK    6  A    between atoms: CB   and  CG  
REMARK    7  A    between atoms: CG   and  CD  
REMARK    8  A    between atoms: CD   and  CE  
ROOT
ATOM      7  CA  LYS A 135      33.193  34.663   9.290  1.00 25.02     0.186 C 
ENDROOT
BRANCH   7   8
ATOM      8  CB  LYS A 135      32.060  35.360  10.034  1.00 26.63     0.034 C 
BRANCH   8   9
ATOM      9  CG  LYS A 135      30.782  35.448   9.240  1.00 29.45     0.005 C 
BRANCH   9  10
ATOM     10  CD  LYS A 135      30.188  34.064   9.025  1.00 32.00     0.041 C 
BRANCH  10  11
ATOM     11  CE  LYS A 135      28.673  34.131   9.013  1.00 34.25     0.338 C 
ATOM     12  NZ  LYS A 135      28.197  35.536   9.142  1.00 35.99     0.618 N 
ENDBRANCH  10  11
ENDBRANCH   9  10
ENDBRANCH   8   9
ENDBRANCH   7   8
END_RES LYS A 135
