REMARK VINA RESULT:    -3.723      3.544      8.803
REMARK INTER + INTRA:         -22.081
REMARK INTER:                 -10.662
REMARK INTRA:                 -11.419
REMARK UNBOUND:               -12.699
REMARK SMILES CC(=O)N[C@@H]1[C@@H](O)C[C@](OC[C@H]2O[C@@H](O[C@H]3[C@H](O)[C@@H](O)[C@H](OCCN=[N+]=[N-])O[C@@H]3CO)[C@H](O)[C@@H](O)[C@H]2O)(C(=O)O)O[C@H]1C(O)[C@H](O)CNC(=O)OCc1cn(Cc2ccc(Br)cc2)nn1
REMARK SMILES IDX 9 1 8 2 6 3 5 4 42 5 41 6 10 7 11 8 12 9 14 10 13 11 32 12
REMARK SMILES IDX 34 13 36 14 15 15 16 16 29 17 28 18 21 19 17 20 19 21 30 22
REMARK SMILES IDX 31 23 22 25 23 26 24 27 25 28 26 29 27 30 18 31 20 33 33 35
REMARK SMILES IDX 35 37 37 39 38 41 39 42 40 43 7 45 43 47 44 48 45 50 46 51
REMARK SMILES IDX 47 53 48 54 49 55 50 57 51 58 52 59 53 60 54 61 65 62 55 63
REMARK SMILES IDX 64 64 56 65 57 66 58 67 63 68 59 69 62 70 60 71 61 72 4 73
REMARK SMILES IDX 2 74 1 76 3 77
REMARK H PARENT 31 24 18 32 20 34 33 36 35 38 37 40 40 44 7 46 44 49 46 52
REMARK H PARENT 48 56 4 75
REMARK Flexibility Score: inf
ROOT
ATOM      1  C   UNL     1      25.743  35.918  10.746  1.00  0.00     0.272 C 
ATOM      2  C   UNL     1      25.250  35.712   9.360  1.00  0.00     0.113 C 
ATOM      3  C   UNL     1      23.802  35.838   9.095  1.00  0.00     0.145 C 
ATOM      4  C   UNL     1      22.916  35.691  10.361  1.00  0.00     0.142 C 
ATOM      5  C   UNL     1      23.741  34.776  11.223  1.00  0.00     0.178 C 
ATOM      6  O   UNL     1      24.758  35.644  11.712  1.00  0.00    -0.332 OA
ENDROOT
BRANCH   1   7
ATOM      7  O   UNL     1      26.500  36.966  11.051  1.00  0.00    -0.338 OA
BRANCH   7   8
ATOM      8  C   UNL     1      27.580  37.503  10.627  1.00  0.00     0.199 C 
BRANCH   8   9
ATOM      9  C   UNL     1      28.447  38.186  11.658  1.00  0.00     0.179 C 
ATOM     10  C   UNL     1      28.736  38.620  13.866  1.00  0.00     0.282 C 
ATOM     11  O   UNL     1      27.882  38.204  12.906  1.00  0.00    -0.341 OA
ATOM     12  C   UNL     1      30.025  39.270  13.396  1.00  0.00     0.202 C 
ATOM     13  C   UNL     1      30.721  38.433  12.346  1.00  0.00     0.179 C 
ATOM     14  C   UNL     1      29.758  37.395  11.788  1.00  0.00     0.177 C 
BRANCH  10  15
ATOM     15  O   UNL     1      29.067  37.745  14.846  1.00  0.00    -0.341 OA
BRANCH  15  16
ATOM     16  C   UNL     1      28.233  37.350  15.818  1.00  0.00     0.184 C 
ATOM     17  C   UNL     1      28.694  37.545  17.226  1.00  0.00     0.178 C 
ATOM     18  O   UNL     1      28.880  36.380  17.919  1.00  0.00    -0.341 OA
ATOM     19  C   UNL     1      27.736  35.608  18.064  1.00  0.00     0.281 C 
ATOM     20  C   UNL     1      27.884  35.890  15.616  1.00  0.00     0.180 C 
ATOM     21  C   UNL     1      26.988  35.466  16.753  1.00  0.00     0.202 C 
BRANCH  17  22
ATOM     22  C   UNL     1      27.745  38.482  17.936  1.00  0.00     0.191 C 
BRANCH  22  23
ATOM     23  O   UNL     1      28.200  38.785  19.236  1.00  0.00    -0.394 OA
ATOM     24  H   UNL     1      27.502  38.635  19.898  1.00  0.00     0.210 HD
ENDBRANCH  22  23
ENDBRANCH  17  22
BRANCH  19  25
ATOM     25  O   UNL     1      26.893  36.028  19.079  1.00  0.00    -0.350 OA
BRANCH  25  26
ATOM     26  C   UNL     1      25.698  35.366  19.169  1.00  0.00     0.169 C 
BRANCH  26  27
ATOM     27  C   UNL     1      24.507  36.267  19.315  1.00  0.00     0.119 C 
BRANCH  27  28
ATOM     28  N   UNL     1      23.530  35.977  18.272  1.00  0.00    -0.092 NA
ATOM     29  N   UNL     1      23.499  34.863  17.753  1.00  0.00     0.001 N 
ATOM     30  N   UNL     1      23.499  33.865  16.997  1.00  0.00    -0.003 NA
ENDBRANCH  27  28
ENDBRANCH  26  27
ENDBRANCH  25  26
ENDBRANCH  19  25
BRANCH  20  31
ATOM     31  O   UNL     1      27.113  35.822  14.439  1.00  0.00    -0.387 OA
ATOM     32  H   UNL     1      27.546  35.201  13.789  1.00  0.00     0.211 HD
ENDBRANCH  20  31
BRANCH  21  33
ATOM     33  O   UNL     1      26.487  34.181  16.578  1.00  0.00    -0.385 OA
ATOM     34  H   UNL     1      27.095  33.714  15.951  1.00  0.00     0.211 HD
ENDBRANCH  21  33
ENDBRANCH  15  16
ENDBRANCH  10  15
BRANCH  12  35
ATOM     35  O   UNL     1      29.855  40.556  12.914  1.00  0.00    -0.385 OA
ATOM     36  H   UNL     1      28.989  40.969  13.138  1.00  0.00     0.211 HD
ENDBRANCH  12  35
BRANCH  13  37
ATOM     37  O   UNL     1      31.883  37.829  12.810  1.00  0.00    -0.387 OA
ATOM     38  H   UNL     1      32.441  37.630  12.019  1.00  0.00     0.211 HD
ENDBRANCH  13  37
BRANCH  14  39
ATOM     39  O   UNL     1      29.506  36.379  12.717  1.00  0.00    -0.387 OA
ATOM     40  H   UNL     1      29.961  36.580  13.558  1.00  0.00     0.211 HD
ENDBRANCH  14  39
ENDBRANCH   8   9
ENDBRANCH   7   8
ENDBRANCH   1   7
BRANCH   1  41
ATOM     41  C   UNL     1      26.721  34.757  10.987  1.00  0.00     0.364 C 
ATOM     42  O   UNL     1      27.111  34.561  12.137  1.00  0.00    -0.246 OA
BRANCH  41  43
ATOM     43  O   UNL     1      27.166  33.944   9.979  1.00  0.00    -0.477 OA
ATOM     44  H   UNL     1      26.501  33.616   9.260  1.00  0.00     0.296 HD
ENDBRANCH  41  43
ENDBRANCH   1  41
BRANCH   3  45
ATOM     45  O   UNL     1      23.404  36.929   8.339  1.00  0.00    -0.391 OA
ATOM     46  H   UNL     1      23.121  36.609   7.456  1.00  0.00     0.211 HD
ENDBRANCH   3  45
BRANCH   5  47
ATOM     47  C   UNL     1      23.071  34.110  12.366  1.00  0.00     0.176 C 
BRANCH  47  48
ATOM     48  O   UNL     1      22.002  33.361  11.999  1.00  0.00    -0.388 OA
ATOM     49  H   UNL     1      21.757  33.474  11.074  1.00  0.00     0.211 HD
ENDBRANCH  47  48
BRANCH  47  50
ATOM     50  C   UNL     1      23.880  33.531  13.449  1.00  0.00     0.165 C 
BRANCH  50  51
ATOM     51  O   UNL     1      24.627  34.497  14.142  1.00  0.00    -0.388 OA
ATOM     52  H   UNL     1      25.390  34.152  14.627  1.00  0.00     0.211 HD
ENDBRANCH  50  51
BRANCH  50  53
ATOM     53  C   UNL     1      24.672  32.309  13.210  1.00  0.00     0.154 C 
BRANCH  53  54
ATOM     54  N   UNL     1      25.105  31.605  14.404  1.00  0.00    -0.319 N 
ATOM     55  C   UNL     1      24.703  30.271  14.673  1.00  0.00     0.407 C 
ATOM     56  H   UNL     1      25.735  32.042  15.123  1.00  0.00     0.167 HD
ATOM     57  O   UNL     1      23.953  29.658  13.848  1.00  0.00    -0.225 OA
BRANCH  55  58
ATOM     58  O   UNL     1      25.083  29.569  15.812  1.00  0.00    -0.443 OA
BRANCH  58  59
ATOM     59  C   UNL     1      24.847  30.131  17.117  1.00  0.00     0.294 C 
BRANCH  59  60
ATOM     60  C   UNL     1      26.053  30.755  17.685  1.00  0.00     0.120 A 
ATOM     61  C   UNL     1      27.333  30.245  17.590  1.00  0.00     0.138 A 
ATOM     62  N   UNL     1      26.140  31.888  18.382  1.00  0.00    -0.132 NA
ATOM     63  N   UNL     1      28.158  31.082  18.229  1.00  0.00    -0.248 N 
ATOM     64  N   UNL     1      27.411  32.062  18.696  1.00  0.00    -0.067 NA
BRANCH  63  65
ATOM     65  C   UNL     1      29.596  30.990  18.387  1.00  0.00     0.181 C 
BRANCH  65  66
ATOM     66  C   UNL     1      30.355  31.886  17.485  1.00  0.00    -0.026 A 
ATOM     67  C   UNL     1      30.819  33.098  18.004  1.00  0.00     0.007 A 
ATOM     68  C   UNL     1      30.645  31.600  16.181  1.00  0.00     0.007 A 
ATOM     69  C   UNL     1      31.546  33.964  17.206  1.00  0.00     0.016 A 
ATOM     70  C   UNL     1      31.377  32.464  15.366  1.00  0.00     0.016 A 
ATOM     71  C   UNL     1      31.825  33.647  15.889  1.00  0.00     0.017 A 
ATOM     72  Br  UNL     1      32.842  34.875  14.811  1.00  0.00    -0.051 Br
ENDBRANCH  65  66
ENDBRANCH  63  65
ENDBRANCH  59  60
ENDBRANCH  58  59
ENDBRANCH  55  58
ENDBRANCH  53  54
ENDBRANCH  50  53
ENDBRANCH  47  50
ENDBRANCH   5  47
BRANCH   4  73
ATOM     73  N   UNL     1      21.625  35.241   9.988  1.00  0.00    -0.348 N 
ATOM     74  C   UNL     1      20.498  36.087  10.129  1.00  0.00     0.217 C 
ATOM     75  H   UNL     1      21.493  34.294   9.593  1.00  0.00     0.163 HD
ATOM     76  C   UNL     1      19.123  35.731   9.771  1.00  0.00     0.114 C 
ATOM     77  O   UNL     1      20.687  37.263  10.606  1.00  0.00    -0.275 OA
ENDBRANCH   4  73
TORSDOF 31
BEGIN_RES LYS A 131
REMARK  4 active torsions:
REMARK  status: ('A' for Active; 'I' for Inactive)
REMARK    1  A    between atoms: CA   and  CB  
REMARK    2  A    between atoms: CB   and  CG  
REMARK    3  A    between atoms: CG   and  CD  
REMARK    4  A    between atoms: CD   and  CE  
ROOT
ATOM      1  CA  LYS A 131      29.867  25.555  16.977  1.00 20.52     0.186 C 
ENDROOT
BRANCH   1   2
ATOM      2  CB  LYS A 131      28.345  25.722  17.026  1.00 20.94     0.034 C 
BRANCH   2   3
ATOM      3  CG  LYS A 131      27.602  24.399  16.918  1.00 22.96     0.005 C 
BRANCH   3   4
ATOM      4  CD  LYS A 131      26.153  24.531  17.298  1.00 24.33     0.041 C 
BRANCH   4   5
ATOM      5  CE  LYS A 131      26.003  24.353  18.805  1.00 26.91     0.338 C 
ATOM      6  NZ  LYS A 131      25.339  23.064  19.112  1.00 27.40     0.618 N 
ENDBRANCH   4   5
ENDBRANCH   3   4
ENDBRANCH   2   3
ENDBRANCH   1   2
END_RES LYS A 131
BEGIN_RES LYS A 135
REMARK  4 active torsions:
REMARK  status: ('A' for Active; 'I' for Inactive)
REMARK    5  A    between atoms: CA   and  CB  
REMARK    6  A    between atoms: CB   and  CG  
REMARK    7  A    between atoms: CG   and  CD  
REMARK    8  A    between atoms: CD   and  CE  
ROOT
ATOM      7  CA  LYS A 135      33.193  34.663   9.290  1.00 25.02     0.186 C 
ENDROOT
BRANCH   7   8
ATOM      8  CB  LYS A 135      32.060  35.360  10.034  1.00 26.63     0.034 C 
BRANCH   8   9
ATOM      9  CG  LYS A 135      30.727  34.674   9.881  1.00 29.45     0.005 C 
BRANCH   9  10
ATOM     10  CD  LYS A 135      30.340  34.575   8.413  1.00 32.00     0.041 C 
BRANCH  10  11
ATOM     11  CE  LYS A 135      29.536  35.789   7.991  1.00 34.25     0.338 C 
ATOM     12  NZ  LYS A 135      28.390  35.399   7.123  1.00 35.99     0.618 N 
ENDBRANCH  10  11
ENDBRANCH   9  10
ENDBRANCH   8   9
ENDBRANCH   7   8
END_RES LYS A 135
