REMARK VINA RESULT:    -5.377      0.000      0.000
REMARK INTER + INTRA:         -25.722
REMARK INTER:                 -16.257
REMARK INTRA:                  -9.465
REMARK UNBOUND:               -11.071
REMARK SMILES CC(=O)N[C@@H]1[C@@H](O)C[C@](OC[C@H]2O[C@@H](O[C@H]3[C@H](O)[C@@H](O)[C@H](OCCN=[N+]=[N-])O[C@@H]3CO)[C@H](O)[C@@H](O)[C@H]2O)(C(=O)O)O[C@H]1C(O)[C@H](O)CNC(=O)OCc1cn(CC(O)CCc2ccccc2)nn1
REMARK SMILES IDX 43 1 42 2 9 3 8 4 41 5 6 6 5 7 10 8 11 9 12 10 14 11 13 12
REMARK SMILES IDX 32 13 34 14 36 15 15 16 16 17 29 18 28 19 21 20 17 21 19 22
REMARK SMILES IDX 30 23 31 24 22 26 23 27 24 28 25 29 26 30 27 31 18 32 20 34
REMARK SMILES IDX 33 36 35 38 37 40 38 42 39 43 40 44 7 46 4 48 2 49 1 51 3 52
REMARK SMILES IDX 44 53 45 55 46 56 47 58 48 59 49 60 50 62 51 63 52 64 53 65
REMARK SMILES IDX 54 66 68 67 55 68 67 69 56 70 57 71 58 72 59 74 60 75 61 76
REMARK SMILES IDX 62 77 66 78 63 79 65 80 64 81
REMARK H PARENT 31 25 18 33 20 35 33 37 35 39 37 41 40 45 7 47 4 50 44 54
REMARK H PARENT 46 57 48 61 58 73
REMARK Flexibility Score: inf
ROOT
ATOM      1  C   UNL     1      28.182  38.079   5.194  1.00  0.00     0.176 C 
ENDROOT
BRANCH   1   2
ATOM      2  C   UNL     1      28.435  39.013   6.393  1.00  0.00     0.178 C 
ATOM      3  C   UNL     1      26.903  40.547   7.356  1.00  0.00     0.272 C 
ATOM      4  C   UNL     1      27.341  41.516   6.309  1.00  0.00     0.113 C 
ATOM      5  O   UNL     1      27.268  39.282   6.980  1.00  0.00    -0.332 OA
ATOM      6  C   UNL     1      28.816  41.478   6.121  1.00  0.00     0.145 C 
ATOM      7  C   UNL     1      29.356  40.089   5.961  1.00  0.00     0.142 C 
BRANCH   3   8
ATOM      8  O   UNL     1      25.515  40.646   7.577  1.00  0.00    -0.338 OA
BRANCH   8   9
ATOM      9  C   UNL     1      24.729  39.772   6.914  1.00  0.00     0.199 C 
BRANCH   9  10
ATOM     10  C   UNL     1      23.586  39.251   7.816  1.00  0.00     0.179 C 
ATOM     11  C   UNL     1      22.069  37.596   8.143  1.00  0.00     0.282 C 
ATOM     12  O   UNL     1      22.951  38.190   7.277  1.00  0.00    -0.341 OA
ATOM     13  C   UNL     1      22.950  37.087   9.319  1.00  0.00     0.202 C 
ATOM     14  C   UNL     1      23.224  38.379  10.095  1.00  0.00     0.179 C 
ATOM     15  C   UNL     1      24.135  39.164   9.193  1.00  0.00     0.177 C 
BRANCH  11  16
ATOM     16  O   UNL     1      21.477  36.518   7.587  1.00  0.00    -0.341 OA
BRANCH  16  17
ATOM     17  C   UNL     1      20.111  36.378   7.663  1.00  0.00     0.184 C 
ATOM     18  C   UNL     1      19.466  37.302   8.642  1.00  0.00     0.178 C 
ATOM     19  O   UNL     1      18.712  36.745   9.625  1.00  0.00    -0.341 OA
ATOM     20  C   UNL     1      18.057  35.580   9.358  1.00  0.00     0.281 C 
ATOM     21  C   UNL     1      19.827  34.914   7.841  1.00  0.00     0.180 C 
ATOM     22  C   UNL     1      19.099  34.524   9.077  1.00  0.00     0.202 C 
BRANCH  18  23
ATOM     23  C   UNL     1      18.590  38.285   7.896  1.00  0.00     0.191 C 
BRANCH  23  24
ATOM     24  O   UNL     1      18.303  37.837   6.608  1.00  0.00    -0.394 OA
ATOM     25  H   UNL     1      17.716  37.030   6.725  1.00  0.00     0.210 HD
ENDBRANCH  23  24
ENDBRANCH  18  23
BRANCH  20  26
ATOM     26  O   UNL     1      17.111  35.678   8.351  1.00  0.00    -0.350 OA
BRANCH  26  27
ATOM     27  C   UNL     1      16.020  34.860   8.654  1.00  0.00     0.169 C 
BRANCH  27  28
ATOM     28  C   UNL     1      15.594  34.194   7.348  1.00  0.00     0.119 C 
BRANCH  28  29
ATOM     29  N   UNL     1      16.418  33.054   7.049  1.00  0.00    -0.092 NA
ATOM     30  N   UNL     1      15.971  31.908   7.262  1.00  0.00     0.001 N 
ATOM     31  N   UNL     1      15.638  30.806   7.740  1.00  0.00    -0.003 NA
ENDBRANCH  28  29
ENDBRANCH  27  28
ENDBRANCH  26  27
ENDBRANCH  20  26
BRANCH  21  32
ATOM     32  O   UNL     1      19.054  34.408   6.761  1.00  0.00    -0.387 OA
ATOM     33  H   UNL     1      19.605  33.906   6.118  1.00  0.00     0.211 HD
ENDBRANCH  21  32
BRANCH  22  34
ATOM     34  O   UNL     1      19.963  34.479  10.175  1.00  0.00    -0.385 OA
ATOM     35  H   UNL     1      19.920  33.624  10.649  1.00  0.00     0.211 HD
ENDBRANCH  22  34
ENDBRANCH  16  17
ENDBRANCH  11  16
BRANCH  13  36
ATOM     36  O   UNL     1      22.363  36.116  10.059  1.00  0.00    -0.385 OA
ATOM     37  H   UNL     1      21.793  35.474   9.604  1.00  0.00     0.211 HD
ENDBRANCH  13  36
BRANCH  14  38
ATOM     38  O   UNL     1      23.806  38.106  11.330  1.00  0.00    -0.387 OA
ATOM     39  H   UNL     1      24.687  38.539  11.397  1.00  0.00     0.211 HD
ENDBRANCH  14  38
BRANCH  15  40
ATOM     40  O   UNL     1      25.357  38.483   9.179  1.00  0.00    -0.387 OA
ATOM     41  H   UNL     1      25.632  38.221  10.088  1.00  0.00     0.211 HD
ENDBRANCH  15  40
ENDBRANCH   9  10
ENDBRANCH   8   9
ENDBRANCH   3   8
BRANCH   3  42
ATOM     42  C   UNL     1      27.485  40.949   8.660  1.00  0.00     0.364 C 
ATOM     43  O   UNL     1      27.453  42.169   8.990  1.00  0.00    -0.246 OA
BRANCH  42  44
ATOM     44  O   UNL     1      28.058  40.068   9.535  1.00  0.00    -0.477 OA
ATOM     45  H   UNL     1      28.853  40.356  10.085  1.00  0.00     0.296 HD
ENDBRANCH  42  44
ENDBRANCH   3  42
BRANCH   6  46
ATOM     46  O   UNL     1      29.076  42.274   4.972  1.00  0.00    -0.391 OA
ATOM     47  H   UNL     1      28.318  42.284   4.354  1.00  0.00     0.211 HD
ENDBRANCH   6  46
BRANCH   7  48
ATOM     48  N   UNL     1      30.681  39.931   6.505  1.00  0.00    -0.348 N 
ATOM     49  C   UNL     1      31.872  40.214   5.782  1.00  0.00     0.217 C 
ATOM     50  H   UNL     1      30.816  39.580   7.500  1.00  0.00     0.163 HD
ATOM     51  C   UNL     1      33.174  40.016   6.455  1.00  0.00     0.114 C 
ATOM     52  O   UNL     1      31.823  40.618   4.615  1.00  0.00    -0.275 OA
ENDBRANCH   7  48
ENDBRANCH   1   2
BRANCH   1  53
ATOM     53  O   UNL     1      27.428  38.732   4.239  1.00  0.00    -0.388 OA
ATOM     54  H   UNL     1      26.483  38.445   4.228  1.00  0.00     0.211 HD
ENDBRANCH   1  53
BRANCH   1  55
ATOM     55  C   UNL     1      27.748  36.707   5.549  1.00  0.00     0.165 C 
BRANCH  55  56
ATOM     56  O   UNL     1      26.611  36.753   6.316  1.00  0.00    -0.388 OA
ATOM     57  H   UNL     1      26.236  37.652   6.410  1.00  0.00     0.211 HD
ENDBRANCH  55  56
BRANCH  55  58
ATOM     58  C   UNL     1      28.889  36.052   6.292  1.00  0.00     0.154 C 
BRANCH  58  59
ATOM     59  N   UNL     1      28.550  35.250   7.406  1.00  0.00    -0.319 N 
ATOM     60  C   UNL     1      29.431  34.559   8.280  1.00  0.00     0.407 C 
ATOM     61  H   UNL     1      27.512  35.116   7.670  1.00  0.00     0.167 HD
ATOM     62  O   UNL     1      30.655  34.633   8.120  1.00  0.00    -0.225 OA
BRANCH  60  63
ATOM     63  O   UNL     1      28.943  33.791   9.325  1.00  0.00    -0.443 OA
BRANCH  63  64
ATOM     64  C   UNL     1      27.626  33.530   9.642  1.00  0.00     0.294 C 
BRANCH  64  65
ATOM     65  C   UNL     1      26.924  34.518  10.475  1.00  0.00     0.120 A 
ATOM     66  C   UNL     1      26.291  34.294  11.692  1.00  0.00     0.138 A 
ATOM     67  N   UNL     1      26.739  35.822  10.182  1.00  0.00    -0.132 NA
ATOM     68  N   UNL     1      25.763  35.457  12.064  1.00  0.00    -0.250 N 
ATOM     69  N   UNL     1      26.038  36.360  11.157  1.00  0.00    -0.067 NA
BRANCH  68  70
ATOM     70  C   UNL     1      24.977  35.628  13.314  1.00  0.00     0.177 C 
BRANCH  70  71
ATOM     71  C   UNL     1      23.669  34.951  13.082  1.00  0.00     0.136 C 
BRANCH  71  72
ATOM     72  O   UNL     1      22.613  35.875  12.993  1.00  0.00    -0.391 OA
ATOM     73  H   UNL     1      21.807  35.478  12.602  1.00  0.00     0.211 HD
ENDBRANCH  71  72
BRANCH  71  74
ATOM     74  C   UNL     1      23.340  33.869  14.033  1.00  0.00     0.038 C 
BRANCH  74  75
ATOM     75  C   UNL     1      24.012  32.575  14.007  1.00  0.00     0.038 C 
BRANCH  75  76
ATOM     76  C   UNL     1      23.347  31.417  13.450  1.00  0.00    -0.048 A 
ATOM     77  C   UNL     1      24.046  30.236  13.213  1.00  0.00     0.004 A 
ATOM     78  C   UNL     1      22.009  31.461  13.057  1.00  0.00     0.004 A 
ATOM     79  C   UNL     1      23.435  29.171  12.620  1.00  0.00     0.000 A 
ATOM     80  C   UNL     1      21.424  30.370  12.461  1.00  0.00     0.000 A 
ATOM     81  C   UNL     1      22.120  29.193  12.224  1.00  0.00     0.000 A 
ENDBRANCH  75  76
ENDBRANCH  74  75
ENDBRANCH  71  74
ENDBRANCH  70  71
ENDBRANCH  68  70
ENDBRANCH  64  65
ENDBRANCH  63  64
ENDBRANCH  60  63
ENDBRANCH  58  59
ENDBRANCH  55  58
ENDBRANCH   1  55
TORSDOF 35
BEGIN_RES LYS A 131
REMARK  4 active torsions:
REMARK  status: ('A' for Active; 'I' for Inactive)
REMARK    1  A    between atoms: CA   and  CB  
REMARK    2  A    between atoms: CB   and  CG  
REMARK    3  A    between atoms: CG   and  CD  
REMARK    4  A    between atoms: CD   and  CE  
ROOT
ATOM      1  CA  LYS A 131      29.867  25.555  16.977  1.00 20.52     0.186 C 
ENDROOT
BRANCH   1   2
ATOM      2  CB  LYS A 131      28.345  25.722  17.026  1.00 20.94     0.034 C 
BRANCH   2   3
ATOM      3  CG  LYS A 131      27.601  24.402  16.892  1.00 22.96     0.005 C 
BRANCH   3   4
ATOM      4  CD  LYS A 131      26.153  24.526  17.278  1.00 24.33     0.041 C 
BRANCH   4   5
ATOM      5  CE  LYS A 131      25.642  23.178  17.775  1.00 26.91     0.338 C 
ATOM      6  NZ  LYS A 131      25.514  23.183  19.252  1.00 27.40     0.618 N 
ENDBRANCH   4   5
ENDBRANCH   3   4
ENDBRANCH   2   3
ENDBRANCH   1   2
END_RES LYS A 131
BEGIN_RES LYS A 135
REMARK  4 active torsions:
REMARK  status: ('A' for Active; 'I' for Inactive)
REMARK    5  A    between atoms: CA   and  CB  
REMARK    6  A    between atoms: CB   and  CG  
REMARK    7  A    between atoms: CG   and  CD  
REMARK    8  A    between atoms: CD   and  CE  
ROOT
ATOM      7  CA  LYS A 135      33.193  34.663   9.290  1.00 25.02     0.186 C 
ENDROOT
BRANCH   7   8
ATOM      8  CB  LYS A 135      32.060  35.360  10.034  1.00 26.63     0.034 C 
BRANCH   8   9
ATOM      9  CG  LYS A 135      32.498  36.023  11.314  1.00 29.45     0.005 C 
BRANCH   9  10
ATOM     10  CD  LYS A 135      31.429  36.982  11.815  1.00 32.00     0.041 C 
BRANCH  10  11
ATOM     11  CE  LYS A 135      30.045  36.414  11.565  1.00 34.25     0.338 C 
ATOM     12  NZ  LYS A 135      29.613  35.539  12.690  1.00 35.99     0.618 N 
ENDBRANCH  10  11
ENDBRANCH   9  10
ENDBRANCH   8   9
ENDBRANCH   7   8
END_RES LYS A 135
