REMARK VINA RESULT:    -5.220      4.225      8.442
REMARK INTER + INTRA:         -23.363
REMARK INTER:                 -12.138
REMARK INTRA:                 -11.226
REMARK UNBOUND:                -9.598
REMARK SMILES CC(=O)N[C@@H]1[C@@H](O)C[C@](OC[C@H]2O[C@@H](O[C@H]3[C@H](O)[C@@H](O)[C@H](OCCN=[N+]=[N-])O[C@@H]3CO)[C@H](O)[C@@H](O)[C@H]2O)(C(=O)O)O[C@H]1C(O)[C@H](O)CNC(=O)OCc1cn(Cc2ccccc2OC(C)=O)nn1
REMARK SMILES IDX 43 1 42 2 9 3 8 4 41 5 6 6 5 7 10 8 11 9 12 10 14 11 13 12
REMARK SMILES IDX 32 13 34 14 36 15 15 16 16 17 29 18 28 19 21 20 17 21 19 22
REMARK SMILES IDX 30 23 31 24 22 26 23 27 24 28 25 29 26 30 27 31 18 32 20 34
REMARK SMILES IDX 33 36 35 38 37 40 38 42 39 43 40 44 7 46 4 48 2 49 1 51 3 52
REMARK SMILES IDX 44 53 45 55 46 56 47 58 48 59 49 60 50 62 51 63 52 64 53 65
REMARK SMILES IDX 54 66 68 67 55 68 67 69 56 70 57 71 62 72 58 73 61 74 59 75
REMARK SMILES IDX 60 76 63 77 64 78 66 79 65 80
REMARK H PARENT 31 25 18 33 20 35 33 37 35 39 37 41 40 45 7 47 4 50 44 54
REMARK H PARENT 46 57 48 61
REMARK Flexibility Score: inf
ROOT
ATOM      1  C   UNL     1      22.130  35.687   8.522  1.00  0.00     0.176 C 
ENDROOT
BRANCH   1   2
ATOM      2  C   UNL     1      22.226  35.765  10.037  1.00  0.00     0.178 C 
ATOM      3  C   UNL     1      23.560  35.041  11.807  1.00  0.00     0.272 C 
ATOM      4  C   UNL     1      22.287  35.451  12.539  1.00  0.00     0.113 C 
ATOM      5  O   UNL     1      23.270  34.955  10.425  1.00  0.00    -0.332 OA
ATOM      6  C   UNL     1      21.159  34.653  11.907  1.00  0.00     0.145 C 
ATOM      7  C   UNL     1      20.897  35.226  10.568  1.00  0.00     0.142 C 
BRANCH   3   8
ATOM      8  O   UNL     1      24.016  33.808  12.168  1.00  0.00    -0.338 OA
BRANCH   8   9
ATOM      9  C   UNL     1      25.111  33.722  12.967  1.00  0.00     0.199 C 
BRANCH   9  10
ATOM     10  C   UNL     1      24.728  32.879  14.196  1.00  0.00     0.179 C 
ATOM     11  C   UNL     1      25.608  31.364  15.684  1.00  0.00     0.282 C 
ATOM     12  O   UNL     1      25.916  32.267  14.610  1.00  0.00    -0.341 OA
ATOM     13  C   UNL     1      25.355  32.238  16.860  1.00  0.00     0.202 C 
ATOM     14  C   UNL     1      24.058  33.006  16.552  1.00  0.00     0.179 C 
ATOM     15  C   UNL     1      24.145  33.749  15.262  1.00  0.00     0.177 C 
BRANCH  11  16
ATOM     16  O   UNL     1      26.694  30.524  15.730  1.00  0.00    -0.341 OA
BRANCH  16  17
ATOM     17  C   UNL     1      27.742  31.084  16.485  1.00  0.00     0.184 C 
ATOM     18  C   UNL     1      28.984  31.325  15.710  1.00  0.00     0.178 C 
ATOM     19  O   UNL     1      30.136  30.896  16.376  1.00  0.00    -0.341 OA
ATOM     20  C   UNL     1      30.200  31.283  17.708  1.00  0.00     0.281 C 
ATOM     21  C   UNL     1      28.152  29.979  17.529  1.00  0.00     0.180 C 
ATOM     22  C   UNL     1      29.042  30.691  18.510  1.00  0.00     0.202 C 
BRANCH  18  23
ATOM     23  C   UNL     1      29.148  32.697  15.136  1.00  0.00     0.191 C 
BRANCH  23  24
ATOM     24  O   UNL     1      28.203  33.544  15.696  1.00  0.00    -0.394 OA
ATOM     25  H   UNL     1      27.657  33.062  16.352  1.00  0.00     0.210 HD
ENDBRANCH  23  24
ENDBRANCH  18  23
BRANCH  20  26
ATOM     26  O   UNL     1      30.147  32.626  17.839  1.00  0.00    -0.350 OA
BRANCH  26  27
ATOM     27  C   UNL     1      29.633  33.204  18.940  1.00  0.00     0.169 C 
BRANCH  27  28
ATOM     28  C   UNL     1      29.394  34.671  18.936  1.00  0.00     0.119 C 
BRANCH  28  29
ATOM     29  N   UNL     1      28.185  34.995  18.258  1.00  0.00    -0.092 NA
ATOM     30  N   UNL     1      27.088  34.776  18.722  1.00  0.00     0.001 N 
ATOM     31  N   UNL     1      26.054  34.751  19.397  1.00  0.00    -0.003 NA
ENDBRANCH  28  29
ENDBRANCH  27  28
ENDBRANCH  26  27
ENDBRANCH  20  26
BRANCH  21  32
ATOM     32  O   UNL     1      27.021  29.436  18.085  1.00  0.00    -0.387 OA
ATOM     33  H   UNL     1      26.916  28.477  17.785  1.00  0.00     0.211 HD
ENDBRANCH  21  32
BRANCH  22  34
ATOM     34  O   UNL     1      29.456  29.876  19.539  1.00  0.00    -0.385 OA
ATOM     35  H   UNL     1      29.831  30.469  20.252  1.00  0.00     0.211 HD
ENDBRANCH  22  34
ENDBRANCH  16  17
ENDBRANCH  11  16
BRANCH  13  36
ATOM     36  O   UNL     1      25.087  31.541  18.027  1.00  0.00    -0.385 OA
ATOM     37  H   UNL     1      24.162  31.228  18.111  1.00  0.00     0.211 HD
ENDBRANCH  13  36
BRANCH  14  38
ATOM     38  O   UNL     1      23.733  33.841  17.624  1.00  0.00    -0.387 OA
ATOM     39  H   UNL     1      23.869  34.776  17.298  1.00  0.00     0.211 HD
ENDBRANCH  14  38
BRANCH  15  40
ATOM     40  O   UNL     1      24.883  34.910  15.476  1.00  0.00    -0.387 OA
ATOM     41  H   UNL     1      24.347  35.725  15.448  1.00  0.00     0.211 HD
ENDBRANCH  15  40
ENDBRANCH   9  10
ENDBRANCH   8   9
ENDBRANCH   3   8
BRANCH   3  42
ATOM     42  C   UNL     1      24.525  36.142  12.023  1.00  0.00     0.364 C 
ATOM     43  O   UNL     1      24.461  36.897  12.990  1.00  0.00    -0.246 OA
BRANCH  42  44
ATOM     44  O   UNL     1      25.547  36.325  11.088  1.00  0.00    -0.477 OA
ATOM     45  H   UNL     1      25.587  35.770  10.220  1.00  0.00     0.296 HD
ENDBRANCH  42  44
ENDBRANCH   3  42
BRANCH   6  46
ATOM     46  O   UNL     1      21.661  33.359  11.737  1.00  0.00    -0.391 OA
ATOM     47  H   UNL     1      22.645  33.318  11.698  1.00  0.00     0.211 HD
ENDBRANCH   6  46
BRANCH   7  48
ATOM     48  N   UNL     1      19.888  36.195  10.452  1.00  0.00    -0.348 N 
ATOM     49  C   UNL     1      18.566  35.924   9.998  1.00  0.00     0.217 C 
ATOM     50  H   UNL     1      20.129  37.191  10.722  1.00  0.00     0.163 HD
ATOM     51  C   UNL     1      17.534  36.968   9.890  1.00  0.00     0.114 C 
ATOM     52  O   UNL     1      18.314  34.751   9.691  1.00  0.00    -0.275 OA
ENDBRANCH   7  48
ENDBRANCH   1   2
BRANCH   1  53
ATOM     53  O   UNL     1      21.024  34.908   8.236  1.00  0.00    -0.388 OA
ATOM     54  H   UNL     1      20.694  34.984   7.316  1.00  0.00     0.211 HD
ENDBRANCH   1  53
BRANCH   1  55
ATOM     55  C   UNL     1      22.158  37.018   7.848  1.00  0.00     0.165 C 
BRANCH  55  56
ATOM     56  O   UNL     1      22.274  36.797   6.472  1.00  0.00    -0.388 OA
ATOM     57  H   UNL     1      22.702  35.951   6.271  1.00  0.00     0.211 HD
ENDBRANCH  55  56
BRANCH  55  58
ATOM     58  C   UNL     1      23.268  37.911   8.348  1.00  0.00     0.154 C 
BRANCH  58  59
ATOM     59  N   UNL     1      24.568  37.329   8.296  1.00  0.00    -0.319 N 
ATOM     60  C   UNL     1      25.687  37.924   7.658  1.00  0.00     0.407 C 
ATOM     61  H   UNL     1      24.731  36.393   8.758  1.00  0.00     0.167 HD
ATOM     62  O   UNL     1      25.519  39.035   7.098  1.00  0.00    -0.225 OA
BRANCH  60  63
ATOM     63  O   UNL     1      26.936  37.352   7.617  1.00  0.00    -0.443 OA
BRANCH  63  64
ATOM     64  C   UNL     1      28.077  38.033   7.096  1.00  0.00     0.294 C 
BRANCH  64  65
ATOM     65  C   UNL     1      28.959  38.505   8.173  1.00  0.00     0.120 A 
ATOM     66  C   UNL     1      28.743  38.257   9.508  1.00  0.00     0.138 A 
ATOM     67  N   UNL     1      30.088  39.223   8.112  1.00  0.00    -0.132 NA
ATOM     68  N   UNL     1      29.724  38.819  10.216  1.00  0.00    -0.248 N 
ATOM     69  N   UNL     1      30.539  39.408   9.320  1.00  0.00    -0.067 NA
BRANCH  68  70
ATOM     70  C   UNL     1      29.945  38.852  11.649  1.00  0.00     0.185 C 
BRANCH  70  71
ATOM     71  C   UNL     1      30.484  37.582  12.147  1.00  0.00     0.016 A 
ATOM     72  C   UNL     1      29.689  36.605  12.638  1.00  0.00     0.135 A 
ATOM     73  C   UNL     1      31.870  37.415  12.080  1.00  0.00     0.009 A 
ATOM     74  C   UNL     1      30.274  35.417  13.079  1.00  0.00     0.047 A 
ATOM     75  C   UNL     1      32.434  36.245  12.517  1.00  0.00     0.001 A 
ATOM     76  C   UNL     1      31.643  35.237  13.019  1.00  0.00     0.004 A 
BRANCH  72  77
ATOM     77  O   UNL     1      28.317  36.723  12.726  1.00  0.00    -0.426 OA
BRANCH  77  78
ATOM     78  C   UNL     1      27.757  36.911  13.995  1.00  0.00     0.308 C 
ATOM     79  O   UNL     1      27.253  35.927  14.580  1.00  0.00    -0.252 OA
ATOM     80  C   UNL     1      27.770  38.240  14.610  1.00  0.00     0.139 C 
ENDBRANCH  77  78
ENDBRANCH  72  77
ENDBRANCH  70  71
ENDBRANCH  68  70
ENDBRANCH  64  65
ENDBRANCH  63  64
ENDBRANCH  60  63
ENDBRANCH  58  59
ENDBRANCH  55  58
ENDBRANCH   1  55
TORSDOF 33
BEGIN_RES LYS A 131
REMARK  4 active torsions:
REMARK  status: ('A' for Active; 'I' for Inactive)
REMARK    1  A    between atoms: CA   and  CB  
REMARK    2  A    between atoms: CB   and  CG  
REMARK    3  A    between atoms: CG   and  CD  
REMARK    4  A    between atoms: CD   and  CE  
ROOT
ATOM      1  CA  LYS A 131      29.867  25.555  16.977  1.00 20.52     0.186 C 
ENDROOT
BRANCH   1   2
ATOM      2  CB  LYS A 131      28.345  25.722  17.026  1.00 20.94     0.034 C 
BRANCH   2   3
ATOM      3  CG  LYS A 131      27.601  24.401  16.906  1.00 22.96     0.005 C 
BRANCH   3   4
ATOM      4  CD  LYS A 131      26.151  24.531  17.279  1.00 24.33     0.041 C 
BRANCH   4   5
ATOM      5  CE  LYS A 131      25.715  23.299  18.066  1.00 26.91     0.338 C 
ATOM      6  NZ  LYS A 131      24.544  22.659  17.421  1.00 27.40     0.618 N 
ENDBRANCH   4   5
ENDBRANCH   3   4
ENDBRANCH   2   3
ENDBRANCH   1   2
END_RES LYS A 131
BEGIN_RES LYS A 135
REMARK  4 active torsions:
REMARK  status: ('A' for Active; 'I' for Inactive)
REMARK    5  A    between atoms: CA   and  CB  
REMARK    6  A    between atoms: CB   and  CG  
REMARK    7  A    between atoms: CG   and  CD  
REMARK    8  A    between atoms: CD   and  CE  
ROOT
ATOM      7  CA  LYS A 135      33.193  34.663   9.290  1.00 25.02     0.186 C 
ENDROOT
BRANCH   7   8
ATOM      8  CB  LYS A 135      32.060  35.360  10.034  1.00 26.63     0.034 C 
BRANCH   8   9
ATOM      9  CG  LYS A 135      30.793  35.480   9.227  1.00 29.45     0.005 C 
BRANCH   9  10
ATOM     10  CD  LYS A 135      30.090  34.135   9.128  1.00 32.00     0.041 C 
BRANCH  10  11
ATOM     11  CE  LYS A 135      28.633  34.322   8.752  1.00 34.25     0.338 C 
ATOM     12  NZ  LYS A 135      27.733  33.758   9.796  1.00 35.99     0.618 N 
ENDBRANCH  10  11
ENDBRANCH   9  10
ENDBRANCH   8   9
ENDBRANCH   7   8
END_RES LYS A 135
