REMARK VINA RESULT:    -5.236      3.484      8.607
REMARK INTER + INTRA:         -22.462
REMARK INTER:                 -13.502
REMARK INTRA:                  -8.960
REMARK UNBOUND:                -8.960
REMARK SMILES CC(=O)N[C@@H]1[C@@H](O)C[C@](OC[C@H]2O[C@@H](O[C@H]3[C@H](O)[C@@H](O)[C@H](OCCN=[N+]=[N-])O[C@@H]3CO)[C@H](O)[C@@H](O)[C@H]2O)(C(=O)O)O[C@H]1C(O)[C@H](O)CNC(=O)OCc1cn(Cc2cccc(C#N)c2)nn1
REMARK SMILES IDX 9 1 8 2 6 3 5 4 42 5 41 6 10 7 11 8 12 9 14 10 13 11 32 12
REMARK SMILES IDX 34 13 36 14 15 15 16 16 29 17 28 18 21 19 17 20 19 21 30 22
REMARK SMILES IDX 31 23 22 25 23 26 24 27 25 28 26 29 27 30 18 31 20 33 33 35
REMARK SMILES IDX 35 37 37 39 38 41 39 42 40 43 7 45 43 47 44 48 45 50 46 51
REMARK SMILES IDX 47 53 48 54 49 55 50 57 51 58 52 59 53 60 54 61 66 62 55 63
REMARK SMILES IDX 65 64 56 65 57 66 58 67 64 68 59 69 61 70 60 71 62 72 63 73
REMARK SMILES IDX 4 74 2 75 1 77 3 78
REMARK H PARENT 31 24 18 32 20 34 33 36 35 38 37 40 40 44 7 46 44 49 46 52
REMARK H PARENT 48 56 4 76
REMARK Flexibility Score: inf
ROOT
ATOM      1  C   UNL     1      29.971  33.702  18.648  1.00  0.00     0.272 C 
ATOM      2  C   UNL     1      30.095  35.204  18.741  1.00  0.00     0.113 C 
ATOM      3  C   UNL     1      30.846  35.889  17.679  1.00  0.00     0.145 C 
ATOM      4  C   UNL     1      31.973  35.016  17.117  1.00  0.00     0.142 C 
ATOM      5  C   UNL     1      31.552  33.645  16.834  1.00  0.00     0.178 C 
ATOM      6  O   UNL     1      30.556  33.103  17.580  1.00  0.00    -0.332 OA
ENDROOT
BRANCH   1   7
ATOM      7  O   UNL     1      28.690  33.382  18.656  1.00  0.00    -0.338 OA
BRANCH   7   8
ATOM      8  C   UNL     1      27.777  32.619  19.025  1.00  0.00     0.199 C 
BRANCH   8   9
ATOM      9  C   UNL     1      26.974  31.662  18.190  1.00  0.00     0.179 C 
ATOM     10  C   UNL     1      26.066  31.428  16.141  1.00  0.00     0.282 C 
ATOM     11  O   UNL     1      27.129  32.054  16.807  1.00  0.00    -0.341 OA
ATOM     12  C   UNL     1      26.252  29.951  16.071  1.00  0.00     0.202 C 
ATOM     13  C   UNL     1      26.760  29.367  17.376  1.00  0.00     0.179 C 
ATOM     14  C   UNL     1      27.655  30.281  18.141  1.00  0.00     0.177 C 
BRANCH  10  15
ATOM     15  O   UNL     1      25.965  31.955  14.855  1.00  0.00    -0.341 OA
BRANCH  15  16
ATOM     16  C   UNL     1      24.811  32.668  14.662  1.00  0.00     0.184 C 
ATOM     17  C   UNL     1      24.163  32.379  13.358  1.00  0.00     0.178 C 
ATOM     18  O   UNL     1      23.048  33.145  13.107  1.00  0.00    -0.341 OA
ATOM     19  C   UNL     1      23.202  34.505  13.265  1.00  0.00     0.281 C 
ATOM     20  C   UNL     1      25.274  34.156  14.538  1.00  0.00     0.180 C 
ATOM     21  C   UNL     1      23.974  34.930  14.473  1.00  0.00     0.202 C 
BRANCH  17  22
ATOM     22  C   UNL     1      23.723  30.935  13.290  1.00  0.00     0.191 C 
BRANCH  22  23
ATOM     23  O   UNL     1      24.797  30.131  12.893  1.00  0.00    -0.394 OA
ATOM     24  H   UNL     1      25.276  30.483  12.124  1.00  0.00     0.210 HD
ENDBRANCH  22  23
ENDBRANCH  17  22
BRANCH  19  25
ATOM     25  O   UNL     1      21.905  35.037  13.424  1.00  0.00    -0.350 OA
BRANCH  25  26
ATOM     26  C   UNL     1      21.520  35.679  12.276  1.00  0.00     0.169 C 
BRANCH  26  27
ATOM     27  C   UNL     1      20.771  34.783  11.331  1.00  0.00     0.119 C 
BRANCH  27  28
ATOM     28  N   UNL     1      19.900  35.504  10.433  1.00  0.00    -0.092 NA
ATOM     29  N   UNL     1      19.749  35.075   9.280  1.00  0.00     0.001 N 
ATOM     30  N   UNL     1      19.584  34.799   8.070  1.00  0.00    -0.003 NA
ENDBRANCH  27  28
ENDBRANCH  26  27
ENDBRANCH  25  26
ENDBRANCH  19  25
BRANCH  20  31
ATOM     31  O   UNL     1      26.041  34.443  15.636  1.00  0.00    -0.387 OA
ATOM     32  H   UNL     1      26.779  33.780  15.762  1.00  0.00     0.211 HD
ENDBRANCH  20  31
BRANCH  21  33
ATOM     33  O   UNL     1      24.298  36.278  14.345  1.00  0.00    -0.385 OA
ATOM     34  H   UNL     1      25.082  36.441  14.946  1.00  0.00     0.211 HD
ENDBRANCH  21  33
ENDBRANCH  15  16
ENDBRANCH  10  15
BRANCH  12  35
ATOM     35  O   UNL     1      24.979  29.364  15.887  1.00  0.00    -0.385 OA
ATOM     36  H   UNL     1      24.374  30.104  15.635  1.00  0.00     0.211 HD
ENDBRANCH  12  35
BRANCH  13  37
ATOM     37  O   UNL     1      27.518  28.241  17.021  1.00  0.00    -0.387 OA
ATOM     38  H   UNL     1      28.289  28.096  17.602  1.00  0.00     0.211 HD
ENDBRANCH  13  37
BRANCH  14  39
ATOM     39  O   UNL     1      28.832  30.424  17.389  1.00  0.00    -0.387 OA
ATOM     40  H   UNL     1      28.761  30.013  16.506  1.00  0.00     0.211 HD
ENDBRANCH  14  39
ENDBRANCH   8   9
ENDBRANCH   7   8
ENDBRANCH   1   7
BRANCH   1  41
ATOM     41  C   UNL     1      30.701  33.157  19.848  1.00  0.00     0.364 C 
ATOM     42  O   UNL     1      31.055  33.930  20.802  1.00  0.00    -0.246 OA
BRANCH  41  43
ATOM     43  O   UNL     1      31.009  31.828  19.965  1.00  0.00    -0.477 OA
ATOM     44  H   UNL     1      31.249  31.484  20.909  1.00  0.00     0.296 HD
ENDBRANCH  41  43
ENDBRANCH   1  41
BRANCH   3  45
ATOM     45  O   UNL     1      29.996  36.242  16.642  1.00  0.00    -0.391 OA
ATOM     46  H   UNL     1      29.272  35.589  16.489  1.00  0.00     0.211 HD
ENDBRANCH   3  45
BRANCH   5  47
ATOM     47  C   UNL     1      31.086  33.393  15.415  1.00  0.00     0.176 C 
BRANCH  47  48
ATOM     48  O   UNL     1      31.654  32.117  15.089  1.00  0.00    -0.388 OA
ATOM     49  H   UNL     1      31.059  31.435  15.476  1.00  0.00     0.211 HD
ENDBRANCH  47  48
BRANCH  47  50
ATOM     50  C   UNL     1      29.645  33.248  15.154  1.00  0.00     0.165 C 
BRANCH  50  51
ATOM     51  O   UNL     1      29.516  31.807  14.937  1.00  0.00    -0.388 OA
ATOM     52  H   UNL     1      30.201  31.366  15.524  1.00  0.00     0.211 HD
ENDBRANCH  50  51
BRANCH  50  53
ATOM     53  C   UNL     1      29.084  33.825  13.907  1.00  0.00     0.154 C 
BRANCH  53  54
ATOM     54  N   UNL     1      28.641  35.181  13.958  1.00  0.00    -0.319 N 
ATOM     55  C   UNL     1      29.457  36.219  13.394  1.00  0.00     0.407 C 
ATOM     56  H   UNL     1      27.751  35.471  14.379  1.00  0.00     0.167 HD
ATOM     57  O   UNL     1      30.541  35.871  12.872  1.00  0.00    -0.225 OA
BRANCH  55  58
ATOM     58  O   UNL     1      29.104  37.537  13.402  1.00  0.00    -0.443 OA
BRANCH  58  59
ATOM     59  C   UNL     1      27.798  37.971  13.832  1.00  0.00     0.294 C 
BRANCH  59  60
ATOM     60  C   UNL     1      26.926  38.138  12.635  1.00  0.00     0.120 A 
ATOM     61  C   UNL     1      26.348  37.139  11.885  1.00  0.00     0.138 A 
ATOM     62  N   UNL     1      26.547  39.287  12.066  1.00  0.00    -0.132 NA
ATOM     63  N   UNL     1      25.627  37.697  10.872  1.00  0.00    -0.248 N 
ATOM     64  N   UNL     1      25.769  39.006  11.011  1.00  0.00    -0.067 NA
BRANCH  63  65
ATOM     65  C   UNL     1      24.887  36.990   9.868  1.00  0.00     0.181 C 
BRANCH  65  66
ATOM     66  C   UNL     1      25.830  36.379   8.902  1.00  0.00    -0.025 A 
ATOM     67  C   UNL     1      26.310  35.102   9.025  1.00  0.00     0.006 A 
ATOM     68  C   UNL     1      26.261  37.127   7.812  1.00  0.00     0.025 A 
ATOM     69  C   UNL     1      27.185  34.547   8.130  1.00  0.00     0.002 A 
ATOM     70  C   UNL     1      27.139  36.571   6.915  1.00  0.00     0.052 A 
ATOM     71  C   UNL     1      27.633  35.272   7.034  1.00  0.00     0.019 A 
BRANCH  70  72
ATOM     72  C   UNL     1      27.577  37.351   5.786  1.00  0.00     0.099 C 
ATOM     73  N   UNL     1      27.945  37.990   4.879  1.00  0.00    -0.192 NA
ENDBRANCH  70  72
ENDBRANCH  65  66
ENDBRANCH  63  65
ENDBRANCH  59  60
ENDBRANCH  58  59
ENDBRANCH  55  58
ENDBRANCH  53  54
ENDBRANCH  50  53
ENDBRANCH  47  50
ENDBRANCH   5  47
BRANCH   4  74
ATOM     74  N   UNL     1      33.146  35.167  17.977  1.00  0.00    -0.348 N 
ATOM     75  C   UNL     1      34.240  35.934  17.524  1.00  0.00     0.217 C 
ATOM     76  H   UNL     1      33.240  34.746  18.922  1.00  0.00     0.163 HD
ATOM     77  C   UNL     1      35.475  36.141  18.332  1.00  0.00     0.114 C 
ATOM     78  O   UNL     1      34.175  36.461  16.402  1.00  0.00    -0.275 OA
ENDBRANCH   4  74
TORSDOF 32
BEGIN_RES LYS A 131
REMARK  4 active torsions:
REMARK  status: ('A' for Active; 'I' for Inactive)
REMARK    1  A    between atoms: CA   and  CB  
REMARK    2  A    between atoms: CB   and  CG  
REMARK    3  A    between atoms: CG   and  CD  
REMARK    4  A    between atoms: CD   and  CE  
ROOT
ATOM      1  CA  LYS A 131      29.867  25.555  16.977  1.00 20.52     0.186 C 
ENDROOT
BRANCH   1   2
ATOM      2  CB  LYS A 131      28.345  25.722  17.026  1.00 20.94     0.034 C 
BRANCH   2   3
ATOM      3  CG  LYS A 131      27.601  24.401  16.904  1.00 22.96     0.005 C 
BRANCH   3   4
ATOM      4  CD  LYS A 131      26.532  24.254  17.951  1.00 24.33     0.041 C 
BRANCH   4   5
ATOM      5  CE  LYS A 131      25.159  24.327  17.289  1.00 26.91     0.338 C 
ATOM      6  NZ  LYS A 131      24.526  22.988  17.258  1.00 27.40     0.618 N 
ENDBRANCH   4   5
ENDBRANCH   3   4
ENDBRANCH   2   3
ENDBRANCH   1   2
END_RES LYS A 131
BEGIN_RES LYS A 135
REMARK  4 active torsions:
REMARK  status: ('A' for Active; 'I' for Inactive)
REMARK    5  A    between atoms: CA   and  CB  
REMARK    6  A    between atoms: CB   and  CG  
REMARK    7  A    between atoms: CG   and  CD  
REMARK    8  A    between atoms: CD   and  CE  
ROOT
ATOM      7  CA  LYS A 135      33.193  34.663   9.290  1.00 25.02     0.186 C 
ENDROOT
BRANCH   7   8
ATOM      8  CB  LYS A 135      32.060  35.360  10.034  1.00 26.63     0.034 C 
BRANCH   8   9
ATOM      9  CG  LYS A 135      30.761  35.380   9.271  1.00 29.45     0.005 C 
BRANCH   9  10
ATOM     10  CD  LYS A 135      30.386  36.803   8.886  1.00 32.00     0.041 C 
BRANCH  10  11
ATOM     11  CE  LYS A 135      29.411  37.387   9.891  1.00 34.25     0.338 C 
ATOM     12  NZ  LYS A 135      28.957  38.742   9.472  1.00 35.99     0.618 N 
ENDBRANCH  10  11
ENDBRANCH   9  10
ENDBRANCH   8   9
ENDBRANCH   7   8
END_RES LYS A 135
