REMARK VINA RESULT:    -4.100      3.162      7.764
REMARK INTER + INTRA:         -21.577
REMARK INTER:                  -8.656
REMARK INTRA:                 -12.921
REMARK UNBOUND:               -11.125
REMARK SMILES CC(=O)N[C@@H]1[C@@H](O)C[C@](OC[C@H]2O[C@@H](O[C@H]3[C@H](O)[C@@H](O)[C@H](OCCN=[N+]=[N-])O[C@@H]3CO)[C@H](O)[C@@H](O)[C@H]2O)(C(=O)O)O[C@H]1C(O)[C@H](O)CNC(=O)OCc1cn([C@@H](C)C(=O)O)nn1
REMARK SMILES IDX 9 1 8 2 6 3 5 4 42 5 41 6 10 7 11 8 12 9 14 10 13 11 32 12
REMARK SMILES IDX 34 13 36 14 15 15 16 16 29 17 28 18 21 19 17 20 19 21 30 22
REMARK SMILES IDX 31 23 22 25 23 26 24 27 25 28 26 29 27 30 18 31 20 33 33 35
REMARK SMILES IDX 35 37 37 39 38 41 39 42 40 43 7 45 43 47 44 48 45 50 46 51
REMARK SMILES IDX 47 53 48 54 49 55 50 57 51 58 52 59 53 60 54 61 62 62 55 63
REMARK SMILES IDX 61 64 56 65 57 66 58 67 59 68 60 69 4 71 2 72 1 74 3 75
REMARK H PARENT 31 24 18 32 20 34 33 36 35 38 37 40 40 44 7 46 44 49 46 52
REMARK H PARENT 48 56 60 70 4 73
REMARK Flexibility Score: inf
ROOT
ATOM      1  C   UNL     1      22.436  36.849   9.353  1.00  0.00     0.272 C 
ATOM      2  C   UNL     1      23.199  35.777   8.678  1.00  0.00     0.113 C 
ATOM      3  C   UNL     1      24.504  35.621   9.425  1.00  0.00     0.145 C 
ATOM      4  C   UNL     1      25.298  36.907   8.998  1.00  0.00     0.142 C 
ATOM      5  C   UNL     1      24.434  38.075   9.022  1.00  0.00     0.178 C 
ATOM      6  O   UNL     1      23.222  37.967   9.650  1.00  0.00    -0.332 OA
ENDROOT
BRANCH   1   7
ATOM      7  O   UNL     1      21.770  36.412  10.455  1.00  0.00    -0.338 OA
BRANCH   7   8
ATOM      8  C   UNL     1      20.820  35.469  10.326  1.00  0.00     0.199 C 
BRANCH   8   9
ATOM      9  C   UNL     1      20.828  34.502  11.536  1.00  0.00     0.179 C 
ATOM     10  C   UNL     1      22.331  33.433  12.923  1.00  0.00     0.282 C 
ATOM     11  O   UNL     1      22.131  34.402  11.945  1.00  0.00    -0.341 OA
ATOM     12  C   UNL     1      21.046  32.882  13.466  1.00  0.00     0.202 C 
ATOM     13  C   UNL     1      20.070  34.001  13.777  1.00  0.00     0.179 C 
ATOM     14  C   UNL     1      19.949  34.994  12.633  1.00  0.00     0.177 C 
BRANCH  10  15
ATOM     15  O   UNL     1      23.070  33.908  14.015  1.00  0.00    -0.341 OA
BRANCH  15  16
ATOM     16  C   UNL     1      23.613  32.871  14.759  1.00  0.00     0.184 C 
ATOM     17  C   UNL     1      24.112  33.383  16.073  1.00  0.00     0.178 C 
ATOM     18  O   UNL     1      25.504  33.358  16.158  1.00  0.00    -0.341 OA
ATOM     19  C   UNL     1      26.089  33.992  15.058  1.00  0.00     0.281 C 
ATOM     20  C   UNL     1      24.745  32.272  13.959  1.00  0.00     0.180 C 
ATOM     21  C   UNL     1      25.922  33.192  13.797  1.00  0.00     0.202 C 
BRANCH  17  22
ATOM     22  C   UNL     1      23.565  32.588  17.236  1.00  0.00     0.191 C 
BRANCH  22  23
ATOM     23  O   UNL     1      24.527  32.373  18.220  1.00  0.00    -0.394 OA
ATOM     24  H   UNL     1      24.114  31.952  19.002  1.00  0.00     0.210 HD
ENDBRANCH  22  23
ENDBRANCH  17  22
BRANCH  19  25
ATOM     25  O   UNL     1      27.439  34.098  15.343  1.00  0.00    -0.350 OA
BRANCH  25  26
ATOM     26  C   UNL     1      27.750  33.262  16.395  1.00  0.00     0.169 C 
BRANCH  26  27
ATOM     27  C   UNL     1      28.602  32.102  15.922  1.00  0.00     0.119 C 
BRANCH  27  28
ATOM     28  N   UNL     1      29.634  32.624  15.028  1.00  0.00    -0.092 NA
ATOM     29  N   UNL     1      30.710  33.052  15.448  1.00  0.00     0.001 N 
ATOM     30  N   UNL     1      31.816  33.221  15.927  1.00  0.00    -0.003 NA
ENDBRANCH  27  28
ENDBRANCH  26  27
ENDBRANCH  25  26
ENDBRANCH  19  25
BRANCH  20  31
ATOM     31  O   UNL     1      25.176  31.057  14.489  1.00  0.00    -0.387 OA
ATOM     32  H   UNL     1      25.590  31.137  15.376  1.00  0.00     0.211 HD
ENDBRANCH  20  31
BRANCH  21  33
ATOM     33  O   UNL     1      25.701  34.076  12.743  1.00  0.00    -0.385 OA
ATOM     34  H   UNL     1      26.091  33.739  11.904  1.00  0.00     0.211 HD
ENDBRANCH  21  33
ENDBRANCH  15  16
ENDBRANCH  10  15
BRANCH  12  35
ATOM     35  O   UNL     1      20.495  31.874  12.712  1.00  0.00    -0.385 OA
ATOM     36  H   UNL     1      19.589  32.155  12.371  1.00  0.00     0.211 HD
ENDBRANCH  12  35
BRANCH  13  37
ATOM     37  O   UNL     1      20.577  34.675  14.910  1.00  0.00    -0.387 OA
ATOM     38  H   UNL     1      19.940  34.616  15.670  1.00  0.00     0.211 HD
ENDBRANCH  13  37
BRANCH  14  39
ATOM     39  O   UNL     1      20.315  36.274  13.046  1.00  0.00    -0.387 OA
ATOM     40  H   UNL     1      19.759  36.947  12.573  1.00  0.00     0.211 HD
ENDBRANCH  14  39
ENDBRANCH   8   9
ENDBRANCH   7   8
ENDBRANCH   1   7
BRANCH   1  41
ATOM     41  C   UNL     1      21.457  37.387   8.370  1.00  0.00     0.364 C 
ATOM     42  O   UNL     1      20.837  38.431   8.617  1.00  0.00    -0.246 OA
BRANCH  41  43
ATOM     43  O   UNL     1      21.216  36.740   7.167  1.00  0.00    -0.477 OA
ATOM     44  H   UNL     1      20.274  36.738   6.748  1.00  0.00     0.296 HD
ENDBRANCH  41  43
ENDBRANCH   1  41
BRANCH   3  45
ATOM     45  O   UNL     1      24.244  35.799  10.779  1.00  0.00    -0.391 OA
ATOM     46  H   UNL     1      25.041  35.960  11.311  1.00  0.00     0.211 HD
ENDBRANCH   3  45
BRANCH   5  47
ATOM     47  C   UNL     1      25.060  39.374   9.504  1.00  0.00     0.176 C 
BRANCH  47  48
ATOM     48  O   UNL     1      26.188  39.003  10.322  1.00  0.00    -0.388 OA
ATOM     49  H   UNL     1      26.036  39.308  11.231  1.00  0.00     0.211 HD
ENDBRANCH  47  48
BRANCH  47  50
ATOM     50  C   UNL     1      24.191  40.154  10.470  1.00  0.00     0.165 C 
BRANCH  50  51
ATOM     51  O   UNL     1      23.121  40.792   9.924  1.00  0.00    -0.388 OA
ATOM     52  H   UNL     1      22.379  40.234   9.600  1.00  0.00     0.211 HD
ENDBRANCH  50  51
BRANCH  50  53
ATOM     53  C   UNL     1      24.995  40.940  11.448  1.00  0.00     0.154 C 
BRANCH  53  54
ATOM     54  N   UNL     1      25.350  40.304  12.661  1.00  0.00    -0.319 N 
ATOM     55  C   UNL     1      24.520  40.078  13.791  1.00  0.00     0.407 C 
ATOM     56  H   UNL     1      26.356  39.955  12.734  1.00  0.00     0.167 HD
ATOM     57  O   UNL     1      23.341  40.453  13.759  1.00  0.00    -0.225 OA
BRANCH  55  58
ATOM     58  O   UNL     1      25.045  39.436  14.925  1.00  0.00    -0.443 OA
BRANCH  58  59
ATOM     59  C   UNL     1      25.229  38.046  14.941  1.00  0.00     0.294 C 
BRANCH  59  60
ATOM     60  C   UNL     1      26.204  37.573  13.952  1.00  0.00     0.120 A 
ATOM     61  C   UNL     1      27.579  37.554  14.021  1.00  0.00     0.139 A 
ATOM     62  N   UNL     1      25.850  37.052  12.747  1.00  0.00    -0.132 NA
ATOM     63  N   UNL     1      28.016  37.028  12.876  1.00  0.00    -0.238 N 
ATOM     64  N   UNL     1      26.980  36.725  12.105  1.00  0.00    -0.066 NA
BRANCH  63  65
ATOM     65  C   UNL     1      29.404  36.820  12.517  1.00  0.00     0.215 C 
ATOM     66  C   UNL     1      30.279  37.705  13.348  1.00  0.00     0.046 C 
BRANCH  65  67
ATOM     67  C   UNL     1      29.799  35.402  12.691  1.00  0.00     0.328 C 
ATOM     68  O   UNL     1      31.021  35.118  12.714  1.00  0.00    -0.250 OA
BRANCH  67  69
ATOM     69  O   UNL     1      28.868  34.383  12.828  1.00  0.00    -0.480 OA
ATOM     70  H   UNL     1      29.070  33.542  13.356  1.00  0.00     0.296 HD
ENDBRANCH  67  69
ENDBRANCH  65  67
ENDBRANCH  63  65
ENDBRANCH  59  60
ENDBRANCH  58  59
ENDBRANCH  55  58
ENDBRANCH  53  54
ENDBRANCH  50  53
ENDBRANCH  47  50
ENDBRANCH   5  47
BRANCH   4  71
ATOM     71  N   UNL     1      25.946  36.609   7.735  1.00  0.00    -0.348 N 
ATOM     72  C   UNL     1      27.178  37.086   7.290  1.00  0.00     0.217 C 
ATOM     73  H   UNL     1      25.413  35.957   7.090  1.00  0.00     0.163 HD
ATOM     74  C   UNL     1      27.735  36.709   5.969  1.00  0.00     0.114 C 
ATOM     75  O   UNL     1      27.831  37.853   8.022  1.00  0.00    -0.275 OA
ENDBRANCH   4  71
TORSDOF 32
BEGIN_RES LYS A 131
REMARK  4 active torsions:
REMARK  status: ('A' for Active; 'I' for Inactive)
REMARK    1  A    between atoms: CA   and  CB  
REMARK    2  A    between atoms: CB   and  CG  
REMARK    3  A    between atoms: CG   and  CD  
REMARK    4  A    between atoms: CD   and  CE  
ROOT
ATOM      1  CA  LYS A 131      29.867  25.555  16.977  1.00 20.52     0.186 C 
ENDROOT
BRANCH   1   2
ATOM      2  CB  LYS A 131      28.345  25.722  17.026  1.00 20.94     0.034 C 
BRANCH   2   3
ATOM      3  CG  LYS A 131      27.599  24.476  16.574  1.00 22.96     0.005 C 
BRANCH   3   4
ATOM      4  CD  LYS A 131      27.060  23.686  17.735  1.00 24.33     0.041 C 
BRANCH   4   5
ATOM      5  CE  LYS A 131      25.789  24.349  18.255  1.00 26.91     0.338 C 
ATOM      6  NZ  LYS A 131      24.816  24.541  17.153  1.00 27.40     0.618 N 
ENDBRANCH   4   5
ENDBRANCH   3   4
ENDBRANCH   2   3
ENDBRANCH   1   2
END_RES LYS A 131
BEGIN_RES LYS A 135
REMARK  4 active torsions:
REMARK  status: ('A' for Active; 'I' for Inactive)
REMARK    5  A    between atoms: CA   and  CB  
REMARK    6  A    between atoms: CB   and  CG  
REMARK    7  A    between atoms: CG   and  CD  
REMARK    8  A    between atoms: CD   and  CE  
ROOT
ATOM      7  CA  LYS A 135      33.193  34.663   9.290  1.00 25.02     0.186 C 
ENDROOT
BRANCH   7   8
ATOM      8  CB  LYS A 135      32.060  35.360  10.034  1.00 26.63     0.034 C 
BRANCH   8   9
ATOM      9  CG  LYS A 135      30.794  35.484   9.225  1.00 29.45     0.005 C 
BRANCH   9  10
ATOM     10  CD  LYS A 135      30.136  34.124   9.048  1.00 32.00     0.041 C 
BRANCH  10  11
ATOM     11  CE  LYS A 135      28.678  34.286   8.660  1.00 34.25     0.338 C 
ATOM     12  NZ  LYS A 135      27.778  33.779   9.733  1.00 35.99     0.618 N 
ENDBRANCH  10  11
ENDBRANCH   9  10
ENDBRANCH   8   9
ENDBRANCH   7   8
END_RES LYS A 135
