REMARK VINA RESULT:    -7.717      3.459      7.077
REMARK INTER + INTRA:         -22.005
REMARK INTER:                 -12.351
REMARK INTRA:                  -9.654
REMARK UNBOUND:                -1.206
REMARK SMILES CC(=O)N[C@@H]1[C@@H](O)C[C@](OC[C@H]2O[C@@H](O[C@H]3[C@H](O)[C@@H](O)[C@H](OCCN=[N+]=[N-])O[C@@H]3CO)[C@H](O)[C@@H](O)[C@H]2O)(C(=O)O)O[C@H]1C(O)[C@H](O)CNC(=O)OCc1cn(C2CCc3ccccc3NC2=O)nn1
REMARK SMILES IDX 43 1 42 2 9 3 8 4 41 5 6 6 5 7 10 8 11 9 12 10 14 11 13 12
REMARK SMILES IDX 32 13 34 14 36 15 15 16 16 17 29 18 28 19 21 20 17 21 19 22
REMARK SMILES IDX 30 23 31 24 22 26 23 27 24 28 25 29 26 30 27 31 18 32 20 34
REMARK SMILES IDX 33 36 35 38 37 40 38 42 39 43 40 44 7 46 4 48 2 49 1 51 3 52
REMARK SMILES IDX 44 53 45 55 46 56 47 58 48 59 49 60 50 62 51 63 52 64 53 65
REMARK SMILES IDX 54 66 69 67 55 68 68 69 56 70 57 71 66 73 65 74 67 75 64 77
REMARK SMILES IDX 59 78 63 79 60 80 62 81 61 82 58 83
REMARK H PARENT 31 25 18 33 20 35 33 37 35 39 37 41 40 45 7 47 4 50 44 54
REMARK H PARENT 46 57 48 61 65 76
REMARK Flexibility Score: 90.00
ROOT
ATOM      1  C   UNL     1      32.209  36.733  14.185  1.00  0.00     0.176 C 
ENDROOT
BRANCH   1   2
ATOM      2  C   UNL     1      30.686  36.498  14.256  1.00  0.00     0.178 C 
ATOM      3  C   UNL     1      29.121  37.807  13.021  1.00  0.00     0.272 C 
ATOM      4  C   UNL     1      28.599  38.395  14.269  1.00  0.00     0.113 C 
ATOM      5  O   UNL     1      30.045  36.766  13.134  1.00  0.00    -0.332 OA
ATOM      6  C   UNL     1      29.625  38.468  15.349  1.00  0.00     0.145 C 
ATOM      7  C   UNL     1      30.172  37.062  15.552  1.00  0.00     0.142 C 
BRANCH   3   8
ATOM      8  O   UNL     1      29.673  38.673  12.144  1.00  0.00    -0.338 OA
BRANCH   8   9
ATOM      9  C   UNL     1      30.769  38.454  11.436  1.00  0.00     0.199 C 
BRANCH   9  10
ATOM     10  C   UNL     1      31.043  38.961  10.088  1.00  0.00     0.179 C 
ATOM     11  C   UNL     1      30.320  38.632   7.915  1.00  0.00     0.282 C 
ATOM     12  O   UNL     1      29.995  38.440   9.257  1.00  0.00    -0.341 OA
ATOM     13  C   UNL     1      31.364  39.638   7.634  1.00  0.00     0.202 C 
ATOM     14  C   UNL     1      31.483  40.786   8.577  1.00  0.00     0.179 C 
ATOM     15  C   UNL     1      30.846  40.465   9.905  1.00  0.00     0.177 C 
BRANCH  11  16
ATOM     16  O   UNL     1      29.122  38.824   7.196  1.00  0.00    -0.341 OA
BRANCH  16  17
ATOM     17  C   UNL     1      28.061  38.162   7.755  1.00  0.00     0.184 C 
ATOM     18  C   UNL     1      27.390  37.146   6.868  1.00  0.00     0.178 C 
ATOM     19  O   UNL     1      26.451  36.499   7.673  1.00  0.00    -0.341 OA
ATOM     20  C   UNL     1      25.321  37.278   7.870  1.00  0.00     0.281 C 
ATOM     21  C   UNL     1      26.977  39.133   8.199  1.00  0.00     0.180 C 
ATOM     22  C   UNL     1      25.604  38.749   7.783  1.00  0.00     0.202 C 
BRANCH  18  23
ATOM     23  C   UNL     1      28.358  36.082   6.392  1.00  0.00     0.191 C 
BRANCH  23  24
ATOM     24  O   UNL     1      29.253  36.580   5.448  1.00  0.00    -0.394 OA
ATOM     25  H   UNL     1      30.156  36.716   5.805  1.00  0.00     0.210 HD
ENDBRANCH  23  24
ENDBRANCH  18  23
BRANCH  20  26
ATOM     26  O   UNL     1      24.745  36.921   9.075  1.00  0.00    -0.350 OA
BRANCH  26  27
ATOM     27  C   UNL     1      23.459  36.437   8.909  1.00  0.00     0.169 C 
BRANCH  27  28
ATOM     28  C   UNL     1      22.409  37.147   9.702  1.00  0.00     0.119 C 
BRANCH  28  29
ATOM     29  N   UNL     1      21.578  37.926   8.800  1.00  0.00    -0.092 NA
ATOM     30  N   UNL     1      21.865  39.096   8.488  1.00  0.00     0.001 N 
ATOM     31  N   UNL     1      22.502  39.993   7.917  1.00  0.00    -0.003 NA
ENDBRANCH  28  29
ENDBRANCH  27  28
ENDBRANCH  26  27
ENDBRANCH  20  26
BRANCH  21  32
ATOM     32  O   UNL     1      27.069  39.408   9.572  1.00  0.00    -0.387 OA
ATOM     33  H   UNL     1      27.053  40.392   9.697  1.00  0.00     0.211 HD
ENDBRANCH  21  32
BRANCH  22  34
ATOM     34  O   UNL     1      25.283  39.206   6.483  1.00  0.00    -0.385 OA
ATOM     35  H   UNL     1      24.337  39.426   6.393  1.00  0.00     0.211 HD
ENDBRANCH  22  34
ENDBRANCH  16  17
ENDBRANCH  11  16
BRANCH  13  36
ATOM     36  O   UNL     1      32.587  39.002   7.399  1.00  0.00    -0.385 OA
ATOM     37  H   UNL     1      33.269  39.346   8.032  1.00  0.00     0.211 HD
ENDBRANCH  13  36
BRANCH  14  38
ATOM     38  O   UNL     1      31.023  41.987   8.040  1.00  0.00    -0.387 OA
ATOM     39  H   UNL     1      30.253  42.263   8.603  1.00  0.00     0.211 HD
ENDBRANCH  14  38
BRANCH  15  40
ATOM     40  O   UNL     1      29.457  40.740   9.848  1.00  0.00    -0.387 OA
ATOM     41  H   UNL     1      29.058  39.983   9.366  1.00  0.00     0.211 HD
ENDBRANCH  15  40
ENDBRANCH   9  10
ENDBRANCH   8   9
ENDBRANCH   3   8
BRANCH   3  42
ATOM     42  C   UNL     1      27.961  37.064  12.396  1.00  0.00     0.364 C 
ATOM     43  O   UNL     1      27.265  37.563  11.542  1.00  0.00    -0.246 OA
BRANCH  42  44
ATOM     44  O   UNL     1      27.673  35.760  12.811  1.00  0.00    -0.477 OA
ATOM     45  H   UNL     1      27.945  34.951  12.277  1.00  0.00     0.296 HD
ENDBRANCH  42  44
ENDBRANCH   3  42
BRANCH   6  46
ATOM     46  O   UNL     1      30.649  39.317  14.897  1.00  0.00    -0.391 OA
ATOM     47  H   UNL     1      31.285  39.551  15.592  1.00  0.00     0.211 HD
ENDBRANCH   6  46
BRANCH   7  48
ATOM     48  N   UNL     1      29.169  36.284  16.197  1.00  0.00    -0.348 N 
ATOM     49  C   UNL     1      29.171  36.124  17.611  1.00  0.00     0.217 C 
ATOM     50  H   UNL     1      28.411  35.810  15.651  1.00  0.00     0.163 HD
ATOM     51  C   UNL     1      28.146  35.320  18.331  1.00  0.00     0.114 C 
ATOM     52  O   UNL     1      30.068  36.684  18.252  1.00  0.00    -0.275 OA
ENDBRANCH   7  48
ENDBRANCH   1   2
BRANCH   1  53
ATOM     53  O   UNL     1      32.705  36.943  15.475  1.00  0.00    -0.388 OA
ATOM     54  H   UNL     1      32.260  36.394  16.159  1.00  0.00     0.211 HD
ENDBRANCH   1  53
BRANCH   1  55
ATOM     55  C   UNL     1      32.949  35.594  13.583  1.00  0.00     0.165 C 
BRANCH  55  56
ATOM     56  O   UNL     1      32.336  35.007  12.484  1.00  0.00    -0.388 OA
ATOM     57  H   UNL     1      31.439  34.691  12.773  1.00  0.00     0.211 HD
ENDBRANCH  55  56
BRANCH  55  58
ATOM     58  C   UNL     1      33.347  34.497  14.516  1.00  0.00     0.154 C 
BRANCH  58  59
ATOM     59  N   UNL     1      32.278  33.672  14.991  1.00  0.00    -0.319 N 
ATOM     60  C   UNL     1      31.764  33.713  16.308  1.00  0.00     0.407 C 
ATOM     61  H   UNL     1      31.849  32.996  14.327  1.00  0.00     0.167 HD
ATOM     62  O   UNL     1      32.234  34.504  17.162  1.00  0.00    -0.225 OA
BRANCH  60  63
ATOM     63  O   UNL     1      30.733  32.871  16.650  1.00  0.00    -0.443 OA
BRANCH  63  64
ATOM     64  C   UNL     1      30.527  31.627  16.077  1.00  0.00     0.294 C 
BRANCH  64  65
ATOM     65  C   UNL     1      29.098  31.321  15.998  1.00  0.00     0.120 A 
ATOM     66  C   UNL     1      28.062  32.216  16.110  1.00  0.00     0.139 A 
ATOM     67  N   UNL     1      28.505  30.118  15.806  1.00  0.00    -0.132 NA
ATOM     68  N   UNL     1      26.883  31.557  15.987  1.00  0.00    -0.240 N 
ATOM     69  N   UNL     1      27.192  30.290  15.805  1.00  0.00    -0.066 NA
BRANCH  68  70
ATOM     70  C   UNL     1      25.533  32.143  16.044  1.00  0.00     0.198 C 
BRANCH  70  71
ATOM     71  C   UNL     1      25.427  32.821  17.358  1.00  0.00     0.042 CG0
ATOM     72  G   UNL     1      24.286  33.760  17.544  1.00  0.00     0.000 G0
ENDBRANCH  70  71
BRANCH  70  73
ATOM     73  C   UNL     1      25.420  32.996  14.857  1.00  0.00     0.249 C 
ATOM     74  N   UNL     1      25.529  34.405  14.727  1.00  0.00    -0.324 N 
ATOM     75  O   UNL     1      25.189  32.376  13.783  1.00  0.00    -0.272 OA
ATOM     76  H   UNL     1      25.788  34.805  13.800  1.00  0.00     0.170 HD
BRANCH  74  77
ATOM     77  C   UNL     1      25.303  35.332  15.811  1.00  0.00     0.044 A 
ATOM     78  C   UNL     1      24.753  35.096  17.066  1.00  0.00    -0.024 A 
ATOM     79  C   UNL     1      25.713  36.606  15.483  1.00  0.00     0.026 A 
ATOM     80  C   UNL     1      24.608  36.103  17.991  1.00  0.00     0.006 A 
ATOM     81  C   UNL     1      25.578  37.636  16.394  1.00  0.00     0.002 A 
ATOM     82  C   UNL     1      25.022  37.367  17.649  1.00  0.00     0.000 A 
BRANCH  78  83
ATOM     83  C   UNL     1      24.281  33.755  17.515  1.00  0.00     0.040 CG0
ATOM     84  G   UNL     1      25.428  32.818  17.360  1.00  0.00     0.000 G0
ENDBRANCH  78  83
ENDBRANCH  74  77
ENDBRANCH  70  73
ENDBRANCH  68  70
ENDBRANCH  64  65
ENDBRANCH  63  64
ENDBRANCH  60  63
ENDBRANCH  58  59
ENDBRANCH  55  58
ENDBRANCH   1  55
TORSDOF 30
BEGIN_RES LYS A 131
REMARK  4 active torsions:
REMARK  status: ('A' for Active; 'I' for Inactive)
REMARK    1  A    between atoms: CA   and  CB  
REMARK    2  A    between atoms: CB   and  CG  
REMARK    3  A    between atoms: CG   and  CD  
REMARK    4  A    between atoms: CD   and  CE  
ROOT
ATOM      1  CA  LYS A 131      29.867  25.555  16.977  1.00 20.52     0.186 C 
ENDROOT
BRANCH   1   2
ATOM      2  CB  LYS A 131      28.345  25.722  17.026  1.00 20.94     0.034 C 
BRANCH   2   3
ATOM      3  CG  LYS A 131      27.614  24.410  17.265  1.00 22.96     0.005 C 
BRANCH   3   4
ATOM      4  CD  LYS A 131      26.122  24.593  17.311  1.00 24.33     0.041 C 
BRANCH   4   5
ATOM      5  CE  LYS A 131      25.445  23.230  17.416  1.00 26.91     0.338 C 
ATOM      6  NZ  LYS A 131      25.198  22.882  18.836  1.00 27.40     0.618 N 
ENDBRANCH   4   5
ENDBRANCH   3   4
ENDBRANCH   2   3
ENDBRANCH   1   2
END_RES LYS A 131
BEGIN_RES LYS A 135
REMARK  4 active torsions:
REMARK  status: ('A' for Active; 'I' for Inactive)
REMARK    5  A    between atoms: CA   and  CB  
REMARK    6  A    between atoms: CB   and  CG  
REMARK    7  A    between atoms: CG   and  CD  
REMARK    8  A    between atoms: CD   and  CE  
ROOT
ATOM      7  CA  LYS A 135      33.193  34.663   9.290  1.00 25.02     0.186 C 
ENDROOT
BRANCH   7   8
ATOM      8  CB  LYS A 135      32.060  35.360  10.034  1.00 26.63     0.034 C 
BRANCH   8   9
ATOM      9  CG  LYS A 135      30.730  35.267   9.331  1.00 29.45     0.005 C 
BRANCH   9  10
ATOM     10  CD  LYS A 135      29.684  34.643  10.242  1.00 32.00     0.041 C 
BRANCH  10  11
ATOM     11  CE  LYS A 135      28.672  33.858   9.430  1.00 34.25     0.338 C 
ATOM     12  NZ  LYS A 135      27.284  34.128   9.898  1.00 35.99     0.618 N 
ENDBRANCH  10  11
ENDBRANCH   9  10
ENDBRANCH   8   9
ENDBRANCH   7   8
END_RES LYS A 135
