REMARK VINA RESULT:    -5.165      3.111      6.154
REMARK INTER + INTRA:         -22.522
REMARK INTER:                 -13.601
REMARK INTRA:                  -8.921
REMARK UNBOUND:                -9.203
REMARK SMILES CC(=O)N[C@@H]1[C@@H](O)C[C@](OC[C@H]2O[C@@H](O[C@H]3[C@H](O)[C@@H](O)[C@H](OCCN=[N+]=[N-])O[C@@H]3CO)[C@H](O)[C@@H](O)[C@H]2O)(C(=O)O)O[C@H]1C(O)[C@H](O)CNC(=O)OCc1cn(Cc2ccc(C#N)cc2)nn1
REMARK SMILES IDX 9 1 8 2 6 3 5 4 42 5 41 6 10 7 11 8 12 9 14 10 13 11 32 12
REMARK SMILES IDX 34 13 36 14 15 15 16 16 29 17 28 18 21 19 17 20 19 21 30 22
REMARK SMILES IDX 31 23 22 25 23 26 24 27 25 28 26 29 27 30 18 31 20 33 33 35
REMARK SMILES IDX 35 37 37 39 38 41 39 42 40 43 7 45 43 47 44 48 45 50 46 51
REMARK SMILES IDX 47 53 48 54 49 55 50 57 51 58 52 59 53 60 54 61 66 62 55 63
REMARK SMILES IDX 65 64 56 65 57 66 58 67 64 68 59 69 63 70 60 71 61 72 62 73
REMARK SMILES IDX 4 74 2 75 1 77 3 78
REMARK H PARENT 31 24 18 32 20 34 33 36 35 38 37 40 40 44 7 46 44 49 46 52
REMARK H PARENT 48 56 4 76
REMARK Flexibility Score: inf
ROOT
ATOM      1  C   UNL     1      26.608  40.658   5.618  1.00  0.00     0.272 C 
ATOM      2  C   UNL     1      25.423  41.372   5.068  1.00  0.00     0.113 C 
ATOM      3  C   UNL     1      24.484  41.922   6.081  1.00  0.00     0.145 C 
ATOM      4  C   UNL     1      24.539  41.010   7.319  1.00  0.00     0.142 C 
ATOM      5  C   UNL     1      24.930  39.652   6.819  1.00  0.00     0.178 C 
ATOM      6  O   UNL     1      26.260  39.630   6.508  1.00  0.00    -0.332 OA
ENDROOT
BRANCH   1   7
ATOM      7  O   UNL     1      27.592  41.450   6.169  1.00  0.00    -0.338 OA
BRANCH   7   8
ATOM      8  C   UNL     1      28.283  40.885   7.187  1.00  0.00     0.199 C 
BRANCH   8   9
ATOM      9  C   UNL     1      29.748  40.605   6.807  1.00  0.00     0.179 C 
ATOM     10  C   UNL     1      31.877  41.078   7.561  1.00  0.00     0.282 C 
ATOM     11  O   UNL     1      30.522  41.389   7.663  1.00  0.00    -0.341 OA
ATOM     12  C   UNL     1      32.187  39.668   7.944  1.00  0.00     0.202 C 
ATOM     13  C   UNL     1      30.904  38.945   8.276  1.00  0.00     0.179 C 
ATOM     14  C   UNL     1      29.996  39.143   7.070  1.00  0.00     0.177 C 
BRANCH  10  15
ATOM     15  O   UNL     1      32.551  41.925   8.437  1.00  0.00    -0.341 OA
BRANCH  15  16
ATOM     16  C   UNL     1      33.262  42.934   7.789  1.00  0.00     0.184 C 
ATOM     17  C   UNL     1      33.715  42.452   6.458  1.00  0.00     0.178 C 
ATOM     18  O   UNL     1      34.992  41.974   6.387  1.00  0.00    -0.341 OA
ATOM     19  C   UNL     1      35.647  41.789   7.577  1.00  0.00     0.281 C 
ATOM     20  C   UNL     1      34.325  43.535   8.651  1.00  0.00     0.180 C 
ATOM     21  C   UNL     1      35.727  43.114   8.300  1.00  0.00     0.202 C 
BRANCH  17  22
ATOM     22  C   UNL     1      33.445  43.533   5.414  1.00  0.00     0.191 C 
BRANCH  22  23
ATOM     23  O   UNL     1      32.295  44.219   5.805  1.00  0.00    -0.394 OA
ATOM     24  H   UNL     1      31.512  43.594   5.888  1.00  0.00     0.210 HD
ENDBRANCH  22  23
ENDBRANCH  17  22
BRANCH  19  25
ATOM     25  O   UNL     1      36.963  41.403   7.247  1.00  0.00    -0.350 OA
BRANCH  25  26
ATOM     26  C   UNL     1      37.097  40.023   7.289  1.00  0.00     0.169 C 
BRANCH  26  27
ATOM     27  C   UNL     1      37.754  39.505   6.025  1.00  0.00     0.119 C 
BRANCH  27  28
ATOM     28  N   UNL     1      36.901  38.581   5.302  1.00  0.00    -0.092 NA
ATOM     29  N   UNL     1      35.718  38.834   5.143  1.00  0.00     0.001 N 
ATOM     30  N   UNL     1      34.664  39.084   4.539  1.00  0.00    -0.003 NA
ENDBRANCH  27  28
ENDBRANCH  26  27
ENDBRANCH  25  26
ENDBRANCH  19  25
BRANCH  20  31
ATOM     31  O   UNL     1      34.232  44.929   8.742  1.00  0.00    -0.387 OA
ATOM     32  H   UNL     1      33.731  45.290   7.953  1.00  0.00     0.211 HD
ENDBRANCH  20  31
BRANCH  21  33
ATOM     33  O   UNL     1      36.540  43.014   9.432  1.00  0.00    -0.385 OA
ATOM     34  H   UNL     1      36.767  42.053   9.534  1.00  0.00     0.211 HD
ENDBRANCH  21  33
ENDBRANCH  15  16
ENDBRANCH  10  15
BRANCH  12  35
ATOM     35  O   UNL     1      32.862  38.945   6.986  1.00  0.00    -0.385 OA
ATOM     36  H   UNL     1      32.886  39.461   6.131  1.00  0.00     0.211 HD
ENDBRANCH  12  35
BRANCH  13  37
ATOM     37  O   UNL     1      30.378  39.501   9.430  1.00  0.00    -0.387 OA
ATOM     38  H   UNL     1      31.044  39.763  10.103  1.00  0.00     0.211 HD
ENDBRANCH  13  37
BRANCH  14  39
ATOM     39  O   UNL     1      28.842  38.400   7.128  1.00  0.00    -0.387 OA
ATOM     40  H   UNL     1      28.068  38.992   7.242  1.00  0.00     0.211 HD
ENDBRANCH  14  39
ENDBRANCH   8   9
ENDBRANCH   7   8
ENDBRANCH   1   7
BRANCH   1  41
ATOM     41  C   UNL     1      27.219  39.910   4.468  1.00  0.00     0.364 C 
ATOM     42  O   UNL     1      27.564  40.515   3.447  1.00  0.00    -0.246 OA
BRANCH  41  43
ATOM     43  O   UNL     1      27.386  38.550   4.579  1.00  0.00    -0.477 OA
ATOM     44  H   UNL     1      26.951  37.875   3.963  1.00  0.00     0.296 HD
ENDBRANCH  41  43
ENDBRANCH   1  41
BRANCH   3  45
ATOM     45  O   UNL     1      24.623  43.245   6.390  1.00  0.00    -0.391 OA
ATOM     46  H   UNL     1      25.280  43.379   7.103  1.00  0.00     0.211 HD
ENDBRANCH   3  45
BRANCH   5  47
ATOM     47  C   UNL     1      24.564  38.525   7.793  1.00  0.00     0.176 C 
BRANCH  47  48
ATOM     48  O   UNL     1      23.496  37.845   7.162  1.00  0.00    -0.388 OA
ATOM     49  H   UNL     1      22.693  37.945   7.731  1.00  0.00     0.211 HD
ENDBRANCH  47  48
BRANCH  47  50
ATOM     50  C   UNL     1      25.674  37.592   7.994  1.00  0.00     0.165 C 
BRANCH  50  51
ATOM     51  O   UNL     1      26.041  36.960   6.767  1.00  0.00    -0.388 OA
ATOM     52  H   UNL     1      25.335  37.274   6.120  1.00  0.00     0.211 HD
ENDBRANCH  50  51
BRANCH  50  53
ATOM     53  C   UNL     1      25.527  36.567   9.047  1.00  0.00     0.154 C 
BRANCH  53  54
ATOM     54  N   UNL     1      26.103  36.695  10.312  1.00  0.00    -0.319 N 
ATOM     55  C   UNL     1      27.363  37.197  10.690  1.00  0.00     0.407 C 
ATOM     56  H   UNL     1      25.508  36.366  11.150  1.00  0.00     0.167 HD
ATOM     57  O   UNL     1      28.187  37.650   9.883  1.00  0.00    -0.225 OA
BRANCH  55  58
ATOM     58  O   UNL     1      27.758  37.214  12.037  1.00  0.00    -0.443 OA
BRANCH  58  59
ATOM     59  C   UNL     1      29.108  37.486  12.376  1.00  0.00     0.294 C 
BRANCH  59  60
ATOM     60  C   UNL     1      29.745  36.199  12.827  1.00  0.00     0.120 A 
ATOM     61  C   UNL     1      30.844  36.130  13.658  1.00  0.00     0.138 A 
ATOM     62  N   UNL     1      29.414  34.928  12.531  1.00  0.00    -0.132 NA
ATOM     63  N   UNL     1      31.146  34.818  13.841  1.00  0.00    -0.248 N 
ATOM     64  N   UNL     1      30.274  34.155  13.156  1.00  0.00    -0.067 NA
BRANCH  63  65
ATOM     65  C   UNL     1      32.271  34.383  14.654  1.00  0.00     0.181 C 
BRANCH  65  66
ATOM     66  C   UNL     1      31.653  33.543  15.744  1.00  0.00    -0.026 A 
ATOM     67  C   UNL     1      31.240  32.272  15.431  1.00  0.00     0.007 A 
ATOM     68  C   UNL     1      31.514  34.065  17.032  1.00  0.00     0.007 A 
ATOM     69  C   UNL     1      30.662  31.436  16.359  1.00  0.00     0.020 A 
ATOM     70  C   UNL     1      30.938  33.231  17.958  1.00  0.00     0.020 A 
ATOM     71  C   UNL     1      30.529  31.976  17.643  1.00  0.00     0.052 A 
BRANCH  71  72
ATOM     72  C   UNL     1      29.902  31.117  18.640  1.00  0.00     0.099 C 
ATOM     73  N   UNL     1      29.390  30.423  19.422  1.00  0.00    -0.192 NA
ENDBRANCH  71  72
ENDBRANCH  65  66
ENDBRANCH  63  65
ENDBRANCH  59  60
ENDBRANCH  58  59
ENDBRANCH  55  58
ENDBRANCH  53  54
ENDBRANCH  50  53
ENDBRANCH  47  50
ENDBRANCH   5  47
BRANCH   4  74
ATOM     74  N   UNL     1      23.283  41.057   8.024  1.00  0.00    -0.348 N 
ATOM     75  C   UNL     1      23.149  41.953   9.116  1.00  0.00     0.217 C 
ATOM     76  H   UNL     1      22.478  40.466   7.766  1.00  0.00     0.163 HD
ATOM     77  C   UNL     1      21.895  42.058   9.884  1.00  0.00     0.114 C 
ATOM     78  O   UNL     1      24.118  42.705   9.470  1.00  0.00    -0.275 OA
ENDBRANCH   4  74
TORSDOF 32
BEGIN_RES LYS A 131
REMARK  4 active torsions:
REMARK  status: ('A' for Active; 'I' for Inactive)
REMARK    1  A    between atoms: CA   and  CB  
REMARK    2  A    between atoms: CB   and  CG  
REMARK    3  A    between atoms: CG   and  CD  
REMARK    4  A    between atoms: CD   and  CE  
ROOT
ATOM      1  CA  LYS A 131      29.867  25.555  16.977  1.00 20.52     0.186 C 
ENDROOT
BRANCH   1   2
ATOM      2  CB  LYS A 131      28.345  25.722  17.026  1.00 20.94     0.034 C 
BRANCH   2   3
ATOM      3  CG  LYS A 131      27.604  24.394  16.999  1.00 22.96     0.005 C 
BRANCH   3   4
ATOM      4  CD  LYS A 131      26.200  24.518  17.524  1.00 24.33     0.041 C 
BRANCH   4   5
ATOM      5  CE  LYS A 131      25.795  23.215  18.206  1.00 26.91     0.338 C 
ATOM      6  NZ  LYS A 131      24.783  22.498  17.396  1.00 27.40     0.618 N 
ENDBRANCH   4   5
ENDBRANCH   3   4
ENDBRANCH   2   3
ENDBRANCH   1   2
END_RES LYS A 131
BEGIN_RES LYS A 135
REMARK  4 active torsions:
REMARK  status: ('A' for Active; 'I' for Inactive)
REMARK    5  A    between atoms: CA   and  CB  
REMARK    6  A    between atoms: CB   and  CG  
REMARK    7  A    between atoms: CG   and  CD  
REMARK    8  A    between atoms: CD   and  CE  
ROOT
ATOM      7  CA  LYS A 135      33.193  34.663   9.290  1.00 25.02     0.186 C 
ENDROOT
BRANCH   7   8
ATOM      8  CB  LYS A 135      32.060  35.360  10.034  1.00 26.63     0.034 C 
BRANCH   8   9
ATOM      9  CG  LYS A 135      30.801  35.503   9.218  1.00 29.45     0.005 C 
BRANCH   9  10
ATOM     10  CD  LYS A 135      30.134  34.151   9.019  1.00 32.00     0.041 C 
BRANCH  10  11
ATOM     11  CE  LYS A 135      28.678  34.327   8.633  1.00 34.25     0.338 C 
ATOM     12  NZ  LYS A 135      27.778  33.659   9.614  1.00 35.99     0.618 N 
ENDBRANCH  10  11
ENDBRANCH   9  10
ENDBRANCH   8   9
ENDBRANCH   7   8
END_RES LYS A 135
