REMARK VINA RESULT:    -5.498      2.204      3.373
REMARK INTER + INTRA:         -23.996
REMARK INTER:                 -12.682
REMARK INTRA:                 -11.314
REMARK UNBOUND:               -10.464
REMARK SMILES CC(=O)N[C@@H]1[C@@H](O)C[C@](OC[C@H]2O[C@@H](O[C@H]3[C@H](O)[C@@H](O)[C@H](OCCN=[N+]=[N-])O[C@@H]3CO)[C@H](O)[C@@H](O)[C@H]2O)(C(=O)O)O[C@H]1C(O)[C@H](O)CNC(=O)OCc1cn(-c2c3ccccc3nc3ccccc23)nn1
REMARK SMILES IDX 9 1 8 2 6 3 5 4 42 5 41 6 10 7 11 8 12 9 14 10 13 11 32 12
REMARK SMILES IDX 34 13 36 14 15 15 16 16 29 17 28 18 21 19 17 20 19 21 30 22
REMARK SMILES IDX 31 23 22 25 23 26 24 27 25 28 26 29 27 30 18 31 20 33 33 35
REMARK SMILES IDX 35 37 37 39 38 41 39 42 40 43 7 45 43 47 44 48 45 50 46 51
REMARK SMILES IDX 47 53 48 54 49 55 50 57 51 58 52 59 53 60 54 61 71 62 55 63
REMARK SMILES IDX 70 64 56 65 57 66 69 67 58 68 62 69 64 70 68 71 59 72 61 73
REMARK SMILES IDX 63 74 65 75 67 76 60 77 66 78 4 79 2 80 1 82 3 83
REMARK H PARENT 31 24 18 32 20 34 33 36 35 38 37 40 40 44 7 46 44 49 46 52
REMARK H PARENT 48 56 4 81
REMARK Flexibility Score: inf
ROOT
ATOM      1  C   UNL     1      30.717  34.231  15.876  1.00  0.00     0.272 C 
ATOM      2  C   UNL     1      31.979  34.095  14.890  1.00  0.00     0.113 C 
ATOM      3  C   UNL     1      31.557  34.847  13.681  1.00  0.00     0.145 C 
ATOM      4  C   UNL     1      31.119  36.273  13.941  1.00  0.00     0.142 C 
ATOM      5  C   UNL     1      30.580  36.511  15.289  1.00  0.00     0.178 C 
ATOM      6  O   UNL     1      30.720  35.521  16.202  1.00  0.00    -0.332 OA
ENDROOT
BRANCH   1   7
ATOM      7  O   UNL     1      31.205  33.478  16.947  1.00  0.00    -0.338 OA
BRANCH   7   8
ATOM      8  C   UNL     1      30.638  33.693  18.157  1.00  0.00     0.199 C 
BRANCH   8   9
ATOM      9  C   UNL     1      29.556  32.756  18.535  1.00  0.00     0.179 C 
ATOM     10  C   UNL     1      27.443  31.924  17.995  1.00  0.00     0.282 C 
ATOM     11  O   UNL     1      28.472  32.847  17.706  1.00  0.00    -0.341 OA
ATOM     12  C   UNL     1      27.623  31.189  19.256  1.00  0.00     0.202 C 
ATOM     13  C   UNL     1      28.985  30.539  19.347  1.00  0.00     0.179 C 
ATOM     14  C   UNL     1      30.045  31.309  18.631  1.00  0.00     0.177 C 
BRANCH  10  15
ATOM     15  O   UNL     1      27.234  31.100  16.897  1.00  0.00    -0.341 OA
BRANCH  15  16
ATOM     16  C   UNL     1      25.878  31.062  16.499  1.00  0.00     0.184 C 
ATOM     17  C   UNL     1      25.529  29.704  16.038  1.00  0.00     0.178 C 
ATOM     18  O   UNL     1      24.383  29.665  15.201  1.00  0.00    -0.341 OA
ATOM     19  C   UNL     1      24.709  30.373  14.051  1.00  0.00     0.281 C 
ATOM     20  C   UNL     1      25.806  32.085  15.355  1.00  0.00     0.180 C 
ATOM     21  C   UNL     1      24.618  31.851  14.464  1.00  0.00     0.202 C 
BRANCH  17  22
ATOM     22  C   UNL     1      25.231  28.775  17.205  1.00  0.00     0.191 C 
BRANCH  22  23
ATOM     23  O   UNL     1      26.356  28.242  17.780  1.00  0.00    -0.394 OA
ATOM     24  H   UNL     1      26.746  27.570  17.163  1.00  0.00     0.210 HD
ENDBRANCH  22  23
ENDBRANCH  17  22
BRANCH  19  25
ATOM     25  O   UNL     1      23.804  30.038  13.076  1.00  0.00    -0.350 OA
BRANCH  25  26
ATOM     26  C   UNL     1      22.519  29.785  13.545  1.00  0.00     0.169 C 
BRANCH  26  27
ATOM     27  C   UNL     1      21.455  30.348  12.628  1.00  0.00     0.119 C 
BRANCH  27  28
ATOM     28  N   UNL     1      21.680  31.787  12.546  1.00  0.00    -0.092 NA
ATOM     29  N   UNL     1      21.176  32.551  13.378  1.00  0.00     0.001 N 
ATOM     30  N   UNL     1      20.755  33.350  14.217  1.00  0.00    -0.003 NA
ENDBRANCH  27  28
ENDBRANCH  26  27
ENDBRANCH  25  26
ENDBRANCH  19  25
BRANCH  20  31
ATOM     31  O   UNL     1      25.847  33.371  15.870  1.00  0.00    -0.387 OA
ATOM     32  H   UNL     1      26.616  33.523  16.474  1.00  0.00     0.211 HD
ENDBRANCH  20  31
BRANCH  21  33
ATOM     33  O   UNL     1      24.695  32.679  13.367  1.00  0.00    -0.385 OA
ATOM     34  H   UNL     1      24.491  33.610  13.685  1.00  0.00     0.211 HD
ENDBRANCH  21  33
ENDBRANCH  15  16
ENDBRANCH  10  15
BRANCH  12  35
ATOM     35  O   UNL     1      27.353  32.011  20.360  1.00  0.00    -0.385 OA
ATOM     36  H   UNL     1      26.743  32.728  20.013  1.00  0.00     0.211 HD
ENDBRANCH  12  35
BRANCH  13  37
ATOM     37  O   UNL     1      28.864  29.231  18.839  1.00  0.00    -0.387 OA
ATOM     38  H   UNL     1      28.813  29.344  17.836  1.00  0.00     0.211 HD
ENDBRANCH  13  37
BRANCH  14  39
ATOM     39  O   UNL     1      30.372  30.781  17.399  1.00  0.00    -0.387 OA
ATOM     40  H   UNL     1      30.199  29.808  17.333  1.00  0.00     0.211 HD
ENDBRANCH  14  39
ENDBRANCH   8   9
ENDBRANCH   7   8
ENDBRANCH   1   7
BRANCH   1  41
ATOM     41  C   UNL     1      29.674  33.596  15.142  1.00  0.00     0.364 C 
ATOM     42  O   UNL     1      29.804  32.402  14.719  1.00  0.00    -0.246 OA
BRANCH  41  43
ATOM     43  O   UNL     1      28.438  34.161  14.810  1.00  0.00    -0.477 OA
ATOM     44  H   UNL     1      28.037  34.853  15.431  1.00  0.00     0.296 HD
ENDBRANCH  41  43
ENDBRANCH   1  41
BRANCH   3  45
ATOM     45  O   UNL     1      32.658  34.831  12.792  1.00  0.00    -0.391 OA
ATOM     46  H   UNL     1      33.366  34.246  13.168  1.00  0.00     0.211 HD
ENDBRANCH   3  45
BRANCH   5  47
ATOM     47  C   UNL     1      31.230  37.756  15.954  1.00  0.00     0.176 C 
BRANCH  47  48
ATOM     48  O   UNL     1      31.472  38.725  15.026  1.00  0.00    -0.388 OA
ATOM     49  H   UNL     1      32.449  38.891  14.846  1.00  0.00     0.211 HD
ENDBRANCH  47  48
BRANCH  47  50
ATOM     50  C   UNL     1      30.632  38.117  17.237  1.00  0.00     0.165 C 
BRANCH  50  51
ATOM     51  O   UNL     1      30.908  37.282  18.323  1.00  0.00    -0.388 OA
ATOM     52  H   UNL     1      31.876  37.093  18.404  1.00  0.00     0.211 HD
ENDBRANCH  50  51
BRANCH  50  53
ATOM     53  C   UNL     1      29.271  38.696  17.259  1.00  0.00     0.154 C 
BRANCH  53  54
ATOM     54  N   UNL     1      28.189  38.002  16.669  1.00  0.00    -0.319 N 
ATOM     55  C   UNL     1      27.647  36.784  17.129  1.00  0.00     0.407 C 
ATOM     56  H   UNL     1      27.729  38.440  15.785  1.00  0.00     0.167 HD
ATOM     57  O   UNL     1      28.069  36.145  18.105  1.00  0.00    -0.225 OA
BRANCH  55  58
ATOM     58  O   UNL     1      26.543  36.199  16.478  1.00  0.00    -0.443 OA
BRANCH  58  59
ATOM     59  C   UNL     1      25.364  36.920  16.166  1.00  0.00     0.294 C 
BRANCH  59  60
ATOM     60  C   UNL     1      24.785  36.396  14.895  1.00  0.00     0.121 A 
ATOM     61  C   UNL     1      25.081  36.771  13.602  1.00  0.00     0.144 A 
ATOM     62  N   UNL     1      23.840  35.452  14.776  1.00  0.00    -0.131 NA
ATOM     63  N   UNL     1      24.328  36.064  12.729  1.00  0.00    -0.219 N 
ATOM     64  N   UNL     1      23.580  35.269  13.477  1.00  0.00    -0.062 NA
BRANCH  63  65
ATOM     65  C   UNL     1      24.347  36.173  11.294  1.00  0.00     0.085 A 
ATOM     66  C   UNL     1      25.296  35.481  10.558  1.00  0.00     0.027 A 
ATOM     67  C   UNL     1      23.446  36.955  10.607  1.00  0.00     0.027 A 
ATOM     68  C   UNL     1      26.225  34.681  11.187  1.00  0.00     0.012 A 
ATOM     69  C   UNL     1      25.359  35.557   9.168  1.00  0.00     0.073 A 
ATOM     70  C   UNL     1      23.542  37.002   9.235  1.00  0.00     0.073 A 
ATOM     71  C   UNL     1      22.484  37.661  11.268  1.00  0.00     0.012 A 
ATOM     72  C   UNL     1      27.169  33.991  10.456  1.00  0.00     0.001 A 
ATOM     73  C   UNL     1      26.304  34.867   8.442  1.00  0.00     0.029 A 
ATOM     74  N   UNL     1      24.468  36.327   8.531  1.00  0.00    -0.248 NA
ATOM     75  C   UNL     1      22.657  37.775   8.512  1.00  0.00     0.029 A 
ATOM     76  C   UNL     1      21.606  38.430  10.515  1.00  0.00     0.001 A 
ATOM     77  C   UNL     1      27.231  34.068   9.067  1.00  0.00     0.002 A 
ATOM     78  C   UNL     1      21.666  38.507   9.141  1.00  0.00     0.002 A 
ENDBRANCH  63  65
ENDBRANCH  59  60
ENDBRANCH  58  59
ENDBRANCH  55  58
ENDBRANCH  53  54
ENDBRANCH  50  53
ENDBRANCH  47  50
ENDBRANCH   5  47
BRANCH   4  79
ATOM     79  N   UNL     1      30.241  36.696  12.873  1.00  0.00    -0.348 N 
ATOM     80  C   UNL     1      30.505  37.793  11.999  1.00  0.00     0.217 C 
ATOM     81  H   UNL     1      29.338  36.199  12.693  1.00  0.00     0.163 HD
ATOM     82  C   UNL     1      29.509  38.137  10.929  1.00  0.00     0.114 C 
ATOM     83  O   UNL     1      31.561  38.425  12.163  1.00  0.00    -0.275 OA
ENDBRANCH   4  79
TORSDOF 30
BEGIN_RES LYS A 131
REMARK  4 active torsions:
REMARK  status: ('A' for Active; 'I' for Inactive)
REMARK    1  A    between atoms: CA   and  CB  
REMARK    2  A    between atoms: CB   and  CG  
REMARK    3  A    between atoms: CG   and  CD  
REMARK    4  A    between atoms: CD   and  CE  
ROOT
ATOM      1  CA  LYS A 131      29.867  25.555  16.977  1.00 20.52     0.186 C 
ENDROOT
BRANCH   1   2
ATOM      2  CB  LYS A 131      28.345  25.722  17.026  1.00 20.94     0.034 C 
BRANCH   2   3
ATOM      3  CG  LYS A 131      27.602  24.397  16.945  1.00 22.96     0.005 C 
BRANCH   3   4
ATOM      4  CD  LYS A 131      26.492  24.307  17.954  1.00 24.33     0.041 C 
BRANCH   4   5
ATOM      5  CE  LYS A 131      25.302  23.579  17.339  1.00 26.91     0.338 C 
ATOM      6  NZ  LYS A 131      24.043  23.981  18.011  1.00 27.40     0.618 N 
ENDBRANCH   4   5
ENDBRANCH   3   4
ENDBRANCH   2   3
ENDBRANCH   1   2
END_RES LYS A 131
BEGIN_RES LYS A 135
REMARK  4 active torsions:
REMARK  status: ('A' for Active; 'I' for Inactive)
REMARK    5  A    between atoms: CA   and  CB  
REMARK    6  A    between atoms: CB   and  CG  
REMARK    7  A    between atoms: CG   and  CD  
REMARK    8  A    between atoms: CD   and  CE  
ROOT
ATOM      7  CA  LYS A 135      33.193  34.663   9.290  1.00 25.02     0.186 C 
ENDROOT
BRANCH   7   8
ATOM      8  CB  LYS A 135      32.060  35.360  10.034  1.00 26.63     0.034 C 
BRANCH   8   9
ATOM      9  CG  LYS A 135      30.689  34.977   9.540  1.00 29.45     0.005 C 
BRANCH   9  10
ATOM     10  CD  LYS A 135      30.753  34.496   8.098  1.00 32.00     0.041 C 
BRANCH  10  11
ATOM     11  CE  LYS A 135      29.736  35.230   7.246  1.00 34.25     0.338 C 
ATOM     12  NZ  LYS A 135      29.462  36.589   7.790  1.00 35.99     0.618 N 
ENDBRANCH  10  11
ENDBRANCH   9  10
ENDBRANCH   8   9
ENDBRANCH   7   8
END_RES LYS A 135
