REMARK VINA RESULT:    -5.165      0.000      0.000
REMARK INTER + INTRA:         -22.426
REMARK INTER:                 -12.504
REMARK INTRA:                  -9.922
REMARK UNBOUND:                -9.712
REMARK SMILES CC(=O)N[C@@H]1[C@@H](O)C[C@](OC[C@H]2O[C@@H](O[C@H]3[C@H](O)[C@@H](O)[C@H](OCCN=[N+]=[N-])O[C@@H]3CO)[C@H](O)[C@@H](O)[C@H]2O)(C(=O)O)O[C@H]1C(O)[C@H](O)CNC(=O)OCc1cn(C2CCCCC2)nn1
REMARK SMILES IDX 9 1 8 2 6 3 5 4 42 5 41 6 10 7 11 8 12 9 14 10 13 11 32 12
REMARK SMILES IDX 34 13 36 14 15 15 16 16 29 17 28 18 21 19 17 20 19 21 30 22
REMARK SMILES IDX 31 23 22 25 23 26 24 27 25 28 26 29 27 30 18 31 20 33 33 35
REMARK SMILES IDX 35 37 37 39 38 41 39 42 40 43 7 45 43 47 44 48 45 50 46 51
REMARK SMILES IDX 47 53 48 54 49 55 50 57 51 58 52 59 53 60 54 61 63 62 55 63
REMARK SMILES IDX 62 64 56 65 57 66 61 67 58 68 60 69 59 70 4 71 2 72 1 74
REMARK SMILES IDX 3 75
REMARK H PARENT 31 24 18 32 20 34 33 36 35 38 37 40 40 44 7 46 44 49 46 52
REMARK H PARENT 48 56 4 73
REMARK Flexibility Score: inf
ROOT
ATOM      1  C   UNL     1      28.386  32.871  17.203  1.00  0.00     0.272 C 
ATOM      2  C   UNL     1      29.568  32.526  18.184  1.00  0.00     0.113 C 
ATOM      3  C   UNL     1      29.878  31.064  18.090  1.00  0.00     0.145 C 
ATOM      4  C   UNL     1      28.653  30.233  18.363  1.00  0.00     0.142 C 
ATOM      5  C   UNL     1      27.402  30.812  17.801  1.00  0.00     0.178 C 
ATOM      6  O   UNL     1      27.329  32.073  17.428  1.00  0.00    -0.332 OA
ENDROOT
BRANCH   1   7
ATOM      7  O   UNL     1      28.935  32.712  16.007  1.00  0.00    -0.338 OA
BRANCH   7   8
ATOM      8  C   UNL     1      29.245  33.496  15.031  1.00  0.00     0.199 C 
BRANCH   8   9
ATOM      9  C   UNL     1      30.676  33.690  14.556  1.00  0.00     0.179 C 
ATOM     10  C   UNL     1      31.320  35.418  13.108  1.00  0.00     0.282 C 
ATOM     11  O   UNL     1      30.751  34.162  13.285  1.00  0.00    -0.341 OA
ATOM     12  C   UNL     1      32.659  35.452  13.742  1.00  0.00     0.202 C 
ATOM     13  C   UNL     1      32.673  34.959  15.169  1.00  0.00     0.179 C 
ATOM     14  C   UNL     1      31.296  34.617  15.596  1.00  0.00     0.177 C 
BRANCH  10  15
ATOM     15  O   UNL     1      30.397  36.337  13.451  1.00  0.00    -0.341 OA
BRANCH  15  16
ATOM     16  C   UNL     1      29.524  36.812  12.528  1.00  0.00     0.184 C 
ATOM     17  C   UNL     1      29.295  38.281  12.816  1.00  0.00     0.178 C 
ATOM     18  O   UNL     1      28.653  38.929  11.779  1.00  0.00    -0.341 OA
ATOM     19  C   UNL     1      27.867  38.120  11.001  1.00  0.00     0.281 C 
ATOM     20  C   UNL     1      28.149  36.181  12.598  1.00  0.00     0.180 C 
ATOM     21  C   UNL     1      27.212  37.043  11.784  1.00  0.00     0.202 C 
BRANCH  17  22
ATOM     22  C   UNL     1      30.525  39.001  13.288  1.00  0.00     0.191 C 
BRANCH  22  23
ATOM     23  O   UNL     1      31.503  38.853  12.303  1.00  0.00    -0.394 OA
ATOM     24  H   UNL     1      31.959  37.980  12.359  1.00  0.00     0.210 HD
ENDBRANCH  22  23
ENDBRANCH  17  22
BRANCH  19  25
ATOM     25  O   UNL     1      28.569  37.731   9.891  1.00  0.00    -0.350 OA
BRANCH  25  26
ATOM     26  C   UNL     1      29.238  38.758   9.244  1.00  0.00     0.169 C 
BRANCH  26  27
ATOM     27  C   UNL     1      29.801  38.369   7.904  1.00  0.00     0.119 C 
BRANCH  27  28
ATOM     28  N   UNL     1      30.973  39.183   7.653  1.00  0.00    -0.092 NA
ATOM     29  N   UNL     1      31.857  39.148   8.520  1.00  0.00     0.001 N 
ATOM     30  N   UNL     1      32.515  39.611   9.469  1.00  0.00    -0.003 NA
ENDBRANCH  27  28
ENDBRANCH  26  27
ENDBRANCH  25  26
ENDBRANCH  19  25
BRANCH  20  31
ATOM     31  O   UNL     1      28.102  34.901  12.103  1.00  0.00    -0.387 OA
ATOM     32  H   UNL     1      28.909  34.370  12.313  1.00  0.00     0.211 HD
ENDBRANCH  20  31
BRANCH  21  33
ATOM     33  O   UNL     1      26.360  37.679  12.721  1.00  0.00    -0.385 OA
ATOM     34  H   UNL     1      25.594  38.102  12.261  1.00  0.00     0.211 HD
ENDBRANCH  21  33
ENDBRANCH  15  16
ENDBRANCH  10  15
BRANCH  12  35
ATOM     35  O   UNL     1      33.461  34.539  13.010  1.00  0.00    -0.385 OA
ATOM     36  H   UNL     1      32.946  34.093  12.302  1.00  0.00     0.211 HD
ENDBRANCH  12  35
BRANCH  13  37
ATOM     37  O   UNL     1      33.217  35.930  16.033  1.00  0.00    -0.387 OA
ATOM     38  H   UNL     1      33.996  36.322  15.607  1.00  0.00     0.211 HD
ENDBRANCH  13  37
BRANCH  14  39
ATOM     39  O   UNL     1      30.484  35.654  15.964  1.00  0.00    -0.387 OA
ATOM     40  H   UNL     1      29.771  35.296  16.545  1.00  0.00     0.211 HD
ENDBRANCH  14  39
ENDBRANCH   8   9
ENDBRANCH   7   8
ENDBRANCH   1   7
BRANCH   1  41
ATOM     41  C   UNL     1      28.000  34.259  17.637  1.00  0.00     0.364 C 
ATOM     42  O   UNL     1      28.721  35.017  18.274  1.00  0.00    -0.246 OA
BRANCH  41  43
ATOM     43  O   UNL     1      26.726  34.759  17.302  1.00  0.00    -0.477 OA
ATOM     44  H   UNL     1      26.614  35.386  16.521  1.00  0.00     0.296 HD
ENDBRANCH  41  43
ENDBRANCH   1  41
BRANCH   3  45
ATOM     45  O   UNL     1      30.472  30.743  16.876  1.00  0.00    -0.391 OA
ATOM     46  H   UNL     1      29.764  30.346  16.291  1.00  0.00     0.211 HD
ENDBRANCH   3  45
BRANCH   5  47
ATOM     47  C   UNL     1      26.920  29.953  16.592  1.00  0.00     0.176 C 
BRANCH  47  48
ATOM     48  O   UNL     1      27.779  28.844  16.463  1.00  0.00    -0.388 OA
ATOM     49  H   UNL     1      28.511  28.877  17.110  1.00  0.00     0.211 HD
ENDBRANCH  47  48
BRANCH  47  50
ATOM     50  C   UNL     1      25.494  29.546  16.737  1.00  0.00     0.165 C 
BRANCH  50  51
ATOM     51  O   UNL     1      25.504  28.180  17.106  1.00  0.00    -0.388 OA
ATOM     52  H   UNL     1      24.646  27.900  17.479  1.00  0.00     0.211 HD
ENDBRANCH  50  51
BRANCH  50  53
ATOM     53  C   UNL     1      24.637  29.651  15.531  1.00  0.00     0.154 C 
BRANCH  53  54
ATOM     54  N   UNL     1      24.641  30.929  14.869  1.00  0.00    -0.319 N 
ATOM     55  C   UNL     1      24.345  31.092  13.489  1.00  0.00     0.407 C 
ATOM     56  H   UNL     1      24.863  31.778  15.417  1.00  0.00     0.167 HD
ATOM     57  O   UNL     1      24.064  30.091  12.784  1.00  0.00    -0.225 OA
BRANCH  55  58
ATOM     58  O   UNL     1      24.357  32.319  12.884  1.00  0.00    -0.443 OA
BRANCH  58  59
ATOM     59  C   UNL     1      25.168  33.418  13.223  1.00  0.00     0.294 C 
BRANCH  59  60
ATOM     60  C   UNL     1      24.487  34.662  12.803  1.00  0.00     0.120 A 
ATOM     61  C   UNL     1      24.092  34.894  11.516  1.00  0.00     0.138 A 
ATOM     62  N   UNL     1      24.144  35.736  13.522  1.00  0.00    -0.132 NA
ATOM     63  N   UNL     1      23.510  36.114  11.465  1.00  0.00    -0.249 N 
ATOM     64  N   UNL     1      23.556  36.604  12.702  1.00  0.00    -0.067 NA
BRANCH  63  65
ATOM     65  C   UNL     1      22.955  36.747  10.285  1.00  0.00     0.109 C 
ATOM     66  C   UNL     1      22.617  35.609   9.326  1.00  0.00     0.027 C 
ATOM     67  C   UNL     1      23.989  37.632   9.625  1.00  0.00     0.027 C 
ATOM     68  C   UNL     1      21.939  36.191   8.086  1.00  0.00     0.002 C 
ATOM     69  C   UNL     1      24.162  37.326   8.152  1.00  0.00     0.002 C 
ATOM     70  C   UNL     1      22.828  37.226   7.476  1.00  0.00     0.000 C 
ENDBRANCH  63  65
ENDBRANCH  59  60
ENDBRANCH  58  59
ENDBRANCH  55  58
ENDBRANCH  53  54
ENDBRANCH  50  53
ENDBRANCH  47  50
ENDBRANCH   5  47
BRANCH   4  71
ATOM     71  N   UNL     1      28.556  29.858  19.749  1.00  0.00    -0.348 N 
ATOM     72  C   UNL     1      28.023  28.644  20.213  1.00  0.00     0.217 C 
ATOM     73  H   UNL     1      28.900  30.513  20.523  1.00  0.00     0.163 HD
ATOM     74  C   UNL     1      27.966  28.311  21.678  1.00  0.00     0.114 C 
ATOM     75  O   UNL     1      27.578  27.797  19.440  1.00  0.00    -0.275 OA
ENDBRANCH   4  71
TORSDOF 30
BEGIN_RES LYS A 131
REMARK  4 active torsions:
REMARK  status: ('A' for Active; 'I' for Inactive)
REMARK    1  A    between atoms: CA   and  CB  
REMARK    2  A    between atoms: CB   and  CG  
REMARK    3  A    between atoms: CG   and  CD  
REMARK    4  A    between atoms: CD   and  CE  
ROOT
ATOM      1  CA  LYS A 131      29.867  25.555  16.977  1.00 20.52     0.186 C 
ENDROOT
BRANCH   1   2
ATOM      2  CB  LYS A 131      28.345  25.722  17.026  1.00 20.94     0.034 C 
BRANCH   2   3
ATOM      3  CG  LYS A 131      27.601  24.401  16.905  1.00 22.96     0.005 C 
BRANCH   3   4
ATOM      4  CD  LYS A 131      26.152  24.530  17.282  1.00 24.33     0.041 C 
BRANCH   4   5
ATOM      5  CE  LYS A 131      26.022  24.555  18.802  1.00 26.91     0.338 C 
ATOM      6  NZ  LYS A 131      25.028  23.554  19.254  1.00 27.40     0.618 N 
ENDBRANCH   4   5
ENDBRANCH   3   4
ENDBRANCH   2   3
ENDBRANCH   1   2
END_RES LYS A 131
BEGIN_RES LYS A 135
REMARK  4 active torsions:
REMARK  status: ('A' for Active; 'I' for Inactive)
REMARK    5  A    between atoms: CA   and  CB  
REMARK    6  A    between atoms: CB   and  CG  
REMARK    7  A    between atoms: CG   and  CD  
REMARK    8  A    between atoms: CD   and  CE  
ROOT
ATOM      7  CA  LYS A 135      33.193  34.663   9.290  1.00 25.02     0.186 C 
ENDROOT
BRANCH   7   8
ATOM      8  CB  LYS A 135      32.060  35.360  10.034  1.00 26.63     0.034 C 
BRANCH   8   9
ATOM      9  CG  LYS A 135      30.693  34.836   9.677  1.00 29.45     0.005 C 
BRANCH   9  10
ATOM     10  CD  LYS A 135      30.596  34.563   8.184  1.00 32.00     0.041 C 
BRANCH  10  11
ATOM     11  CE  LYS A 135      29.202  34.879   7.675  1.00 34.25     0.338 C 
ATOM     12  NZ  LYS A 135      28.165  34.472   8.663  1.00 35.99     0.618 N 
ENDBRANCH  10  11
ENDBRANCH   9  10
ENDBRANCH   8   9
ENDBRANCH   7   8
END_RES LYS A 135
