REMARK VINA RESULT:    -3.759      5.515     12.216
REMARK INTER + INTRA:         -23.794
REMARK INTER:                 -12.765
REMARK INTRA:                 -11.029
REMARK UNBOUND:               -13.881
REMARK SMILES CCOC(=O)c1cccc(-n2cc(COC(=O)NC[C@@H](O)C(O)[C@@H]3O[C@@](OC[C@H]4O[C@@H](O[C@H]5[C@H](O)[C@@H](O)[C@H](OCCN=[N+]=[N-])O[C@@H]5CO)[C@H](O)[C@@H](O)[C@H]4O)(C(=O)O)C[C@H](O)[C@H]3NC(C)=O)nn2)c1
REMARK SMILES IDX 22 1 24 2 26 3 58 4 25 5 59 6 61 7 27 8 28 9 29 10 31 11
REMARK SMILES IDX 30 12 49 13 51 14 53 15 32 16 33 17 46 18 45 19 38 20 34 21
REMARK SMILES IDX 36 22 47 23 48 24 39 26 40 27 41 28 42 29 43 30 44 31 35 32
REMARK SMILES IDX 37 34 50 36 52 38 54 40 55 42 56 43 57 44 60 46 62 48 63 49
REMARK SMILES IDX 64 51 65 52 23 53 20 55 21 56 19 58 18 59 16 60 17 62 15 63
REMARK SMILES IDX 14 64 13 65 12 66 66 67 11 68 67 69 10 70 68 71 9 72 6 73
REMARK SMILES IDX 8 74 7 75 4 76 5 77 3 78 2 79 1 80
REMARK H PARENT 48 25 35 33 37 35 50 37 52 39 54 41 57 45 60 47 62 50 23 54
REMARK H PARENT 21 57 18 61
REMARK Flexibility Score: inf
ROOT
ATOM      1  C   UNL     1      19.964  34.875   8.063  1.00  0.00     0.176 C 
ENDROOT
BRANCH   1   2
ATOM      2  C   UNL     1      18.931  34.713   9.097  1.00  0.00     0.178 C 
ATOM      3  C   UNL     1      16.593  35.048   9.202  1.00  0.00     0.272 C 
ATOM      4  C   UNL     1      16.884  34.531  10.574  1.00  0.00     0.113 C 
ATOM      5  O   UNL     1      17.870  35.564   8.777  1.00  0.00    -0.332 OA
ATOM      6  C   UNL     1      17.998  35.286  11.281  1.00  0.00     0.145 C 
ATOM      7  C   UNL     1      19.323  34.975  10.508  1.00  0.00     0.142 C 
BRANCH   3   8
ATOM      8  O   UNL     1      15.776  36.133   9.264  1.00  0.00    -0.338 OA
BRANCH   8   9
ATOM      9  C   UNL     1      15.580  37.027   8.326  1.00  0.00     0.199 C 
BRANCH   9  10
ATOM     10  C   UNL     1      16.127  38.388   8.251  1.00  0.00     0.179 C 
ATOM     11  C   UNL     1      17.853  39.778   8.999  1.00  0.00     0.282 C 
ATOM     12  O   UNL     1      17.001  38.675   9.237  1.00  0.00    -0.341 OA
ATOM     13  C   UNL     1      17.339  40.633   7.882  1.00  0.00     0.202 C 
ATOM     14  C   UNL     1      17.115  39.881   6.610  1.00  0.00     0.179 C 
ATOM     15  C   UNL     1      16.925  38.434   6.909  1.00  0.00     0.177 C 
BRANCH  11  16
ATOM     16  O   UNL     1      19.096  39.240   8.832  1.00  0.00    -0.341 OA
BRANCH  16  17
ATOM     17  C   UNL     1      20.129  39.706   9.570  1.00  0.00     0.184 C 
ATOM     18  C   UNL     1      21.183  40.237   8.635  1.00  0.00     0.178 C 
ATOM     19  O   UNL     1      22.259  40.782   9.337  1.00  0.00    -0.341 OA
ATOM     20  C   UNL     1      22.940  39.709   9.975  1.00  0.00     0.281 C 
ATOM     21  C   UNL     1      20.801  38.605  10.407  1.00  0.00     0.180 C 
ATOM     22  C   UNL     1      22.016  39.251  11.070  1.00  0.00     0.202 C 
BRANCH  18  23
ATOM     23  C   UNL     1      20.622  41.299   7.733  1.00  0.00     0.191 C 
BRANCH  23  24
ATOM     24  O   UNL     1      21.381  41.376   6.536  1.00  0.00    -0.394 OA
ATOM     25  H   UNL     1      21.508  40.471   6.152  1.00  0.00     0.210 HD
ENDBRANCH  23  24
ENDBRANCH  18  23
BRANCH  20  26
ATOM     26  O   UNL     1      24.146  40.179  10.410  1.00  0.00    -0.350 OA
BRANCH  26  27
ATOM     27  C   UNL     1      25.076  40.283   9.385  1.00  0.00     0.169 C 
BRANCH  27  28
ATOM     28  C   UNL     1      25.131  39.075   8.498  1.00  0.00     0.119 C 
BRANCH  28  29
ATOM     29  N   UNL     1      25.375  39.508   7.117  1.00  0.00    -0.092 NA
ATOM     30  N   UNL     1      24.679  40.432   6.675  1.00  0.00     0.001 N 
ATOM     31  N   UNL     1      24.241  41.490   6.181  1.00  0.00    -0.003 NA
ENDBRANCH  28  29
ENDBRANCH  27  28
ENDBRANCH  26  27
ENDBRANCH  20  26
BRANCH  21  32
ATOM     32  O   UNL     1      19.985  38.203  11.455  1.00  0.00    -0.387 OA
ATOM     33  H   UNL     1      20.117  38.846  12.193  1.00  0.00     0.211 HD
ENDBRANCH  21  32
BRANCH  22  34
ATOM     34  O   UNL     1      22.635  38.364  11.945  1.00  0.00    -0.385 OA
ATOM     35  H   UNL     1      23.218  38.823  12.622  1.00  0.00     0.211 HD
ENDBRANCH  22  34
ENDBRANCH  16  17
ENDBRANCH  11  16
BRANCH  13  36
ATOM     36  O   UNL     1      16.183  41.309   8.318  1.00  0.00    -0.385 OA
ATOM     37  H   UNL     1      15.358  40.894   7.979  1.00  0.00     0.211 HD
ENDBRANCH  13  36
BRANCH  14  38
ATOM     38  O   UNL     1      18.032  40.171   5.625  1.00  0.00    -0.387 OA
ATOM     39  H   UNL     1      18.387  39.304   5.293  1.00  0.00     0.211 HD
ENDBRANCH  14  38
BRANCH  15  40
ATOM     40  O   UNL     1      18.093  37.743   6.987  1.00  0.00    -0.387 OA
ATOM     41  H   UNL     1      18.407  37.724   7.925  1.00  0.00     0.211 HD
ENDBRANCH  15  40
ENDBRANCH   9  10
ENDBRANCH   8   9
ENDBRANCH   3   8
BRANCH   3  42
ATOM     42  C   UNL     1      16.188  34.057   8.215  1.00  0.00     0.364 C 
ATOM     43  O   UNL     1      15.467  33.088   8.496  1.00  0.00    -0.246 OA
BRANCH  42  44
ATOM     44  O   UNL     1      16.609  34.168   6.889  1.00  0.00    -0.477 OA
ATOM     45  H   UNL     1      17.547  34.380   6.619  1.00  0.00     0.296 HD
ENDBRANCH  42  44
ENDBRANCH   3  42
BRANCH   6  46
ATOM     46  O   UNL     1      17.779  36.632  11.129  1.00  0.00    -0.391 OA
ATOM     47  H   UNL     1      17.427  36.808  10.223  1.00  0.00     0.211 HD
ENDBRANCH   6  46
BRANCH   7  48
ATOM     48  N   UNL     1      19.903  33.827  11.165  1.00  0.00    -0.348 N 
ATOM     49  C   UNL     1      21.062  33.890  12.006  1.00  0.00     0.217 C 
ATOM     50  H   UNL     1      19.490  32.852  11.061  1.00  0.00     0.163 HD
ATOM     51  C   UNL     1      21.633  32.686  12.667  1.00  0.00     0.114 C 
ATOM     52  O   UNL     1      21.626  34.986  12.200  1.00  0.00    -0.275 OA
ENDBRANCH   7  48
ENDBRANCH   1   2
BRANCH   1  53
ATOM     53  O   UNL     1      19.543  34.828   6.762  1.00  0.00    -0.388 OA
ATOM     54  H   UNL     1      20.172  34.349   6.173  1.00  0.00     0.211 HD
ENDBRANCH   1  53
BRANCH   1  55
ATOM     55  C   UNL     1      20.975  35.973   8.274  1.00  0.00     0.165 C 
BRANCH  55  56
ATOM     56  O   UNL     1      20.844  36.958   7.291  1.00  0.00    -0.388 OA
ATOM     57  H   UNL     1      21.388  36.723   6.495  1.00  0.00     0.211 HD
ENDBRANCH  55  56
BRANCH  55  58
ATOM     58  C   UNL     1      22.377  35.500   8.512  1.00  0.00     0.154 C 
BRANCH  58  59
ATOM     59  N   UNL     1      22.929  36.020   9.743  1.00  0.00    -0.319 N 
ATOM     60  C   UNL     1      24.317  35.982  10.002  1.00  0.00     0.407 C 
ATOM     61  H   UNL     1      22.291  36.448  10.482  1.00  0.00     0.167 HD
ATOM     62  O   UNL     1      25.184  35.520   9.227  1.00  0.00    -0.225 OA
BRANCH  60  63
ATOM     63  O   UNL     1      24.823  36.480  11.219  1.00  0.00    -0.443 OA
BRANCH  63  64
ATOM     64  C   UNL     1      25.213  35.693  12.302  1.00  0.00     0.294 C 
BRANCH  64  65
ATOM     65  C   UNL     1      26.661  35.567  12.517  1.00  0.00     0.121 A 
ATOM     66  C   UNL     1      27.285  34.701  13.409  1.00  0.00     0.144 A 
ATOM     67  N   UNL     1      27.633  36.241  11.915  1.00  0.00    -0.131 NA
ATOM     68  N   UNL     1      28.599  34.894  13.305  1.00  0.00    -0.220 N 
ATOM     69  N   UNL     1      28.802  35.824  12.400  1.00  0.00    -0.062 NA
BRANCH  68  70
ATOM     70  C   UNL     1      29.592  34.210  14.039  1.00  0.00     0.067 A 
ATOM     71  C   UNL     1      29.297  33.068  14.779  1.00  0.00     0.044 A 
ATOM     72  C   UNL     1      30.897  34.626  14.052  1.00  0.00     0.028 A 
ATOM     73  C   UNL     1      30.227  32.365  15.496  1.00  0.00     0.062 A 
ATOM     74  C   UNL     1      31.869  33.942  14.765  1.00  0.00     0.003 A 
ATOM     75  C   UNL     1      31.542  32.817  15.486  1.00  0.00     0.016 A 
BRANCH  73  76
ATOM     76  C   UNL     1      29.851  31.186  16.247  1.00  0.00     0.338 C 
ATOM     77  O   UNL     1      29.052  30.369  15.749  1.00  0.00    -0.246 OA
BRANCH  76  78
ATOM     78  O   UNL     1      30.373  30.969  17.496  1.00  0.00    -0.462 OA
BRANCH  78  79
ATOM     79  C   UNL     1      29.654  31.143  18.695  1.00  0.00     0.230 C 
ATOM     80  C   UNL     1      30.607  31.464  19.826  1.00  0.00     0.049 C 
ENDBRANCH  78  79
ENDBRANCH  76  78
ENDBRANCH  73  76
ENDBRANCH  68  70
ENDBRANCH  64  65
ENDBRANCH  63  64
ENDBRANCH  60  63
ENDBRANCH  58  59
ENDBRANCH  55  58
ENDBRANCH   1  55
TORSDOF 33
BEGIN_RES LYS A 131
REMARK  4 active torsions:
REMARK  status: ('A' for Active; 'I' for Inactive)
REMARK    1  A    between atoms: CA   and  CB  
REMARK    2  A    between atoms: CB   and  CG  
REMARK    3  A    between atoms: CG   and  CD  
REMARK    4  A    between atoms: CD   and  CE  
ROOT
ATOM      1  CA  LYS A 131      29.867  25.555  16.977  1.00 20.52     0.186 C 
ENDROOT
BRANCH   1   2
ATOM      2  CB  LYS A 131      28.345  25.722  17.026  1.00 20.94     0.034 C 
BRANCH   2   3
ATOM      3  CG  LYS A 131      27.602  24.400  16.910  1.00 22.96     0.005 C 
BRANCH   3   4
ATOM      4  CD  LYS A 131      26.155  24.528  17.299  1.00 24.33     0.041 C 
BRANCH   4   5
ATOM      5  CE  LYS A 131      25.599  23.153  17.654  1.00 26.91     0.338 C 
ATOM      6  NZ  LYS A 131      25.374  23.046  19.115  1.00 27.40     0.618 N 
ENDBRANCH   4   5
ENDBRANCH   3   4
ENDBRANCH   2   3
ENDBRANCH   1   2
END_RES LYS A 131
BEGIN_RES LYS A 135
REMARK  4 active torsions:
REMARK  status: ('A' for Active; 'I' for Inactive)
REMARK    5  A    between atoms: CA   and  CB  
REMARK    6  A    between atoms: CB   and  CG  
REMARK    7  A    between atoms: CG   and  CD  
REMARK    8  A    between atoms: CD   and  CE  
ROOT
ATOM      7  CA  LYS A 135      33.193  34.663   9.290  1.00 25.02     0.186 C 
ENDROOT
BRANCH   7   8
ATOM      8  CB  LYS A 135      32.060  35.360  10.034  1.00 26.63     0.034 C 
BRANCH   8   9
ATOM      9  CG  LYS A 135      30.802  35.505   9.217  1.00 29.45     0.005 C 
BRANCH   9  10
ATOM     10  CD  LYS A 135      30.147  34.151   8.994  1.00 32.00     0.041 C 
BRANCH  10  11
ATOM     11  CE  LYS A 135      28.673  34.317   8.680  1.00 34.25     0.338 C 
ATOM     12  NZ  LYS A 135      27.829  33.572   9.655  1.00 35.99     0.618 N 
ENDBRANCH  10  11
ENDBRANCH   9  10
ENDBRANCH   8   9
ENDBRANCH   7   8
END_RES LYS A 135
