REMARK VINA RESULT:    -4.260      2.743      4.692
REMARK INTER + INTRA:         -22.181
REMARK INTER:                 -10.734
REMARK INTRA:                 -11.447
REMARK UNBOUND:               -11.447
REMARK SMILES CC(=O)N[C@@H]1[C@@H](O)C[C@](OC[C@H]2O[C@@H](O[C@H]3[C@H](O)[C@@H](O)[C@H](OCCN=[N+]=[N-])O[C@@H]3CO)[C@H](O)[C@@H](O)[C@H]2O)(C(=O)O)O[C@H]1C(O)[C@H](O)CNC(=O)OCc1cn(-c2ccccc2C(C)C)nn1
REMARK SMILES IDX 9 1 8 2 6 3 5 4 42 5 41 6 10 7 11 8 12 9 14 10 13 11 32 12
REMARK SMILES IDX 34 13 36 14 15 15 16 16 29 17 28 18 21 19 17 20 19 21 30 22
REMARK SMILES IDX 31 23 22 25 23 26 24 27 25 28 26 29 27 30 18 31 20 33 33 35
REMARK SMILES IDX 35 37 37 39 38 41 39 42 40 43 7 45 43 47 44 48 45 50 46 51
REMARK SMILES IDX 47 53 48 54 49 55 50 57 51 58 52 59 53 60 54 61 66 62 55 63
REMARK SMILES IDX 65 64 56 65 61 66 57 67 60 68 58 69 59 70 62 71 63 72 64 73
REMARK SMILES IDX 4 74 2 75 1 77 3 78
REMARK H PARENT 31 24 18 32 20 34 33 36 35 38 37 40 40 44 7 46 44 49 46 52
REMARK H PARENT 48 56 4 76
REMARK Flexibility Score: inf
ROOT
ATOM      1  C   UNL     1      24.117  36.697   9.247  1.00  0.00     0.272 C 
ATOM      2  C   UNL     1      24.286  37.446   7.946  1.00  0.00     0.113 C 
ATOM      3  C   UNL     1      24.987  38.758   8.261  1.00  0.00     0.145 C 
ATOM      4  C   UNL     1      23.988  39.613   9.060  1.00  0.00     0.142 C 
ATOM      5  C   UNL     1      23.471  38.773  10.166  1.00  0.00     0.178 C 
ATOM      6  O   UNL     1      24.264  37.643  10.305  1.00  0.00    -0.332 OA
ENDROOT
BRANCH   1   7
ATOM      7  O   UNL     1      25.116  35.822   9.471  1.00  0.00    -0.338 OA
BRANCH   7   8
ATOM      8  C   UNL     1      25.808  35.083   8.675  1.00  0.00     0.199 C 
BRANCH   8   9
ATOM      9  C   UNL     1      27.266  35.260   8.398  1.00  0.00     0.179 C 
ATOM     10  C   UNL     1      29.067  36.606   8.726  1.00  0.00     0.282 C 
ATOM     11  O   UNL     1      27.731  36.520   8.678  1.00  0.00    -0.341 OA
ATOM     12  C   UNL     1      29.846  35.458   8.100  1.00  0.00     0.202 C 
ATOM     13  C   UNL     1      29.420  34.127   8.659  1.00  0.00     0.179 C 
ATOM     14  C   UNL     1      28.065  34.277   9.285  1.00  0.00     0.177 C 
BRANCH  10  15
ATOM     15  O   UNL     1      29.651  36.900   9.921  1.00  0.00    -0.341 OA
BRANCH  15  16
ATOM     16  C   UNL     1      29.243  38.008  10.619  1.00  0.00     0.184 C 
ATOM     17  C   UNL     1      30.354  38.946  10.959  1.00  0.00     0.178 C 
ATOM     18  O   UNL     1      30.493  39.172  12.283  1.00  0.00    -0.341 OA
ATOM     19  C   UNL     1      29.435  39.606  13.020  1.00  0.00     0.281 C 
ATOM     20  C   UNL     1      28.377  37.745  11.782  1.00  0.00     0.180 C 
ATOM     21  C   UNL     1      28.110  39.068  12.479  1.00  0.00     0.202 C 
BRANCH  17  22
ATOM     22  C   UNL     1      30.240  40.307  10.253  1.00  0.00     0.191 C 
BRANCH  22  23
ATOM     23  O   UNL     1      29.713  40.063   8.965  1.00  0.00    -0.394 OA
ATOM     24  H   UNL     1      30.370  39.443   8.515  1.00  0.00     0.210 HD
ENDBRANCH  22  23
ENDBRANCH  17  22
BRANCH  19  25
ATOM     25  O   UNL     1      29.364  40.974  13.009  1.00  0.00    -0.350 OA
BRANCH  25  26
ATOM     26  C   UNL     1      29.376  41.631  14.199  1.00  0.00     0.169 C 
BRANCH  26  27
ATOM     27  C   UNL     1      28.382  42.710  14.416  1.00  0.00     0.119 C 
BRANCH  27  28
ATOM     28  N   UNL     1      27.273  42.607  13.529  1.00  0.00    -0.092 NA
ATOM     29  N   UNL     1      26.263  41.950  13.686  1.00  0.00     0.001 N 
ATOM     30  N   UNL     1      25.255  41.363  14.061  1.00  0.00    -0.003 NA
ENDBRANCH  27  28
ENDBRANCH  26  27
ENDBRANCH  25  26
ENDBRANCH  19  25
BRANCH  20  31
ATOM     31  O   UNL     1      27.127  37.216  11.466  1.00  0.00    -0.387 OA
ATOM     32  H   UNL     1      26.687  36.949  12.303  1.00  0.00     0.211 HD
ENDBRANCH  20  31
BRANCH  21  33
ATOM     33  O   UNL     1      27.248  38.889  13.563  1.00  0.00    -0.385 OA
ATOM     34  H   UNL     1      27.433  37.988  13.931  1.00  0.00     0.211 HD
ENDBRANCH  21  33
ENDBRANCH  15  16
ENDBRANCH  10  15
BRANCH  12  35
ATOM     35  O   UNL     1      29.649  35.508   6.730  1.00  0.00    -0.385 OA
ATOM     36  H   UNL     1      29.000  34.786   6.453  1.00  0.00     0.211 HD
ENDBRANCH  12  35
BRANCH  13  37
ATOM     37  O   UNL     1      30.372  33.698   9.595  1.00  0.00    -0.387 OA
ATOM     38  H   UNL     1      31.228  34.120   9.335  1.00  0.00     0.211 HD
ENDBRANCH  13  37
BRANCH  14  39
ATOM     39  O   UNL     1      28.185  34.861  10.529  1.00  0.00    -0.387 OA
ATOM     40  H   UNL     1      28.214  35.842  10.404  1.00  0.00     0.211 HD
ENDBRANCH  14  39
ENDBRANCH   8   9
ENDBRANCH   7   8
ENDBRANCH   1   7
BRANCH   1  41
ATOM     41  C   UNL     1      22.782  36.098   9.364  1.00  0.00     0.364 C 
ATOM     42  O   UNL     1      22.065  36.099   8.300  1.00  0.00    -0.246 OA
BRANCH  41  43
ATOM     43  O   UNL     1      22.186  35.535  10.460  1.00  0.00    -0.477 OA
ATOM     44  H   UNL     1      22.626  34.967  11.160  1.00  0.00     0.296 HD
ENDBRANCH  41  43
ENDBRANCH   1  41
BRANCH   3  45
ATOM     45  O   UNL     1      26.047  38.526   9.144  1.00  0.00    -0.391 OA
ATOM     46  H   UNL     1      26.337  39.407   9.488  1.00  0.00     0.211 HD
ENDBRANCH   3  45
BRANCH   5  47
ATOM     47  C   UNL     1      23.418  39.387  11.532  1.00  0.00     0.176 C 
BRANCH  47  48
ATOM     48  O   UNL     1      24.769  39.247  12.008  1.00  0.00    -0.388 OA
ATOM     49  H   UNL     1      25.082  38.443  11.483  1.00  0.00     0.211 HD
ENDBRANCH  47  48
BRANCH  47  50
ATOM     50  C   UNL     1      22.569  38.696  12.551  1.00  0.00     0.165 C 
BRANCH  50  51
ATOM     51  O   UNL     1      21.480  39.418  12.956  1.00  0.00    -0.388 OA
ATOM     52  H   UNL     1      20.686  39.003  12.530  1.00  0.00     0.211 HD
ENDBRANCH  50  51
BRANCH  50  53
ATOM     53  C   UNL     1      23.342  37.962  13.581  1.00  0.00     0.154 C 
BRANCH  53  54
ATOM     54  N   UNL     1      23.944  36.719  13.140  1.00  0.00    -0.319 N 
ATOM     55  C   UNL     1      23.228  35.498  13.166  1.00  0.00     0.407 C 
ATOM     56  H   UNL     1      24.924  36.669  12.787  1.00  0.00     0.167 HD
ATOM     57  O   UNL     1      22.047  35.392  13.566  1.00  0.00    -0.225 OA
BRANCH  55  58
ATOM     58  O   UNL     1      23.792  34.273  12.734  1.00  0.00    -0.443 OA
BRANCH  58  59
ATOM     59  C   UNL     1      24.362  33.403  13.663  1.00  0.00     0.294 C 
BRANCH  59  60
ATOM     60  C   UNL     1      25.804  33.748  13.812  1.00  0.00     0.121 A 
ATOM     61  C   UNL     1      26.741  33.307  14.720  1.00  0.00     0.144 A 
ATOM     62  N   UNL     1      26.501  34.623  13.020  1.00  0.00    -0.131 NA
ATOM     63  N   UNL     1      27.937  33.875  14.496  1.00  0.00    -0.220 N 
ATOM     64  N   UNL     1      27.747  34.679  13.441  1.00  0.00    -0.062 NA
BRANCH  63  65
ATOM     65  C   UNL     1      29.170  33.697  15.185  1.00  0.00     0.070 A 
ATOM     66  C   UNL     1      29.569  34.638  16.110  1.00  0.00    -0.020 A 
ATOM     67  C   UNL     1      30.010  32.627  14.971  1.00  0.00     0.029 A 
ATOM     68  C   UNL     1      30.764  34.508  16.789  1.00  0.00     0.006 A 
ATOM     69  C   UNL     1      31.209  32.482  15.644  1.00  0.00     0.002 A 
ATOM     70  C   UNL     1      31.593  33.435  16.566  1.00  0.00     0.000 A 
BRANCH  66  71
ATOM     71  C   UNL     1      28.692  35.796  16.377  1.00  0.00     0.015 C 
ATOM     72  C   UNL     1      29.357  37.035  15.797  1.00  0.00     0.012 C 
ATOM     73  C   UNL     1      28.570  36.001  17.896  1.00  0.00     0.012 C 
ENDBRANCH  66  71
ENDBRANCH  63  65
ENDBRANCH  59  60
ENDBRANCH  58  59
ENDBRANCH  55  58
ENDBRANCH  53  54
ENDBRANCH  50  53
ENDBRANCH  47  50
ENDBRANCH   5  47
BRANCH   4  74
ATOM     74  N   UNL     1      22.959  40.031   8.136  1.00  0.00    -0.348 N 
ATOM     75  C   UNL     1      22.678  41.360   7.785  1.00  0.00     0.217 C 
ATOM     76  H   UNL     1      22.361  39.272   7.690  1.00  0.00     0.163 HD
ATOM     77  C   UNL     1      21.568  41.630   6.810  1.00  0.00     0.114 C 
ATOM     78  O   UNL     1      23.329  42.297   8.266  1.00  0.00    -0.275 OA
ENDBRANCH   4  74
TORSDOF 31
BEGIN_RES LYS A 131
REMARK  4 active torsions:
REMARK  status: ('A' for Active; 'I' for Inactive)
REMARK    1  A    between atoms: CA   and  CB  
REMARK    2  A    between atoms: CB   and  CG  
REMARK    3  A    between atoms: CG   and  CD  
REMARK    4  A    between atoms: CD   and  CE  
ROOT
ATOM      1  CA  LYS A 131      29.867  25.555  16.977  1.00 20.52     0.186 C 
ENDROOT
BRANCH   1   2
ATOM      2  CB  LYS A 131      28.345  25.722  17.026  1.00 20.94     0.034 C 
BRANCH   2   3
ATOM      3  CG  LYS A 131      27.830  26.039  18.422  1.00 22.96     0.005 C 
BRANCH   3   4
ATOM      4  CD  LYS A 131      26.556  25.304  18.735  1.00 24.33     0.041 C 
BRANCH   4   5
ATOM      5  CE  LYS A 131      26.589  23.926  18.084  1.00 26.91     0.338 C 
ATOM      6  NZ  LYS A 131      25.335  23.675  17.335  1.00 27.40     0.618 N 
ENDBRANCH   4   5
ENDBRANCH   3   4
ENDBRANCH   2   3
ENDBRANCH   1   2
END_RES LYS A 131
BEGIN_RES LYS A 135
REMARK  4 active torsions:
REMARK  status: ('A' for Active; 'I' for Inactive)
REMARK    5  A    between atoms: CA   and  CB  
REMARK    6  A    between atoms: CB   and  CG  
REMARK    7  A    between atoms: CG   and  CD  
REMARK    8  A    between atoms: CD   and  CE  
ROOT
ATOM      7  CA  LYS A 135      33.193  34.663   9.290  1.00 25.02     0.186 C 
ENDROOT
BRANCH   7   8
ATOM      8  CB  LYS A 135      32.060  35.360  10.034  1.00 26.63     0.034 C 
BRANCH   8   9
ATOM      9  CG  LYS A 135      32.496  36.014  11.320  1.00 29.45     0.005 C 
BRANCH   9  10
ATOM     10  CD  LYS A 135      31.656  35.517  12.486  1.00 32.00     0.041 C 
BRANCH  10  11
ATOM     11  CE  LYS A 135      32.354  35.798  13.803  1.00 34.25     0.338 C 
ATOM     12  NZ  LYS A 135      33.536  34.910  13.985  1.00 35.99     0.618 N 
ENDBRANCH  10  11
ENDBRANCH   9  10
ENDBRANCH   8   9
ENDBRANCH   7   8
END_RES LYS A 135
