REMARK VINA RESULT:    -4.277      3.058      7.488
REMARK INTER + INTRA:         -21.133
REMARK INTER:                  -9.575
REMARK INTRA:                 -11.558
REMARK UNBOUND:               -10.230
REMARK SMILES CC(=O)N[C@@H]1[C@@H](O)C[C@](OC[C@H]2O[C@@H](O[C@H]3[C@H](O)[C@@H](O)[C@H](OCCN=[N+]=[N-])O[C@@H]3CO)[C@H](O)[C@@H](O)[C@H]2O)(C(=O)O)O[C@H]1C(O)[C@H](O)CNC(=O)OCc1cn(C(C)(C)CO)nn1
REMARK SMILES IDX 9 1 8 2 6 3 5 4 42 5 41 6 10 7 11 8 12 9 14 10 13 11 32 12
REMARK SMILES IDX 34 13 36 14 15 15 16 16 29 17 28 18 21 19 17 20 19 21 30 22
REMARK SMILES IDX 31 23 22 25 23 26 24 27 25 28 26 29 27 30 18 31 20 33 33 35
REMARK SMILES IDX 35 37 37 39 38 41 39 42 40 43 7 45 43 47 44 48 45 50 46 51
REMARK SMILES IDX 47 53 48 54 49 55 50 57 51 58 52 59 53 60 54 61 62 62 55 63
REMARK SMILES IDX 61 64 56 65 57 66 58 67 59 68 60 69 4 71 2 72 1 74 3 75
REMARK H PARENT 31 24 18 32 20 34 33 36 35 38 37 40 40 44 7 46 44 49 46 52
REMARK H PARENT 48 56 60 70 4 73
REMARK Flexibility Score: inf
ROOT
ATOM      1  C   UNL     1      26.712  31.260  16.567  1.00  0.00     0.272 C 
ATOM      2  C   UNL     1      26.572  32.440  17.491  1.00  0.00     0.113 C 
ATOM      3  C   UNL     1      27.192  33.635  16.808  1.00  0.00     0.145 C 
ATOM      4  C   UNL     1      28.715  33.364  16.829  1.00  0.00     0.142 C 
ATOM      5  C   UNL     1      28.917  32.017  16.203  1.00  0.00     0.178 C 
ATOM      6  O   UNL     1      27.771  31.519  15.616  1.00  0.00    -0.332 OA
ENDROOT
BRANCH   1   7
ATOM      7  O   UNL     1      25.642  31.058  15.757  1.00  0.00    -0.338 OA
BRANCH   7   8
ATOM      8  C   UNL     1      24.394  31.346  16.086  1.00  0.00     0.199 C 
BRANCH   8   9
ATOM      9  C   UNL     1      23.394  31.961  15.196  1.00  0.00     0.179 C 
ATOM     10  C   UNL     1      23.137  33.791  13.816  1.00  0.00     0.282 C 
ATOM     11  O   UNL     1      24.054  32.975  14.423  1.00  0.00    -0.341 OA
ATOM     12  C   UNL     1      21.763  33.244  13.657  1.00  0.00     0.202 C 
ATOM     13  C   UNL     1      21.712  31.745  13.461  1.00  0.00     0.179 C 
ATOM     14  C   UNL     1      22.862  31.039  14.105  1.00  0.00     0.177 C 
BRANCH  10  15
ATOM     15  O   UNL     1      23.698  34.245  12.619  1.00  0.00    -0.341 OA
BRANCH  15  16
ATOM     16  C   UNL     1      24.884  34.923  12.783  1.00  0.00     0.184 C 
ATOM     17  C   UNL     1      24.737  36.427  12.714  1.00  0.00     0.178 C 
ATOM     18  O   UNL     1      25.688  37.037  11.923  1.00  0.00    -0.341 OA
ATOM     19  C   UNL     1      25.689  36.680  10.602  1.00  0.00     0.281 C 
ATOM     20  C   UNL     1      25.782  34.486  11.610  1.00  0.00     0.180 C 
ATOM     21  C   UNL     1      25.232  35.250  10.420  1.00  0.00     0.202 C 
BRANCH  17  22
ATOM     22  C   UNL     1      24.965  36.931  14.134  1.00  0.00     0.191 C 
BRANCH  22  23
ATOM     23  O   UNL     1      26.086  36.302  14.678  1.00  0.00    -0.394 OA
ATOM     24  H   UNL     1      26.772  36.085  14.019  1.00  0.00     0.210 HD
ENDBRANCH  22  23
ENDBRANCH  17  22
BRANCH  19  25
ATOM     25  O   UNL     1      26.965  36.895  10.112  1.00  0.00    -0.350 OA
BRANCH  25  26
ATOM     26  C   UNL     1      27.084  37.876   9.178  1.00  0.00     0.169 C 
BRANCH  26  27
ATOM     27  C   UNL     1      28.268  38.804   9.398  1.00  0.00     0.119 C 
BRANCH  27  28
ATOM     28  N   UNL     1      29.457  38.299   8.740  1.00  0.00    -0.092 NA
ATOM     29  N   UNL     1      29.705  38.728   7.604  1.00  0.00     0.001 N 
ATOM     30  N   UNL     1      30.234  39.343   6.652  1.00  0.00    -0.003 NA
ENDBRANCH  27  28
ENDBRANCH  26  27
ENDBRANCH  25  26
ENDBRANCH  19  25
BRANCH  20  31
ATOM     31  O   UNL     1      27.069  34.909  11.957  1.00  0.00    -0.387 OA
ATOM     32  H   UNL     1      27.638  34.096  11.900  1.00  0.00     0.211 HD
ENDBRANCH  20  31
BRANCH  21  33
ATOM     33  O   UNL     1      23.831  35.248  10.541  1.00  0.00    -0.385 OA
ATOM     34  H   UNL     1      23.427  34.678   9.820  1.00  0.00     0.211 HD
ENDBRANCH  21  33
ENDBRANCH  15  16
ENDBRANCH  10  15
BRANCH  12  35
ATOM     35  O   UNL     1      20.859  33.658  14.637  1.00  0.00    -0.385 OA
ATOM     36  H   UNL     1      21.193  33.318  15.491  1.00  0.00     0.211 HD
ENDBRANCH  12  35
BRANCH  13  37
ATOM     37  O   UNL     1      21.617  31.419  12.097  1.00  0.00    -0.387 OA
ATOM     38  H   UNL     1      21.850  30.465  11.944  1.00  0.00     0.211 HD
ENDBRANCH  13  37
BRANCH  14  39
ATOM     39  O   UNL     1      23.878  30.948  13.126  1.00  0.00    -0.387 OA
ATOM     40  H   UNL     1      24.757  31.019  13.552  1.00  0.00     0.211 HD
ENDBRANCH  14  39
ENDBRANCH   8   9
ENDBRANCH   7   8
ENDBRANCH   1   7
BRANCH   1  41
ATOM     41  C   UNL     1      27.186  30.057  17.248  1.00  0.00     0.364 C 
ATOM     42  O   UNL     1      27.357  28.985  16.662  1.00  0.00    -0.246 OA
BRANCH  41  43
ATOM     43  O   UNL     1      27.477  30.038  18.624  1.00  0.00    -0.477 OA
ATOM     44  H   UNL     1      27.448  29.137  19.087  1.00  0.00     0.296 HD
ENDBRANCH  41  43
ENDBRANCH   1  41
BRANCH   3  45
ATOM     45  O   UNL     1      26.842  33.574  15.458  1.00  0.00    -0.391 OA
ATOM     46  H   UNL     1      26.802  32.649  15.140  1.00  0.00     0.211 HD
ENDBRANCH   3  45
BRANCH   5  47
ATOM     47  C   UNL     1      29.866  32.248  15.013  1.00  0.00     0.176 C 
BRANCH  47  48
ATOM     48  O   UNL     1      31.158  31.804  15.387  1.00  0.00    -0.388 OA
ATOM     49  H   UNL     1      31.833  32.052  14.733  1.00  0.00     0.211 HD
ENDBRANCH  47  48
BRANCH  47  50
ATOM     50  C   UNL     1      30.056  33.727  14.719  1.00  0.00     0.165 C 
BRANCH  50  51
ATOM     51  O   UNL     1      29.297  34.174  13.688  1.00  0.00    -0.388 OA
ATOM     52  H   UNL     1      28.356  33.883  13.679  1.00  0.00     0.211 HD
ENDBRANCH  50  51
BRANCH  50  53
ATOM     53  C   UNL     1      31.524  34.023  14.485  1.00  0.00     0.154 C 
BRANCH  53  54
ATOM     54  N   UNL     1      31.831  34.768  13.320  1.00  0.00    -0.319 N 
ATOM     55  C   UNL     1      32.354  36.064  13.322  1.00  0.00     0.407 C 
ATOM     56  H   UNL     1      31.656  34.324  12.353  1.00  0.00     0.167 HD
ATOM     57  O   UNL     1      32.608  36.678  14.371  1.00  0.00    -0.225 OA
BRANCH  55  58
ATOM     58  O   UNL     1      32.624  36.752  12.114  1.00  0.00    -0.443 OA
BRANCH  58  59
ATOM     59  C   UNL     1      31.616  37.472  11.441  1.00  0.00     0.294 C 
BRANCH  59  60
ATOM     60  C   UNL     1      30.404  37.697  12.254  1.00  0.00     0.120 A 
ATOM     61  C   UNL     1      30.048  38.847  12.929  1.00  0.00     0.139 A 
ATOM     62  N   UNL     1      29.414  36.822  12.490  1.00  0.00    -0.132 NA
ATOM     63  N   UNL     1      28.861  38.644  13.552  1.00  0.00    -0.244 N 
ATOM     64  N   UNL     1      28.498  37.404  13.268  1.00  0.00    -0.066 NA
BRANCH  63  65
ATOM     65  C   UNL     1      28.159  39.613  14.355  1.00  0.00     0.082 C 
ATOM     66  C   UNL     1      29.007  40.837  14.529  1.00  0.00     0.039 C 
ATOM     67  C   UNL     1      27.901  39.046  15.759  1.00  0.00     0.039 C 
BRANCH  65  68
ATOM     68  C   UNL     1      26.825  40.013  13.794  1.00  0.00     0.186 C 
BRANCH  68  69
ATOM     69  O   UNL     1      26.645  39.645  12.481  1.00  0.00    -0.394 OA
ATOM     70  H   UNL     1      27.153  38.870  12.193  1.00  0.00     0.210 HD
ENDBRANCH  68  69
ENDBRANCH  65  68
ENDBRANCH  63  65
ENDBRANCH  59  60
ENDBRANCH  58  59
ENDBRANCH  55  58
ENDBRANCH  53  54
ENDBRANCH  50  53
ENDBRANCH  47  50
ENDBRANCH   5  47
BRANCH   4  71
ATOM     71  N   UNL     1      29.104  33.473  18.198  1.00  0.00    -0.348 N 
ATOM     72  C   UNL     1      30.430  33.539  18.690  1.00  0.00     0.217 C 
ATOM     73  H   UNL     1      28.358  33.506  18.955  1.00  0.00     0.163 HD
ATOM     74  C   UNL     1      30.736  33.649  20.141  1.00  0.00     0.114 C 
ATOM     75  O   UNL     1      31.377  33.505  17.887  1.00  0.00    -0.275 OA
ENDBRANCH   4  71
TORSDOF 32
BEGIN_RES LYS A 131
REMARK  4 active torsions:
REMARK  status: ('A' for Active; 'I' for Inactive)
REMARK    1  A    between atoms: CA   and  CB  
REMARK    2  A    between atoms: CB   and  CG  
REMARK    3  A    between atoms: CG   and  CD  
REMARK    4  A    between atoms: CD   and  CE  
ROOT
ATOM      1  CA  LYS A 131      29.867  25.555  16.977  1.00 20.52     0.186 C 
ENDROOT
BRANCH   1   2
ATOM      2  CB  LYS A 131      28.345  25.722  17.026  1.00 20.94     0.034 C 
BRANCH   2   3
ATOM      3  CG  LYS A 131      27.602  24.398  16.937  1.00 22.96     0.005 C 
BRANCH   3   4
ATOM      4  CD  LYS A 131      26.213  24.488  17.506  1.00 24.33     0.041 C 
BRANCH   4   5
ATOM      5  CE  LYS A 131      25.979  23.324  18.463  1.00 26.91     0.338 C 
ATOM      6  NZ  LYS A 131      25.219  23.775  19.652  1.00 27.40     0.618 N 
ENDBRANCH   4   5
ENDBRANCH   3   4
ENDBRANCH   2   3
ENDBRANCH   1   2
END_RES LYS A 131
BEGIN_RES LYS A 135
REMARK  4 active torsions:
REMARK  status: ('A' for Active; 'I' for Inactive)
REMARK    5  A    between atoms: CA   and  CB  
REMARK    6  A    between atoms: CB   and  CG  
REMARK    7  A    between atoms: CG   and  CD  
REMARK    8  A    between atoms: CD   and  CE  
ROOT
ATOM      7  CA  LYS A 135      33.193  34.663   9.290  1.00 25.02     0.186 C 
ENDROOT
BRANCH   7   8
ATOM      8  CB  LYS A 135      32.060  35.360  10.034  1.00 26.63     0.034 C 
BRANCH   8   9
ATOM      9  CG  LYS A 135      30.706  34.752   9.775  1.00 29.45     0.005 C 
BRANCH   9  10
ATOM     10  CD  LYS A 135      30.451  34.624   8.281  1.00 32.00     0.041 C 
BRANCH  10  11
ATOM     11  CE  LYS A 135      28.974  34.789   7.977  1.00 34.25     0.338 C 
ATOM     12  NZ  LYS A 135      28.770  35.483   6.675  1.00 35.99     0.618 N 
ENDBRANCH  10  11
ENDBRANCH   9  10
ENDBRANCH   8   9
ENDBRANCH   7   8
END_RES LYS A 135
