REMARK VINA RESULT:    -3.505      4.240      9.057
REMARK INTER + INTRA:         -23.123
REMARK INTER:                  -8.906
REMARK INTRA:                 -14.217
REMARK UNBOUND:               -13.881
REMARK SMILES CCOC(=O)c1cccc(-n2cc(COC(=O)NC[C@@H](O)C(O)[C@@H]3O[C@@](OC[C@H]4O[C@@H](O[C@H]5[C@H](O)[C@@H](O)[C@H](OCCN=[N+]=[N-])O[C@@H]5CO)[C@H](O)[C@@H](O)[C@H]4O)(C(=O)O)C[C@H](O)[C@H]3NC(C)=O)nn2)c1
REMARK SMILES IDX 22 1 24 2 26 3 58 4 25 5 59 6 61 7 27 8 28 9 29 10 31 11
REMARK SMILES IDX 30 12 49 13 51 14 53 15 32 16 33 17 46 18 45 19 38 20 34 21
REMARK SMILES IDX 36 22 47 23 48 24 39 26 40 27 41 28 42 29 43 30 44 31 35 32
REMARK SMILES IDX 37 34 50 36 52 38 54 40 55 42 56 43 57 44 60 46 62 48 63 49
REMARK SMILES IDX 64 51 65 52 23 53 20 55 21 56 19 58 18 59 16 60 17 62 15 63
REMARK SMILES IDX 14 64 13 65 12 66 66 67 11 68 67 69 10 70 68 71 9 72 6 73
REMARK SMILES IDX 8 74 7 75 4 76 5 77 3 78 2 79 1 80
REMARK H PARENT 48 25 35 33 37 35 50 37 52 39 54 41 57 45 60 47 62 50 23 54
REMARK H PARENT 21 57 18 61
REMARK Flexibility Score: inf
ROOT
ATOM      1  C   UNL     1      29.298  40.549   7.826  1.00  0.00     0.176 C 
ENDROOT
BRANCH   1   2
ATOM      2  C   UNL     1      28.122  40.440   6.950  1.00  0.00     0.178 C 
ATOM      3  C   UNL     1      25.893  39.697   7.215  1.00  0.00     0.272 C 
ATOM      4  C   UNL     1      25.895  40.137   5.786  1.00  0.00     0.113 C 
ATOM      5  O   UNL     1      27.289  39.448   7.475  1.00  0.00    -0.332 OA
ATOM      6  C   UNL     1      27.023  39.529   4.968  1.00  0.00     0.145 C 
ATOM      7  C   UNL     1      28.361  40.130   5.515  1.00  0.00     0.142 C 
BRANCH   3   8
ATOM      8  O   UNL     1      25.289  38.485   7.341  1.00  0.00    -0.338 OA
BRANCH   8   9
ATOM      9  C   UNL     1      24.003  38.238   7.308  1.00  0.00     0.199 C 
BRANCH   9  10
ATOM     10  C   UNL     1      23.252  37.261   8.107  1.00  0.00     0.179 C 
ATOM     11  C   UNL     1      23.453  35.595   9.737  1.00  0.00     0.282 C 
ATOM     12  O   UNL     1      24.026  36.301   8.653  1.00  0.00    -0.341 OA
ATOM     13  C   UNL     1      21.970  35.791   9.792  1.00  0.00     0.202 C 
ATOM     14  C   UNL     1      21.559  37.227   9.849  1.00  0.00     0.179 C 
ATOM     15  C   UNL     1      22.644  38.082   9.290  1.00  0.00     0.177 C 
BRANCH  11  16
ATOM     16  O   UNL     1      24.161  35.990  10.834  1.00  0.00    -0.341 OA
BRANCH  16  17
ATOM     17  C   UNL     1      25.450  35.605  10.970  1.00  0.00     0.184 C 
ATOM     18  C   UNL     1      25.602  34.896  12.289  1.00  0.00     0.178 C 
ATOM     19  O   UNL     1      26.904  34.426  12.469  1.00  0.00    -0.341 OA
ATOM     20  C   UNL     1      27.747  35.559  12.641  1.00  0.00     0.281 C 
ATOM     21  C   UNL     1      26.423  36.797  10.999  1.00  0.00     0.180 C 
ATOM     22  C   UNL     1      27.805  36.215  11.289  1.00  0.00     0.202 C 
BRANCH  18  23
ATOM     23  C   UNL     1      24.661  33.729  12.389  1.00  0.00     0.191 C 
BRANCH  23  24
ATOM     24  O   UNL     1      23.439  34.135  12.984  1.00  0.00    -0.394 OA
ATOM     25  H   UNL     1      22.856  33.349  13.139  1.00  0.00     0.210 HD
ENDBRANCH  23  24
ENDBRANCH  18  23
BRANCH  20  26
ATOM     26  O   UNL     1      28.950  35.117  13.110  1.00  0.00    -0.350 OA
BRANCH  26  27
ATOM     27  C   UNL     1      28.847  34.523  14.360  1.00  0.00     0.169 C 
BRANCH  27  28
ATOM     28  C   UNL     1      29.789  33.373  14.558  1.00  0.00     0.119 C 
BRANCH  28  29
ATOM     29  N   UNL     1      29.376  32.617  15.748  1.00  0.00    -0.092 NA
ATOM     30  N   UNL     1      28.955  31.465  15.575  1.00  0.00     0.001 N 
ATOM     31  N   UNL     1      28.749  30.235  15.592  1.00  0.00    -0.003 NA
ENDBRANCH  28  29
ENDBRANCH  27  28
ENDBRANCH  26  27
ENDBRANCH  20  26
BRANCH  21  32
ATOM     32  O   UNL     1      26.531  37.386   9.748  1.00  0.00    -0.387 OA
ATOM     33  H   UNL     1      27.253  38.056   9.800  1.00  0.00     0.211 HD
ENDBRANCH  21  32
BRANCH  22  34
ATOM     34  O   UNL     1      28.782  37.203  11.226  1.00  0.00    -0.385 OA
ATOM     35  H   UNL     1      28.528  38.039  11.720  1.00  0.00     0.211 HD
ENDBRANCH  22  34
ENDBRANCH  16  17
ENDBRANCH  11  16
BRANCH  13  36
ATOM     36  O   UNL     1      21.376  35.104   8.715  1.00  0.00    -0.385 OA
ATOM     37  H   UNL     1      20.612  35.595   8.336  1.00  0.00     0.211 HD
ENDBRANCH  13  36
BRANCH  14  38
ATOM     38  O   UNL     1      21.065  37.615  11.073  1.00  0.00    -0.387 OA
ATOM     39  H   UNL     1      20.484  38.407  10.915  1.00  0.00     0.211 HD
ENDBRANCH  14  38
BRANCH  15  40
ATOM     40  O   UNL     1      23.585  38.425  10.209  1.00  0.00    -0.387 OA
ATOM     41  H   UNL     1      24.000  37.608  10.582  1.00  0.00     0.211 HD
ENDBRANCH  15  40
ENDBRANCH   9  10
ENDBRANCH   8   9
ENDBRANCH   3   8
BRANCH   3  42
ATOM     42  C   UNL     1      25.451  40.683   8.190  1.00  0.00     0.364 C 
ATOM     43  O   UNL     1      24.878  41.735   7.866  1.00  0.00    -0.246 OA
BRANCH  42  44
ATOM     44  O   UNL     1      25.663  40.474   9.554  1.00  0.00    -0.477 OA
ATOM     45  H   UNL     1      24.942  40.527  10.243  1.00  0.00     0.296 HD
ENDBRANCH  42  44
ENDBRANCH   3  42
BRANCH   6  46
ATOM     46  O   UNL     1      27.077  38.183   5.231  1.00  0.00    -0.391 OA
ATOM     47  H   UNL     1      26.672  37.684   4.481  1.00  0.00     0.211 HD
ENDBRANCH   6  46
BRANCH   7  48
ATOM     48  N   UNL     1      28.624  41.300   4.711  1.00  0.00    -0.348 N 
ATOM     49  C   UNL     1      29.936  41.710   4.304  1.00  0.00     0.217 C 
ATOM     50  H   UNL     1      27.842  41.934   4.367  1.00  0.00     0.163 HD
ATOM     51  C   UNL     1      30.171  42.922   3.476  1.00  0.00     0.114 C 
ATOM     52  O   UNL     1      30.928  41.036   4.649  1.00  0.00    -0.275 OA
ENDBRANCH   7  48
ENDBRANCH   1   2
BRANCH   1  53
ATOM     53  O   UNL     1      29.141  41.275   8.976  1.00  0.00    -0.388 OA
ATOM     54  H   UNL     1      29.946  41.791   9.216  1.00  0.00     0.211 HD
ENDBRANCH   1  53
BRANCH   1  55
ATOM     55  C   UNL     1      30.083  39.287   8.076  1.00  0.00     0.165 C 
BRANCH  55  56
ATOM     56  O   UNL     1      29.328  38.378   8.824  1.00  0.00    -0.388 OA
ATOM     57  H   UNL     1      29.294  38.661   9.774  1.00  0.00     0.211 HD
ENDBRANCH  55  56
BRANCH  55  58
ATOM     58  C   UNL     1      31.482  39.503   8.569  1.00  0.00     0.154 C 
BRANCH  58  59
ATOM     59  N   UNL     1      31.513  40.075   9.895  1.00  0.00    -0.319 N 
ATOM     60  C   UNL     1      31.524  39.260  11.049  1.00  0.00     0.407 C 
ATOM     61  H   UNL     1      31.530  41.133  10.027  1.00  0.00     0.167 HD
ATOM     62  O   UNL     1      31.516  38.009  11.050  1.00  0.00    -0.225 OA
BRANCH  60  63
ATOM     63  O   UNL     1      31.536  39.848  12.330  1.00  0.00    -0.443 OA
BRANCH  63  64
ATOM     64  C   UNL     1      30.564  40.722  12.815  1.00  0.00     0.294 C 
BRANCH  64  65
ATOM     65  C   UNL     1      29.169  40.303  12.627  1.00  0.00     0.121 A 
ATOM     66  C   UNL     1      28.294  39.890  13.626  1.00  0.00     0.144 A 
ATOM     67  N   UNL     1      28.487  40.239  11.489  1.00  0.00    -0.131 NA
ATOM     68  N   UNL     1      27.131  39.595  13.047  1.00  0.00    -0.220 N 
ATOM     69  N   UNL     1      27.254  39.810  11.757  1.00  0.00    -0.062 NA
BRANCH  68  70
ATOM     70  C   UNL     1      25.972  39.138  13.711  1.00  0.00     0.067 A 
ATOM     71  C   UNL     1      24.703  39.593  13.362  1.00  0.00     0.044 A 
ATOM     72  C   UNL     1      26.035  38.218  14.723  1.00  0.00     0.028 A 
ATOM     73  C   UNL     1      23.551  39.172  13.969  1.00  0.00     0.062 A 
ATOM     74  C   UNL     1      24.891  37.765  15.362  1.00  0.00     0.003 A 
ATOM     75  C   UNL     1      23.653  38.236  14.992  1.00  0.00     0.016 A 
BRANCH  73  76
ATOM     76  C   UNL     1      22.263  39.689  13.558  1.00  0.00     0.338 C 
ATOM     77  O   UNL     1      21.356  39.819  14.402  1.00  0.00    -0.246 OA
BRANCH  76  78
ATOM     78  O   UNL     1      22.045  40.035  12.249  1.00  0.00    -0.462 OA
BRANCH  78  79
ATOM     79  C   UNL     1      21.649  41.318  11.825  1.00  0.00     0.230 C 
ATOM     80  C   UNL     1      22.485  41.750  10.640  1.00  0.00     0.049 C 
ENDBRANCH  78  79
ENDBRANCH  76  78
ENDBRANCH  73  76
ENDBRANCH  68  70
ENDBRANCH  64  65
ENDBRANCH  63  64
ENDBRANCH  60  63
ENDBRANCH  58  59
ENDBRANCH  55  58
ENDBRANCH   1  55
TORSDOF 33
BEGIN_RES LYS A 131
REMARK  4 active torsions:
REMARK  status: ('A' for Active; 'I' for Inactive)
REMARK    1  A    between atoms: CA   and  CB  
REMARK    2  A    between atoms: CB   and  CG  
REMARK    3  A    between atoms: CG   and  CD  
REMARK    4  A    between atoms: CD   and  CE  
ROOT
ATOM      1  CA  LYS A 131      29.867  25.555  16.977  1.00 20.52     0.186 C 
ENDROOT
BRANCH   1   2
ATOM      2  CB  LYS A 131      28.345  25.722  17.026  1.00 20.94     0.034 C 
BRANCH   2   3
ATOM      3  CG  LYS A 131      27.602  24.400  16.913  1.00 22.96     0.005 C 
BRANCH   3   4
ATOM      4  CD  LYS A 131      26.148  24.535  17.271  1.00 24.33     0.041 C 
BRANCH   4   5
ATOM      5  CE  LYS A 131      26.009  24.710  18.780  1.00 26.91     0.338 C 
ATOM      6  NZ  LYS A 131      24.949  25.697  19.093  1.00 27.40     0.618 N 
ENDBRANCH   4   5
ENDBRANCH   3   4
ENDBRANCH   2   3
ENDBRANCH   1   2
END_RES LYS A 131
BEGIN_RES LYS A 135
REMARK  4 active torsions:
REMARK  status: ('A' for Active; 'I' for Inactive)
REMARK    5  A    between atoms: CA   and  CB  
REMARK    6  A    between atoms: CB   and  CG  
REMARK    7  A    between atoms: CG   and  CD  
REMARK    8  A    between atoms: CD   and  CE  
ROOT
ATOM      7  CA  LYS A 135      33.193  34.663   9.290  1.00 25.02     0.186 C 
ENDROOT
BRANCH   7   8
ATOM      8  CB  LYS A 135      32.060  35.360  10.034  1.00 26.63     0.034 C 
BRANCH   8   9
ATOM      9  CG  LYS A 135      30.710  34.734   9.799  1.00 29.45     0.005 C 
BRANCH   9  10
ATOM     10  CD  LYS A 135      30.449  34.563   8.310  1.00 32.00     0.041 C 
BRANCH  10  11
ATOM     11  CE  LYS A 135      29.004  34.885   7.982  1.00 34.25     0.338 C 
ATOM     12  NZ  LYS A 135      28.896  35.599   6.680  1.00 35.99     0.618 N 
ENDBRANCH  10  11
ENDBRANCH   9  10
ENDBRANCH   8   9
ENDBRANCH   7   8
END_RES LYS A 135
