REMARK VINA RESULT:    -4.960      0.000      0.000
REMARK INTER + INTRA:         -24.196
REMARK INTER:                 -12.472
REMARK INTRA:                 -11.724
REMARK UNBOUND:               -11.408
REMARK SMILES CC(=O)N[C@@H]1[C@@H](O)C[C@](OC[C@H]2O[C@@H](O[C@H]3[C@H](O)[C@@H](O)[C@H](OCCN=[N+]=[N-])O[C@@H]3CO)[C@H](O)[C@@H](O)[C@H]2O)(C(=O)O)O[C@H]1C(O)[C@H](O)CNC(=O)OCc1cn(CS(=O)(=O)c2ccccc2)nn1
REMARK SMILES IDX 9 1 8 2 6 3 5 4 42 5 41 6 10 7 11 8 12 9 14 10 13 11 32 12
REMARK SMILES IDX 34 13 36 14 15 15 16 16 29 17 28 18 21 19 17 20 19 21 30 22
REMARK SMILES IDX 31 23 22 25 23 26 24 27 25 28 26 29 27 30 18 31 20 33 33 35
REMARK SMILES IDX 35 37 37 39 38 41 39 42 40 43 7 45 43 47 44 48 45 50 46 51
REMARK SMILES IDX 47 53 48 54 49 55 50 57 51 58 52 59 53 60 54 61 67 62 55 63
REMARK SMILES IDX 66 64 56 65 57 66 58 67 59 68 60 69 61 70 65 71 62 72 64 73
REMARK SMILES IDX 63 74 4 75 2 76 1 78 3 79
REMARK H PARENT 31 24 18 32 20 34 33 36 35 38 37 40 40 44 7 46 44 49 46 52
REMARK H PARENT 48 56 4 77
REMARK Flexibility Score: inf
ROOT
ATOM      1  C   UNL     1      28.214  31.234  20.355  1.00  0.00     0.272 C 
ATOM      2  C   UNL     1      29.652  31.543  20.453  1.00  0.00     0.113 C 
ATOM      3  C   UNL     1      30.578  30.358  20.271  1.00  0.00     0.145 C 
ATOM      4  C   UNL     1      30.085  29.287  21.181  1.00  0.00     0.142 C 
ATOM      5  C   UNL     1      28.611  29.023  21.048  1.00  0.00     0.178 C 
ATOM      6  O   UNL     1      27.789  30.089  21.009  1.00  0.00    -0.332 OA
ENDROOT
BRANCH   1   7
ATOM      7  O   UNL     1      27.712  31.331  19.074  1.00  0.00    -0.338 OA
BRANCH   7   8
ATOM      8  C   UNL     1      28.188  32.332  18.292  1.00  0.00     0.199 C 
BRANCH   8   9
ATOM      9  C   UNL     1      27.706  32.165  16.835  1.00  0.00     0.179 C 
ATOM     10  C   UNL     1      28.727  33.588  15.243  1.00  0.00     0.282 C 
ATOM     11  O   UNL     1      27.817  33.357  16.235  1.00  0.00    -0.341 OA
ATOM     12  C   UNL     1      29.948  32.765  15.405  1.00  0.00     0.202 C 
ATOM     13  C   UNL     1      29.631  31.310  15.571  1.00  0.00     0.179 C 
ATOM     14  C   UNL     1      28.297  31.018  16.126  1.00  0.00     0.177 C 
BRANCH  10  15
ATOM     15  O   UNL     1      28.990  34.966  15.306  1.00  0.00    -0.341 OA
BRANCH  15  16
ATOM     16  C   UNL     1      28.480  35.726  14.309  1.00  0.00     0.184 C 
ATOM     17  C   UNL     1      27.123  36.277  14.633  1.00  0.00     0.178 C 
ATOM     18  O   UNL     1      26.900  37.352  13.777  1.00  0.00    -0.341 OA
ATOM     19  C   UNL     1      27.183  37.117  12.461  1.00  0.00     0.281 C 
ATOM     20  C   UNL     1      28.222  34.882  13.036  1.00  0.00     0.180 C 
ATOM     21  C   UNL     1      27.443  35.708  12.090  1.00  0.00     0.202 C 
BRANCH  17  22
ATOM     22  C   UNL     1      26.919  36.730  16.035  1.00  0.00     0.191 C 
BRANCH  22  23
ATOM     23  O   UNL     1      26.354  35.698  16.775  1.00  0.00    -0.394 OA
ATOM     24  H   UNL     1      27.050  35.241  17.301  1.00  0.00     0.210 HD
ENDBRANCH  22  23
ENDBRANCH  17  22
BRANCH  19  25
ATOM     25  O   UNL     1      28.305  37.881  12.151  1.00  0.00    -0.350 OA
BRANCH  25  26
ATOM     26  C   UNL     1      28.369  38.166  10.767  1.00  0.00     0.169 C 
BRANCH  26  27
ATOM     27  C   UNL     1      26.996  38.579  10.284  1.00  0.00     0.119 C 
BRANCH  27  28
ATOM     28  N   UNL     1      26.740  37.877   9.028  1.00  0.00    -0.092 NA
ATOM     29  N   UNL     1      25.873  36.980   9.035  1.00  0.00     0.001 N 
ATOM     30  N   UNL     1      25.201  35.940   9.168  1.00  0.00    -0.003 NA
ENDBRANCH  27  28
ENDBRANCH  26  27
ENDBRANCH  25  26
ENDBRANCH  19  25
BRANCH  20  31
ATOM     31  O   UNL     1      29.424  34.491  12.469  1.00  0.00    -0.387 OA
ATOM     32  H   UNL     1      30.070  35.235  12.577  1.00  0.00     0.211 HD
ENDBRANCH  20  31
BRANCH  21  33
ATOM     33  O   UNL     1      26.179  35.089  11.920  1.00  0.00    -0.385 OA
ATOM     34  H   UNL     1      26.246  34.113  11.862  1.00  0.00     0.211 HD
ENDBRANCH  21  33
ENDBRANCH  15  16
ENDBRANCH  10  15
BRANCH  12  35
ATOM     35  O   UNL     1      30.757  32.811  14.225  1.00  0.00    -0.385 OA
ATOM     36  H   UNL     1      31.085  33.741  14.181  1.00  0.00     0.211 HD
ENDBRANCH  12  35
BRANCH  13  37
ATOM     37  O   UNL     1      30.647  30.660  16.317  1.00  0.00    -0.387 OA
ATOM     38  H   UNL     1      30.278  30.389  17.206  1.00  0.00     0.211 HD
ENDBRANCH  13  37
BRANCH  14  39
ATOM     39  O   UNL     1      28.373  29.865  16.931  1.00  0.00    -0.387 OA
ATOM     40  H   UNL     1      29.325  29.730  17.171  1.00  0.00     0.211 HD
ENDBRANCH  14  39
ENDBRANCH   8   9
ENDBRANCH   7   8
ENDBRANCH   1   7
BRANCH   1  41
ATOM     41  C   UNL     1      27.520  32.318  21.164  1.00  0.00     0.364 C 
ATOM     42  O   UNL     1      28.231  33.116  21.797  1.00  0.00    -0.246 OA
BRANCH  41  43
ATOM     43  O   UNL     1      26.138  32.404  21.181  1.00  0.00    -0.477 OA
ATOM     44  H   UNL     1      25.662  32.930  21.929  1.00  0.00     0.296 HD
ENDBRANCH  41  43
ENDBRANCH   1  41
BRANCH   3  45
ATOM     45  O   UNL     1      30.621  30.023  18.946  1.00  0.00    -0.391 OA
ATOM     46  H   UNL     1      31.027  30.788  18.453  1.00  0.00     0.211 HD
ENDBRANCH   3  45
BRANCH   5  47
ATOM     47  C   UNL     1      28.298  27.967  20.013  1.00  0.00     0.176 C 
BRANCH  47  48
ATOM     48  O   UNL     1      29.133  26.854  20.080  1.00  0.00    -0.388 OA
ATOM     49  H   UNL     1      28.745  26.035  19.739  1.00  0.00     0.211 HD
ENDBRANCH  47  48
BRANCH  47  50
ATOM     50  C   UNL     1      26.847  27.511  20.057  1.00  0.00     0.165 C 
BRANCH  50  51
ATOM     51  O   UNL     1      26.712  26.185  20.397  1.00  0.00    -0.388 OA
ATOM     52  H   UNL     1      27.035  25.941  21.278  1.00  0.00     0.211 HD
ENDBRANCH  50  51
BRANCH  50  53
ATOM     53  C   UNL     1      26.056  27.864  18.855  1.00  0.00     0.154 C 
BRANCH  53  54
ATOM     54  N   UNL     1      25.815  29.253  18.608  1.00  0.00    -0.319 N 
ATOM     55  C   UNL     1      24.681  29.993  19.013  1.00  0.00     0.407 C 
ATOM     56  H   UNL     1      26.560  29.787  18.064  1.00  0.00     0.167 HD
ATOM     57  O   UNL     1      23.761  29.460  19.662  1.00  0.00    -0.225 OA
BRANCH  55  58
ATOM     58  O   UNL     1      24.607  31.334  18.672  1.00  0.00    -0.443 OA
BRANCH  58  59
ATOM     59  C   UNL     1      23.483  32.141  18.865  1.00  0.00     0.294 C 
BRANCH  59  60
ATOM     60  C   UNL     1      23.368  33.106  17.755  1.00  0.00     0.120 A 
ATOM     61  C   UNL     1      22.758  32.823  16.544  1.00  0.00     0.139 A 
ATOM     62  N   UNL     1      23.782  34.378  17.654  1.00  0.00    -0.132 NA
ATOM     63  N   UNL     1      22.816  33.913  15.756  1.00  0.00    -0.237 N 
ATOM     64  N   UNL     1      23.450  34.840  16.467  1.00  0.00    -0.066 NA
BRANCH  63  65
ATOM     65  C   UNL     1      22.295  34.044  14.424  1.00  0.00     0.287 C 
BRANCH  65  66
ATOM     66  S   UNL     1      23.524  33.345  13.321  1.00  0.00     0.198 S 
ATOM     67  O   UNL     1      24.869  33.384  13.939  1.00  0.00    -0.222 OA
ATOM     68  O   UNL     1      23.472  34.160  12.039  1.00  0.00    -0.222 OA
BRANCH  66  69
ATOM     69  C   UNL     1      23.041  31.704  12.981  1.00  0.00     0.069 A 
ATOM     70  C   UNL     1      21.743  31.376  12.650  1.00  0.00     0.020 A 
ATOM     71  C   UNL     1      23.951  30.672  13.033  1.00  0.00     0.020 A 
ATOM     72  C   UNL     1      21.362  30.087  12.383  1.00  0.00     0.001 A 
ATOM     73  C   UNL     1      23.586  29.377  12.769  1.00  0.00     0.001 A 
ATOM     74  C   UNL     1      22.285  29.086  12.443  1.00  0.00     0.000 A 
ENDBRANCH  66  69
ENDBRANCH  65  66
ENDBRANCH  63  65
ENDBRANCH  59  60
ENDBRANCH  58  59
ENDBRANCH  55  58
ENDBRANCH  53  54
ENDBRANCH  50  53
ENDBRANCH  47  50
ENDBRANCH   5  47
BRANCH   4  75
ATOM     75  N   UNL     1      30.321  29.704  22.558  1.00  0.00    -0.348 N 
ATOM     76  C   UNL     1      30.778  28.790  23.548  1.00  0.00     0.217 C 
ATOM     77  H   UNL     1      30.160  30.706  22.882  1.00  0.00     0.163 HD
ATOM     78  C   UNL     1      31.005  29.273  24.957  1.00  0.00     0.114 C 
ATOM     79  O   UNL     1      30.995  27.579  23.260  1.00  0.00    -0.275 OA
ENDBRANCH   4  75
TORSDOF 32
BEGIN_RES LYS A 131
REMARK  4 active torsions:
REMARK  status: ('A' for Active; 'I' for Inactive)
REMARK    1  A    between atoms: CA   and  CB  
REMARK    2  A    between atoms: CB   and  CG  
REMARK    3  A    between atoms: CG   and  CD  
REMARK    4  A    between atoms: CD   and  CE  
ROOT
ATOM      1  CA  LYS A 131      29.867  25.555  16.977  1.00 20.52     0.186 C 
ENDROOT
BRANCH   1   2
ATOM      2  CB  LYS A 131      28.345  25.722  17.026  1.00 20.94     0.034 C 
BRANCH   2   3
ATOM      3  CG  LYS A 131      27.602  24.400  16.917  1.00 22.96     0.005 C 
BRANCH   3   4
ATOM      4  CD  LYS A 131      26.153  24.531  17.299  1.00 24.33     0.041 C 
BRANCH   4   5
ATOM      5  CE  LYS A 131      25.789  23.434  18.295  1.00 26.91     0.338 C 
ATOM      6  NZ  LYS A 131      24.941  22.406  17.647  1.00 27.40     0.618 N 
ENDBRANCH   4   5
ENDBRANCH   3   4
ENDBRANCH   2   3
ENDBRANCH   1   2
END_RES LYS A 131
BEGIN_RES LYS A 135
REMARK  4 active torsions:
REMARK  status: ('A' for Active; 'I' for Inactive)
REMARK    5  A    between atoms: CA   and  CB  
REMARK    6  A    between atoms: CB   and  CG  
REMARK    7  A    between atoms: CG   and  CD  
REMARK    8  A    between atoms: CD   and  CE  
ROOT
ATOM      7  CA  LYS A 135      33.193  34.663   9.290  1.00 25.02     0.186 C 
ENDROOT
BRANCH   7   8
ATOM      8  CB  LYS A 135      32.060  35.360  10.034  1.00 26.63     0.034 C 
BRANCH   8   9
ATOM      9  CG  LYS A 135      30.832  35.582   9.190  1.00 29.45     0.005 C 
BRANCH   9  10
ATOM     10  CD  LYS A 135      30.156  34.258   8.868  1.00 32.00     0.041 C 
BRANCH  10  11
ATOM     11  CE  LYS A 135      28.678  34.467   8.598  1.00 34.25     0.338 C 
ATOM     12  NZ  LYS A 135      27.846  33.558   9.434  1.00 35.99     0.618 N 
ENDBRANCH  10  11
ENDBRANCH   9  10
ENDBRANCH   8   9
ENDBRANCH   7   8
END_RES LYS A 135
