REMARK VINA RESULT:    -5.449      4.660      9.514
REMARK INTER + INTRA:         -23.932
REMARK INTER:                 -14.455
REMARK INTRA:                  -9.477
REMARK UNBOUND:                -9.883
REMARK SMILES CC(=O)N[C@@H]1[C@@H](O)C[C@](OC[C@H]2O[C@@H](O[C@H]3[C@H](O)[C@@H](O)[C@H](OCCN=[N+]=[N-])O[C@@H]3CO)[C@H](O)[C@@H](O)[C@H]2O)(C(=O)O)O[C@H]1C(O)[C@H](O)CNC(=O)OCc1cn(C(c2ccccc2)c2ccccc2)nn1
REMARK SMILES IDX 9 1 8 2 6 3 5 4 42 5 41 6 10 7 11 8 12 9 14 10 13 11 32 12
REMARK SMILES IDX 34 13 36 14 15 15 16 16 29 17 28 18 21 19 17 20 19 21 30 22
REMARK SMILES IDX 31 23 22 25 23 26 24 27 25 28 26 29 27 30 18 31 20 33 33 35
REMARK SMILES IDX 35 37 37 39 38 41 39 42 40 43 7 45 43 47 44 48 45 50 46 51
REMARK SMILES IDX 47 53 48 54 49 55 50 57 51 58 52 59 53 60 54 61 70 62 55 63
REMARK SMILES IDX 69 64 56 65 57 66 58 67 62 68 59 69 61 70 60 71 63 72 64 73
REMARK SMILES IDX 68 74 65 75 67 76 66 77 4 78 2 79 1 81 3 82
REMARK H PARENT 31 24 18 32 20 34 33 36 35 38 37 40 40 44 7 46 44 49 46 52
REMARK H PARENT 48 56 4 80
REMARK Flexibility Score: inf
ROOT
ATOM      1  C   UNL     1      30.128  29.243  20.971  1.00  0.00     0.272 C 
ATOM      2  C   UNL     1      29.121  29.453  22.122  1.00  0.00     0.113 C 
ATOM      3  C   UNL     1      29.634  28.833  23.357  1.00  0.00     0.145 C 
ATOM      4  C   UNL     1      30.972  29.430  23.714  1.00  0.00     0.142 C 
ATOM      5  C   UNL     1      31.667  30.054  22.560  1.00  0.00     0.178 C 
ATOM      6  O   UNL     1      31.385  29.536  21.337  1.00  0.00    -0.332 OA
ENDROOT
BRANCH   1   7
ATOM      7  O   UNL     1      29.739  30.086  19.917  1.00  0.00    -0.338 OA
BRANCH   7   8
ATOM      8  C   UNL     1      28.765  30.967  20.307  1.00  0.00     0.199 C 
BRANCH   8   9
ATOM      9  C   UNL     1      28.077  31.638  19.120  1.00  0.00     0.179 C 
ATOM     10  C   UNL     1      29.474  31.931  17.209  1.00  0.00     0.282 C 
ATOM     11  O   UNL     1      28.918  32.307  18.378  1.00  0.00    -0.341 OA
ATOM     12  C   UNL     1      29.155  30.585  16.765  1.00  0.00     0.202 C 
ATOM     13  C   UNL     1      27.805  30.093  17.156  1.00  0.00     0.179 C 
ATOM     14  C   UNL     1      27.192  30.666  18.374  1.00  0.00     0.177 C 
BRANCH  10  15
ATOM     15  O   UNL     1      30.865  32.187  17.414  1.00  0.00    -0.341 OA
BRANCH  15  16
ATOM     16  C   UNL     1      31.314  33.207  16.631  1.00  0.00     0.184 C 
ATOM     17  C   UNL     1      31.325  34.507  17.355  1.00  0.00     0.178 C 
ATOM     18  O   UNL     1      31.992  35.479  16.597  1.00  0.00    -0.341 OA
ATOM     19  C   UNL     1      31.224  35.837  15.522  1.00  0.00     0.281 C 
ATOM     20  C   UNL     1      30.424  33.409  15.411  1.00  0.00     0.180 C 
ATOM     21  C   UNL     1      30.203  34.844  15.139  1.00  0.00     0.202 C 
BRANCH  17  22
ATOM     22  C   UNL     1      31.881  34.448  18.764  1.00  0.00     0.191 C 
BRANCH  22  23
ATOM     23  O   UNL     1      30.867  34.067  19.637  1.00  0.00    -0.394 OA
ATOM     24  H   UNL     1      30.080  34.650  19.613  1.00  0.00     0.210 HD
ENDBRANCH  22  23
ENDBRANCH  17  22
BRANCH  19  25
ATOM     25  O   UNL     1      32.012  36.242  14.432  1.00  0.00    -0.350 OA
BRANCH  25  26
ATOM     26  C   UNL     1      31.406  36.145  13.213  1.00  0.00     0.169 C 
BRANCH  26  27
ATOM     27  C   UNL     1      31.342  37.511  12.571  1.00  0.00     0.119 C 
BRANCH  27  28
ATOM     28  N   UNL     1      30.145  38.243  12.976  1.00  0.00    -0.092 NA
ATOM     29  N   UNL     1      29.103  37.677  13.281  1.00  0.00     0.001 N 
ATOM     30  N   UNL     1      28.038  37.049  13.238  1.00  0.00    -0.003 NA
ENDBRANCH  27  28
ENDBRANCH  26  27
ENDBRANCH  25  26
ENDBRANCH  19  25
BRANCH  20  31
ATOM     31  O   UNL     1      31.006  32.698  14.360  1.00  0.00    -0.387 OA
ATOM     32  H   UNL     1      30.704  33.038  13.476  1.00  0.00     0.211 HD
ENDBRANCH  20  31
BRANCH  21  33
ATOM     33  O   UNL     1      28.949  35.203  15.716  1.00  0.00    -0.385 OA
ATOM     34  H   UNL     1      29.144  36.000  16.284  1.00  0.00     0.211 HD
ENDBRANCH  21  33
ENDBRANCH  15  16
ENDBRANCH  10  15
BRANCH  12  35
ATOM     35  O   UNL     1      29.217  30.428  15.356  1.00  0.00    -0.385 OA
ATOM     36  H   UNL     1      28.746  29.581  15.166  1.00  0.00     0.211 HD
ENDBRANCH  12  35
BRANCH  13  37
ATOM     37  O   UNL     1      27.793  28.679  17.274  1.00  0.00    -0.387 OA
ATOM     38  H   UNL     1      28.727  28.343  17.261  1.00  0.00     0.211 HD
ENDBRANCH  13  37
BRANCH  14  39
ATOM     39  O   UNL     1      26.917  29.631  19.283  1.00  0.00    -0.387 OA
ATOM     40  H   UNL     1      25.951  29.438  19.340  1.00  0.00     0.211 HD
ENDBRANCH  14  39
ENDBRANCH   8   9
ENDBRANCH   7   8
ENDBRANCH   1   7
BRANCH   1  41
ATOM     41  C   UNL     1      29.958  27.850  20.559  1.00  0.00     0.364 C 
ATOM     42  O   UNL     1      30.798  26.981  20.864  1.00  0.00    -0.246 OA
BRANCH  41  43
ATOM     43  O   UNL     1      28.861  27.420  19.807  1.00  0.00    -0.477 OA
ATOM     44  H   UNL     1      28.959  27.189  18.830  1.00  0.00     0.296 HD
ENDBRANCH  41  43
ENDBRANCH   1  41
BRANCH   3  45
ATOM     45  O   UNL     1      28.704  29.113  24.381  1.00  0.00    -0.391 OA
ATOM     46  H   UNL     1      29.060  29.795  25.002  1.00  0.00     0.211 HD
ENDBRANCH   3  45
BRANCH   5  47
ATOM     47  C   UNL     1      31.657  31.554  22.495  1.00  0.00     0.176 C 
BRANCH  47  48
ATOM     48  O   UNL     1      32.035  31.890  21.178  1.00  0.00    -0.388 OA
ATOM     49  H   UNL     1      32.761  32.537  21.141  1.00  0.00     0.211 HD
ENDBRANCH  47  48
BRANCH  47  50
ATOM     50  C   UNL     1      32.571  32.260  23.429  1.00  0.00     0.165 C 
BRANCH  50  51
ATOM     51  O   UNL     1      32.374  33.624  23.242  1.00  0.00    -0.388 OA
ATOM     52  H   UNL     1      33.038  34.032  22.630  1.00  0.00     0.211 HD
ENDBRANCH  50  51
BRANCH  50  53
ATOM     53  C   UNL     1      34.020  31.943  23.298  1.00  0.00     0.154 C 
BRANCH  53  54
ATOM     54  N   UNL     1      34.698  32.518  22.181  1.00  0.00    -0.319 N 
ATOM     55  C   UNL     1      36.066  32.481  21.894  1.00  0.00     0.407 C 
ATOM     56  H   UNL     1      34.094  33.045  21.471  1.00  0.00     0.167 HD
ATOM     57  O   UNL     1      36.850  31.909  22.661  1.00  0.00    -0.225 OA
BRANCH  55  58
ATOM     58  O   UNL     1      36.581  33.080  20.747  1.00  0.00    -0.443 OA
BRANCH  58  59
ATOM     59  C   UNL     1      37.999  33.080  20.518  1.00  0.00     0.294 C 
BRANCH  59  60
ATOM     60  C   UNL     1      38.243  33.408  19.091  1.00  0.00     0.120 A 
ATOM     61  C   UNL     1      37.983  34.632  18.545  1.00  0.00     0.139 A 
ATOM     62  N   UNL     1      38.737  32.588  18.169  1.00  0.00    -0.132 NA
ATOM     63  N   UNL     1      38.337  34.532  17.252  1.00  0.00    -0.240 N 
ATOM     64  N   UNL     1      38.791  33.292  17.039  1.00  0.00    -0.066 NA
BRANCH  63  65
ATOM     65  C   UNL     1      38.288  35.532  16.205  1.00  0.00     0.169 C 
BRANCH  65  66
ATOM     66  C   UNL     1      37.200  36.466  16.521  1.00  0.00    -0.019 A 
ATOM     67  C   UNL     1      37.454  37.814  16.677  1.00  0.00     0.006 A 
ATOM     68  C   UNL     1      35.894  36.063  16.693  1.00  0.00     0.006 A 
ATOM     69  C   UNL     1      36.443  38.711  16.991  1.00  0.00     0.000 A 
ATOM     70  C   UNL     1      34.871  36.954  17.008  1.00  0.00     0.000 A 
ATOM     71  C   UNL     1      35.145  38.299  17.160  1.00  0.00     0.000 A 
ENDBRANCH  65  66
BRANCH  65  72
ATOM     72  C   UNL     1      38.195  34.889  14.879  1.00  0.00    -0.019 A 
ATOM     73  C   UNL     1      39.264  35.074  14.010  1.00  0.00     0.006 A 
ATOM     74  C   UNL     1      37.131  34.156  14.440  1.00  0.00     0.006 A 
ATOM     75  C   UNL     1      39.242  34.532  12.753  1.00  0.00     0.000 A 
ATOM     76  C   UNL     1      37.102  33.605  13.171  1.00  0.00     0.000 A 
ATOM     77  C   UNL     1      38.160  33.792  12.320  1.00  0.00     0.000 A 
ENDBRANCH  65  72
ENDBRANCH  63  65
ENDBRANCH  59  60
ENDBRANCH  58  59
ENDBRANCH  55  58
ENDBRANCH  53  54
ENDBRANCH  50  53
ENDBRANCH  47  50
ENDBRANCH   5  47
BRANCH   4  78
ATOM     78  N   UNL     1      31.765  28.294  24.224  1.00  0.00    -0.348 N 
ATOM     79  C   UNL     1      32.738  28.448  25.250  1.00  0.00     0.217 C 
ATOM     80  H   UNL     1      31.635  27.324  23.843  1.00  0.00     0.163 HD
ATOM     81  C   UNL     1      33.528  27.271  25.750  1.00  0.00     0.114 C 
ATOM     82  O   UNL     1      32.965  29.562  25.766  1.00  0.00    -0.275 OA
ENDBRANCH   4  78
TORSDOF 32
BEGIN_RES LYS A 131
REMARK  4 active torsions:
REMARK  status: ('A' for Active; 'I' for Inactive)
REMARK    1  A    between atoms: CA   and  CB  
REMARK    2  A    between atoms: CB   and  CG  
REMARK    3  A    between atoms: CG   and  CD  
REMARK    4  A    between atoms: CD   and  CE  
ROOT
ATOM      1  CA  LYS A 131      29.867  25.555  16.977  1.00 20.52     0.186 C 
ENDROOT
BRANCH   1   2
ATOM      2  CB  LYS A 131      28.345  25.722  17.026  1.00 20.94     0.034 C 
BRANCH   2   3
ATOM      3  CG  LYS A 131      27.601  24.401  16.907  1.00 22.96     0.005 C 
BRANCH   3   4
ATOM      4  CD  LYS A 131      26.193  24.494  17.424  1.00 24.33     0.041 C 
BRANCH   4   5
ATOM      5  CE  LYS A 131      26.030  25.781  18.227  1.00 26.91     0.338 C 
ATOM      6  NZ  LYS A 131      25.789  25.474  19.657  1.00 27.40     0.618 N 
ENDBRANCH   4   5
ENDBRANCH   3   4
ENDBRANCH   2   3
ENDBRANCH   1   2
END_RES LYS A 131
BEGIN_RES LYS A 135
REMARK  4 active torsions:
REMARK  status: ('A' for Active; 'I' for Inactive)
REMARK    5  A    between atoms: CA   and  CB  
REMARK    6  A    between atoms: CB   and  CG  
REMARK    7  A    between atoms: CG   and  CD  
REMARK    8  A    between atoms: CD   and  CE  
ROOT
ATOM      7  CA  LYS A 135      33.193  34.663   9.290  1.00 25.02     0.186 C 
ENDROOT
BRANCH   7   8
ATOM      8  CB  LYS A 135      32.060  35.360  10.034  1.00 26.63     0.034 C 
BRANCH   8   9
ATOM      9  CG  LYS A 135      30.802  35.504   9.217  1.00 29.45     0.005 C 
BRANCH   9  10
ATOM     10  CD  LYS A 135      30.131  34.153   9.022  1.00 32.00     0.041 C 
BRANCH  10  11
ATOM     11  CE  LYS A 135      28.671  34.331   8.652  1.00 34.25     0.338 C 
ATOM     12  NZ  LYS A 135      27.782  33.665   9.643  1.00 35.99     0.618 N 
ENDBRANCH  10  11
ENDBRANCH   9  10
ENDBRANCH   8   9
ENDBRANCH   7   8
END_RES LYS A 135
