REMARK VINA RESULT:    -5.733      2.915      6.275
REMARK INTER + INTRA:         -22.023
REMARK INTER:                 -14.788
REMARK INTRA:                  -7.235
REMARK UNBOUND:                -7.575
REMARK SMILES CC(=O)N[C@@H]1[C@@H](O)C[C@](OC[C@H]2O[C@@H](O[C@H]3[C@H](O)[C@@H](O)[C@H](OCCN=[N+]=[N-])O[C@@H]3CO)[C@H](O)[C@@H](O)[C@H]2O)(C(=O)O)O[C@H]1C(O)[C@H](O)CNC(=O)OCc1cn(Cc2ccccc2Br)nn1
REMARK SMILES IDX 9 1 8 2 6 3 5 4 42 5 41 6 10 7 11 8 12 9 14 10 13 11 32 12
REMARK SMILES IDX 34 13 36 14 15 15 16 16 29 17 28 18 21 19 17 20 19 21 30 22
REMARK SMILES IDX 31 23 22 25 23 26 24 27 25 28 26 29 27 30 18 31 20 33 33 35
REMARK SMILES IDX 35 37 37 39 38 41 39 42 40 43 7 45 43 47 44 48 45 50 46 51
REMARK SMILES IDX 47 53 48 54 49 55 50 57 51 58 52 59 53 60 54 61 65 62 55 63
REMARK SMILES IDX 64 64 56 65 57 66 58 67 62 68 59 69 61 70 63 71 60 72 4 73
REMARK SMILES IDX 2 74 1 76 3 77
REMARK H PARENT 31 24 18 32 20 34 33 36 35 38 37 40 40 44 7 46 44 49 46 52
REMARK H PARENT 48 56 4 75
REMARK Flexibility Score: inf
ROOT
ATOM      1  C   UNL     1      29.289  34.906  12.826  1.00  0.00     0.272 C 
ATOM      2  C   UNL     1      30.596  34.910  12.137  1.00  0.00     0.113 C 
ATOM      3  C   UNL     1      31.679  35.413  13.021  1.00  0.00     0.145 C 
ATOM      4  C   UNL     1      31.731  34.578  14.269  1.00  0.00     0.142 C 
ATOM      5  C   UNL     1      30.410  34.106  14.740  1.00  0.00     0.178 C 
ATOM      6  O   UNL     1      29.453  33.835  13.826  1.00  0.00    -0.332 OA
ENDROOT
BRANCH   1   7
ATOM      7  O   UNL     1      28.239  34.491  12.092  1.00  0.00    -0.338 OA
BRANCH   7   8
ATOM      8  C   UNL     1      27.135  35.089  11.782  1.00  0.00     0.199 C 
BRANCH   8   9
ATOM      9  C   UNL     1      26.668  35.625  10.502  1.00  0.00     0.179 C 
ATOM     10  C   UNL     1      26.183  37.403   9.137  1.00  0.00     0.282 C 
ATOM     11  O   UNL     1      27.004  36.948  10.197  1.00  0.00    -0.341 OA
ATOM     12  C   UNL     1      26.755  36.810   7.879  1.00  0.00     0.202 C 
ATOM     13  C   UNL     1      26.960  35.341   8.010  1.00  0.00     0.179 C 
ATOM     14  C   UNL     1      26.581  34.722   9.326  1.00  0.00     0.177 C 
BRANCH  10  15
ATOM     15  O   UNL     1      26.229  38.764   9.167  1.00  0.00    -0.341 OA
BRANCH  15  16
ATOM     16  C   UNL     1      25.200  39.431   9.759  1.00  0.00     0.184 C 
ATOM     17  C   UNL     1      24.131  38.592  10.365  1.00  0.00     0.178 C 
ATOM     18  O   UNL     1      22.899  39.062   9.919  1.00  0.00    -0.341 OA
ATOM     19  C   UNL     1      22.880  38.828   8.520  1.00  0.00     0.281 C 
ATOM     20  C   UNL     1      24.592  40.504   8.868  1.00  0.00     0.180 C 
ATOM     21  C   UNL     1      23.683  39.891   7.821  1.00  0.00     0.202 C 
BRANCH  17  22
ATOM     22  C   UNL     1      24.105  38.699  11.888  1.00  0.00     0.191 C 
BRANCH  22  23
ATOM     23  O   UNL     1      24.136  37.431  12.469  1.00  0.00    -0.394 OA
ATOM     24  H   UNL     1      23.486  36.814  12.062  1.00  0.00     0.210 HD
ENDBRANCH  22  23
ENDBRANCH  17  22
BRANCH  19  25
ATOM     25  O   UNL     1      21.536  38.824   8.157  1.00  0.00    -0.350 OA
BRANCH  25  26
ATOM     26  C   UNL     1      20.842  37.771   8.753  1.00  0.00     0.169 C 
BRANCH  26  27
ATOM     27  C   UNL     1      20.919  36.578   7.816  1.00  0.00     0.119 C 
BRANCH  27  28
ATOM     28  N   UNL     1      21.175  35.403   8.610  1.00  0.00    -0.092 NA
ATOM     29  N   UNL     1      21.921  35.434   9.594  1.00  0.00     0.001 N 
ATOM     30  N   UNL     1      22.981  35.487  10.251  1.00  0.00    -0.003 NA
ENDBRANCH  27  28
ENDBRANCH  26  27
ENDBRANCH  25  26
ENDBRANCH  19  25
BRANCH  20  31
ATOM     31  O   UNL     1      23.795  41.374   9.613  1.00  0.00    -0.387 OA
ATOM     32  H   UNL     1      24.196  42.282   9.508  1.00  0.00     0.211 HD
ENDBRANCH  20  31
BRANCH  21  33
ATOM     33  O   UNL     1      24.356  39.451   6.710  1.00  0.00    -0.385 OA
ATOM     34  H   UNL     1      25.282  39.787   6.730  1.00  0.00     0.211 HD
ENDBRANCH  21  33
ENDBRANCH  15  16
ENDBRANCH  10  15
BRANCH  12  35
ATOM     35  O   UNL     1      25.888  36.993   6.790  1.00  0.00    -0.385 OA
ATOM     36  H   UNL     1      26.143  36.326   6.113  1.00  0.00     0.211 HD
ENDBRANCH  12  35
BRANCH  13  37
ATOM     37  O   UNL     1      28.309  35.047   7.766  1.00  0.00    -0.387 OA
ATOM     38  H   UNL     1      28.908  35.745   8.098  1.00  0.00     0.211 HD
ENDBRANCH  13  37
BRANCH  14  39
ATOM     39  O   UNL     1      27.350  33.575   9.462  1.00  0.00    -0.387 OA
ATOM     40  H   UNL     1      28.147  33.526   8.914  1.00  0.00     0.211 HD
ENDBRANCH  14  39
ENDBRANCH   8   9
ENDBRANCH   7   8
ENDBRANCH   1   7
BRANCH   1  41
ATOM     41  C   UNL     1      28.971  36.044  13.713  1.00  0.00     0.364 C 
ATOM     42  O   UNL     1      29.262  37.245  13.515  1.00  0.00    -0.246 OA
BRANCH  41  43
ATOM     43  O   UNL     1      28.292  35.793  14.894  1.00  0.00    -0.477 OA
ATOM     44  H   UNL     1      28.349  36.426  15.693  1.00  0.00     0.296 HD
ENDBRANCH  41  43
ENDBRANCH   1  41
BRANCH   3  45
ATOM     45  O   UNL     1      32.892  35.189  12.292  1.00  0.00    -0.391 OA
ATOM     46  H   UNL     1      32.916  34.280  11.935  1.00  0.00     0.211 HD
ENDBRANCH   3  45
BRANCH   5  47
ATOM     47  C   UNL     1      30.592  32.830  15.567  1.00  0.00     0.176 C 
BRANCH  47  48
ATOM     48  O   UNL     1      31.495  32.025  14.889  1.00  0.00    -0.388 OA
ATOM     49  H   UNL     1      31.241  31.086  14.864  1.00  0.00     0.211 HD
ENDBRANCH  47  48
BRANCH  47  50
ATOM     50  C   UNL     1      29.318  32.087  15.769  1.00  0.00     0.165 C 
BRANCH  50  51
ATOM     51  O   UNL     1      28.287  32.925  16.227  1.00  0.00    -0.388 OA
ATOM     52  H   UNL     1      28.188  33.706  15.625  1.00  0.00     0.211 HD
ENDBRANCH  50  51
BRANCH  50  53
ATOM     53  C   UNL     1      29.482  31.031  16.832  1.00  0.00     0.154 C 
BRANCH  53  54
ATOM     54  N   UNL     1      28.258  30.809  17.515  1.00  0.00    -0.319 N 
ATOM     55  C   UNL     1      27.401  29.715  17.274  1.00  0.00     0.407 C 
ATOM     56  H   UNL     1      27.974  31.517  18.255  1.00  0.00     0.167 HD
ATOM     57  O   UNL     1      27.678  28.842  16.414  1.00  0.00    -0.225 OA
BRANCH  55  58
ATOM     58  O   UNL     1      26.203  29.557  17.984  1.00  0.00    -0.443 OA
BRANCH  58  59
ATOM     59  C   UNL     1      25.199  30.536  17.967  1.00  0.00     0.294 C 
BRANCH  59  60
ATOM     60  C   UNL     1      25.175  31.362  16.740  1.00  0.00     0.120 A 
ATOM     61  C   UNL     1      24.782  30.880  15.481  1.00  0.00     0.138 A 
ATOM     62  N   UNL     1      25.492  32.646  16.548  1.00  0.00    -0.132 NA
ATOM     63  N   UNL     1      24.880  31.878  14.609  1.00  0.00    -0.248 N 
ATOM     64  N   UNL     1      25.315  32.948  15.280  1.00  0.00    -0.067 NA
BRANCH  63  65
ATOM     65  C   UNL     1      24.575  31.891  13.178  1.00  0.00     0.182 C 
BRANCH  65  66
ATOM     66  C   UNL     1      23.128  31.821  12.883  1.00  0.00    -0.012 A 
ATOM     67  C   UNL     1      22.424  33.036  12.838  1.00  0.00     0.007 A 
ATOM     68  C   UNL     1      22.436  30.658  12.680  1.00  0.00     0.023 A 
ATOM     69  C   UNL     1      21.085  33.014  12.597  1.00  0.00     0.000 A 
ATOM     70  C   UNL     1      21.072  30.653  12.438  1.00  0.00     0.016 A 
ATOM     71  Br  UNL     1      23.339  28.987  12.668  1.00  0.00    -0.050 Br
ATOM     72  C   UNL     1      20.400  31.846  12.398  1.00  0.00     0.001 A 
ENDBRANCH  65  66
ENDBRANCH  63  65
ENDBRANCH  59  60
ENDBRANCH  58  59
ENDBRANCH  55  58
ENDBRANCH  53  54
ENDBRANCH  50  53
ENDBRANCH  47  50
ENDBRANCH   5  47
BRANCH   4  73
ATOM     73  N   UNL     1      32.393  35.327  15.306  1.00  0.00    -0.348 N 
ATOM     74  C   UNL     1      33.812  35.397  15.441  1.00  0.00     0.217 C 
ATOM     75  H   UNL     1      31.860  35.863  16.024  1.00  0.00     0.163 HD
ATOM     76  C   UNL     1      34.433  36.194  16.545  1.00  0.00     0.114 C 
ATOM     77  O   UNL     1      34.508  34.782  14.622  1.00  0.00    -0.275 OA
ENDBRANCH   4  73
TORSDOF 31
BEGIN_RES LYS A 131
REMARK  4 active torsions:
REMARK  status: ('A' for Active; 'I' for Inactive)
REMARK    1  A    between atoms: CA   and  CB  
REMARK    2  A    between atoms: CB   and  CG  
REMARK    3  A    between atoms: CG   and  CD  
REMARK    4  A    between atoms: CD   and  CE  
ROOT
ATOM      1  CA  LYS A 131      29.867  25.555  16.977  1.00 20.52     0.186 C 
ENDROOT
BRANCH   1   2
ATOM      2  CB  LYS A 131      28.345  25.722  17.026  1.00 20.94     0.034 C 
BRANCH   2   3
ATOM      3  CG  LYS A 131      27.600  24.414  16.809  1.00 22.96     0.005 C 
BRANCH   3   4
ATOM      4  CD  LYS A 131      26.722  24.062  17.978  1.00 24.33     0.041 C 
BRANCH   4   5
ATOM      5  CE  LYS A 131      25.420  23.450  17.470  1.00 26.91     0.338 C 
ATOM      6  NZ  LYS A 131      24.521  24.504  16.946  1.00 27.40     0.618 N 
ENDBRANCH   4   5
ENDBRANCH   3   4
ENDBRANCH   2   3
ENDBRANCH   1   2
END_RES LYS A 131
BEGIN_RES LYS A 135
REMARK  4 active torsions:
REMARK  status: ('A' for Active; 'I' for Inactive)
REMARK    5  A    between atoms: CA   and  CB  
REMARK    6  A    between atoms: CB   and  CG  
REMARK    7  A    between atoms: CG   and  CD  
REMARK    8  A    between atoms: CD   and  CE  
ROOT
ATOM      7  CA  LYS A 135      33.193  34.663   9.290  1.00 25.02     0.186 C 
ENDROOT
BRANCH   7   8
ATOM      8  CB  LYS A 135      32.060  35.360  10.034  1.00 26.63     0.034 C 
BRANCH   8   9
ATOM      9  CG  LYS A 135      31.153  36.161   9.136  1.00 29.45     0.005 C 
BRANCH   9  10
ATOM     10  CD  LYS A 135      31.176  37.632   9.525  1.00 32.00     0.041 C 
BRANCH  10  11
ATOM     11  CE  LYS A 135      29.924  38.332   9.033  1.00 34.25     0.338 C 
ATOM     12  NZ  LYS A 135      29.936  38.475   7.551  1.00 35.99     0.618 N 
ENDBRANCH  10  11
ENDBRANCH   9  10
ENDBRANCH   8   9
ENDBRANCH   7   8
END_RES LYS A 135
