REMARK VINA RESULT:    -5.380      6.314     12.852
REMARK INTER + INTRA:         -23.691
REMARK INTER:                 -13.671
REMARK INTRA:                 -10.020
REMARK UNBOUND:                -9.504
REMARK SMILES CC(=O)N[C@@H]1[C@@H](O)C[C@](OC[C@H]2O[C@@H](O[C@H]3[C@H](O)[C@@H](O)[C@H](OCCN=[N+]=[N-])O[C@@H]3CO)[C@H](O)[C@@H](O)[C@H]2O)(C(=O)O)O[C@H]1C(O)[C@H](O)CNC(=O)OCc1cn(COCc2ccccc2)nn1
REMARK SMILES IDX 43 1 42 2 9 3 8 4 41 5 6 6 5 7 10 8 11 9 12 10 14 11 13 12
REMARK SMILES IDX 32 13 34 14 36 15 15 16 16 17 29 18 28 19 21 20 17 21 19 22
REMARK SMILES IDX 30 23 31 24 22 26 23 27 24 28 25 29 26 30 27 31 18 32 20 34
REMARK SMILES IDX 33 36 35 38 37 40 38 42 39 43 40 44 7 46 4 48 2 49 1 51 3 52
REMARK SMILES IDX 44 53 45 55 46 56 47 58 48 59 49 60 50 62 51 63 52 64 53 65
REMARK SMILES IDX 54 66 66 67 55 68 65 69 56 70 57 71 58 72 59 73 60 74 64 75
REMARK SMILES IDX 61 76 63 77 62 78
REMARK H PARENT 31 25 18 33 20 35 33 37 35 39 37 41 40 45 7 47 4 50 44 54
REMARK H PARENT 46 57 48 61
REMARK Flexibility Score: inf
ROOT
ATOM      1  C   UNL     1      27.237  27.305  19.529  1.00  0.00     0.176 C 
ENDROOT
BRANCH   1   2
ATOM      2  C   UNL     1      26.993  27.876  20.943  1.00  0.00     0.178 C 
ATOM      3  C   UNL     1      28.095  29.324  22.390  1.00  0.00     0.272 C 
ATOM      4  C   UNL     1      27.743  28.407  23.557  1.00  0.00     0.113 C 
ATOM      5  O   UNL     1      28.182  28.517  21.298  1.00  0.00    -0.332 OA
ATOM      6  C   UNL     1      27.753  26.969  23.093  1.00  0.00     0.145 C 
ATOM      7  C   UNL     1      26.711  26.803  21.946  1.00  0.00     0.142 C 
BRANCH   3   8
ATOM      8  O   UNL     1      29.323  29.966  22.643  1.00  0.00    -0.338 OA
BRANCH   8   9
ATOM      9  C   UNL     1      30.409  29.491  22.015  1.00  0.00     0.199 C 
BRANCH   9  10
ATOM     10  C   UNL     1      31.058  30.573  21.184  1.00  0.00     0.179 C 
ATOM     11  C   UNL     1      30.788  32.196  19.626  1.00  0.00     0.282 C 
ATOM     12  O   UNL     1      30.094  31.236  20.397  1.00  0.00    -0.341 OA
ATOM     13  C   UNL     1      31.188  33.384  20.495  1.00  0.00     0.202 C 
ATOM     14  C   UNL     1      31.070  32.890  21.945  1.00  0.00     0.179 C 
ATOM     15  C   UNL     1      31.815  31.572  21.980  1.00  0.00     0.177 C 
BRANCH  11  16
ATOM     16  O   UNL     1      29.933  32.652  18.660  1.00  0.00    -0.341 OA
BRANCH  16  17
ATOM     17  C   UNL     1      30.259  32.238  17.376  1.00  0.00     0.184 C 
ATOM     18  C   UNL     1      30.946  33.282  16.571  1.00  0.00     0.178 C 
ATOM     19  O   UNL     1      30.058  34.252  16.216  1.00  0.00    -0.341 OA
ATOM     20  C   UNL     1      29.088  33.859  15.324  1.00  0.00     0.281 C 
ATOM     21  C   UNL     1      29.031  31.733  16.702  1.00  0.00     0.180 C 
ATOM     22  C   UNL     1      28.528  32.509  15.542  1.00  0.00     0.202 C 
BRANCH  18  23
ATOM     23  C   UNL     1      31.661  32.641  15.405  1.00  0.00     0.191 C 
BRANCH  23  24
ATOM     24  O   UNL     1      32.556  33.535  14.805  1.00  0.00    -0.394 OA
ATOM     25  H   UNL     1      32.169  34.446  14.819  1.00  0.00     0.210 HD
ENDBRANCH  23  24
ENDBRANCH  18  23
BRANCH  20  26
ATOM     26  O   UNL     1      29.663  33.914  14.049  1.00  0.00    -0.350 OA
BRANCH  26  27
ATOM     27  C   UNL     1      29.372  35.056  13.348  1.00  0.00     0.169 C 
BRANCH  27  28
ATOM     28  C   UNL     1      30.693  35.762  13.092  1.00  0.00     0.119 C 
BRANCH  28  29
ATOM     29  N   UNL     1      30.949  36.808  14.056  1.00  0.00    -0.092 NA
ATOM     30  N   UNL     1      31.991  36.792  14.735  1.00  0.00     0.001 N 
ATOM     31  N   UNL     1      32.689  36.461  15.713  1.00  0.00    -0.003 NA
ENDBRANCH  28  29
ENDBRANCH  27  28
ENDBRANCH  26  27
ENDBRANCH  20  26
BRANCH  21  32
ATOM     32  O   UNL     1      29.251  30.407  16.236  1.00  0.00    -0.387 OA
ATOM     33  H   UNL     1      28.901  29.742  16.849  1.00  0.00     0.211 HD
ENDBRANCH  21  32
BRANCH  22  34
ATOM     34  O   UNL     1      27.128  32.677  15.711  1.00  0.00    -0.385 OA
ATOM     35  H   UNL     1      26.746  32.677  14.795  1.00  0.00     0.211 HD
ENDBRANCH  22  34
ENDBRANCH  16  17
ENDBRANCH  11  16
BRANCH  13  36
ATOM     36  O   UNL     1      32.529  33.726  20.324  1.00  0.00    -0.385 OA
ATOM     37  H   UNL     1      32.968  33.639  21.207  1.00  0.00     0.211 HD
ENDBRANCH  13  36
BRANCH  14  38
ATOM     38  O   UNL     1      29.717  32.636  22.133  1.00  0.00    -0.387 OA
ATOM     39  H   UNL     1      29.530  32.024  22.887  1.00  0.00     0.211 HD
ENDBRANCH  14  38
BRANCH  15  40
ATOM     40  O   UNL     1      32.104  31.166  23.273  1.00  0.00    -0.387 OA
ATOM     41  H   UNL     1      31.402  30.589  23.669  1.00  0.00     0.211 HD
ENDBRANCH  15  40
ENDBRANCH   9  10
ENDBRANCH   8   9
ENDBRANCH   3   8
BRANCH   3  42
ATOM     42  C   UNL     1      27.125  30.401  22.196  1.00  0.00     0.364 C 
ATOM     43  O   UNL     1      26.067  30.605  22.848  1.00  0.00    -0.246 OA
BRANCH  42  44
ATOM     44  O   UNL     1      27.357  31.350  21.171  1.00  0.00    -0.477 OA
ATOM     45  H   UNL     1      27.303  31.076  20.191  1.00  0.00     0.296 HD
ENDBRANCH  42  44
ENDBRANCH   3  42
BRANCH   6  46
ATOM     46  O   UNL     1      28.924  26.473  22.639  1.00  0.00    -0.391 OA
ATOM     47  H   UNL     1      29.544  26.189  23.380  1.00  0.00     0.211 HD
ENDBRANCH   6  46
BRANCH   7  48
ATOM     48  N   UNL     1      25.440  26.971  22.609  1.00  0.00    -0.348 N 
ATOM     49  C   UNL     1      24.752  25.825  23.059  1.00  0.00     0.217 C 
ATOM     50  H   UNL     1      25.041  27.901  22.748  1.00  0.00     0.163 HD
ATOM     51  C   UNL     1      23.447  25.973  23.758  1.00  0.00     0.114 C 
ATOM     52  O   UNL     1      25.234  24.661  22.882  1.00  0.00    -0.275 OA
ENDBRANCH   7  48
ENDBRANCH   1   2
BRANCH   1  53
ATOM     53  O   UNL     1      28.509  26.619  19.611  1.00  0.00    -0.388 OA
ATOM     54  H   UNL     1      28.884  26.650  18.682  1.00  0.00     0.211 HD
ENDBRANCH   1  53
BRANCH   1  55
ATOM     55  C   UNL     1      27.399  28.324  18.457  1.00  0.00     0.165 C 
BRANCH  55  56
ATOM     56  O   UNL     1      27.796  29.577  18.829  1.00  0.00    -0.388 OA
ATOM     57  H   UNL     1      28.736  29.789  18.634  1.00  0.00     0.211 HD
ENDBRANCH  55  56
BRANCH  55  58
ATOM     58  C   UNL     1      26.465  28.344  17.309  1.00  0.00     0.154 C 
BRANCH  58  59
ATOM     59  N   UNL     1      26.245  29.595  16.640  1.00  0.00    -0.319 N 
ATOM     60  C   UNL     1      25.043  29.952  15.974  1.00  0.00     0.407 C 
ATOM     61  H   UNL     1      26.994  30.321  16.634  1.00  0.00     0.167 HD
ATOM     62  O   UNL     1      24.089  29.167  15.950  1.00  0.00    -0.225 OA
BRANCH  60  63
ATOM     63  O   UNL     1      24.850  31.174  15.318  1.00  0.00    -0.443 OA
BRANCH  63  64
ATOM     64  C   UNL     1      23.633  31.897  15.512  1.00  0.00     0.294 C 
BRANCH  64  65
ATOM     65  C   UNL     1      23.086  32.432  14.244  1.00  0.00     0.120 A 
ATOM     66  C   UNL     1      23.523  33.600  13.655  1.00  0.00     0.141 A 
ATOM     67  N   UNL     1      22.118  31.951  13.454  1.00  0.00    -0.132 NA
ATOM     68  N   UNL     1      22.801  33.787  12.523  1.00  0.00    -0.226 N 
ATOM     69  N   UNL     1      21.958  32.769  12.432  1.00  0.00    -0.065 NA
BRANCH  68  70
ATOM     70  C   UNL     1      22.898  34.867  11.567  1.00  0.00     0.307 C 
BRANCH  70  71
ATOM     71  O   UNL     1      23.923  35.725  11.858  1.00  0.00    -0.355 OA
BRANCH  71  72
ATOM     72  C   UNL     1      24.388  36.320  10.696  1.00  0.00     0.198 C 
BRANCH  72  73
ATOM     73  C   UNL     1      25.494  35.473  10.125  1.00  0.00    -0.022 A 
ATOM     74  C   UNL     1      26.383  34.894  11.007  1.00  0.00     0.006 A 
ATOM     75  C   UNL     1      25.610  35.287   8.772  1.00  0.00     0.006 A 
ATOM     76  C   UNL     1      27.411  34.113  10.524  1.00  0.00     0.000 A 
ATOM     77  C   UNL     1      26.634  34.510   8.316  1.00  0.00     0.000 A 
ATOM     78  C   UNL     1      27.549  33.910   9.167  1.00  0.00     0.000 A 
ENDBRANCH  72  73
ENDBRANCH  71  72
ENDBRANCH  70  71
ENDBRANCH  68  70
ENDBRANCH  64  65
ENDBRANCH  63  64
ENDBRANCH  60  63
ENDBRANCH  58  59
ENDBRANCH  55  58
ENDBRANCH   1  55
TORSDOF 33
BEGIN_RES LYS A 131
REMARK  4 active torsions:
REMARK  status: ('A' for Active; 'I' for Inactive)
REMARK    1  A    between atoms: CA   and  CB  
REMARK    2  A    between atoms: CB   and  CG  
REMARK    3  A    between atoms: CG   and  CD  
REMARK    4  A    between atoms: CD   and  CE  
ROOT
ATOM      1  CA  LYS A 131      29.867  25.555  16.977  1.00 20.52     0.186 C 
ENDROOT
BRANCH   1   2
ATOM      2  CB  LYS A 131      28.345  25.722  17.026  1.00 20.94     0.034 C 
BRANCH   2   3
ATOM      3  CG  LYS A 131      27.602  24.398  16.934  1.00 22.96     0.005 C 
BRANCH   3   4
ATOM      4  CD  LYS A 131      26.152  24.535  17.306  1.00 24.33     0.041 C 
BRANCH   4   5
ATOM      5  CE  LYS A 131      25.743  23.370  18.200  1.00 26.91     0.338 C 
ATOM      6  NZ  LYS A 131      25.504  23.838  19.586  1.00 27.40     0.618 N 
ENDBRANCH   4   5
ENDBRANCH   3   4
ENDBRANCH   2   3
ENDBRANCH   1   2
END_RES LYS A 131
BEGIN_RES LYS A 135
REMARK  4 active torsions:
REMARK  status: ('A' for Active; 'I' for Inactive)
REMARK    5  A    between atoms: CA   and  CB  
REMARK    6  A    between atoms: CB   and  CG  
REMARK    7  A    between atoms: CG   and  CD  
REMARK    8  A    between atoms: CD   and  CE  
ROOT
ATOM      7  CA  LYS A 135      33.193  34.663   9.290  1.00 25.02     0.186 C 
ENDROOT
BRANCH   7   8
ATOM      8  CB  LYS A 135      32.060  35.360  10.034  1.00 26.63     0.034 C 
BRANCH   8   9
ATOM      9  CG  LYS A 135      30.761  35.381   9.271  1.00 29.45     0.005 C 
BRANCH   9  10
ATOM     10  CD  LYS A 135      30.027  36.693   9.496  1.00 32.00     0.041 C 
BRANCH  10  11
ATOM     11  CE  LYS A 135      29.290  37.114   8.239  1.00 34.25     0.338 C 
ATOM     12  NZ  LYS A 135      28.092  37.934   8.569  1.00 35.99     0.618 N 
ENDBRANCH  10  11
ENDBRANCH   9  10
ENDBRANCH   8   9
ENDBRANCH   7   8
END_RES LYS A 135
