REMARK VINA RESULT:    -4.929      4.067      8.437
REMARK INTER + INTRA:         -23.634
REMARK INTER:                 -13.975
REMARK INTRA:                  -9.659
REMARK UNBOUND:               -11.213
REMARK SMILES CC(=O)N[C@@H]1[C@@H](O)C[C@](OC[C@H]2O[C@@H](O[C@H]3[C@H](O)[C@@H](O)[C@H](OCCN=[N+]=[N-])O[C@@H]3CO)[C@H](O)[C@@H](O)[C@H]2O)(C(=O)O)O[C@H]1C(O)[C@H](O)CNC(=O)OCc1cn(CC2=CC[C@H]3C[C@@H]2C3(C)C)nn1
REMARK SMILES IDX 9 1 8 2 6 3 5 4 42 5 41 6 10 7 11 8 12 9 14 10 13 11 32 12
REMARK SMILES IDX 34 13 36 14 15 15 16 16 29 17 28 18 21 19 17 20 19 21 30 22
REMARK SMILES IDX 31 23 22 25 23 26 24 27 25 28 26 29 27 30 18 31 20 33 33 35
REMARK SMILES IDX 35 37 37 39 38 41 39 42 40 43 7 45 43 47 44 48 45 50 46 51
REMARK SMILES IDX 47 53 48 54 49 55 50 57 51 58 52 59 53 60 54 61 67 62 55 63
REMARK SMILES IDX 66 64 56 65 57 66 58 67 62 68 59 69 61 70 63 71 60 72 64 73
REMARK SMILES IDX 65 74 4 75 2 76 1 78 3 79
REMARK H PARENT 31 24 18 32 20 34 33 36 35 38 37 40 40 44 7 46 44 49 46 52
REMARK H PARENT 48 56 4 77
REMARK Flexibility Score: inf
ROOT
ATOM      1  C   UNL     1      28.952  35.126   8.409  1.00  0.00     0.272 C 
ATOM      2  C   UNL     1      28.745  33.897   9.233  1.00  0.00     0.113 C 
ATOM      3  C   UNL     1      27.368  33.945   9.918  1.00  0.00     0.145 C 
ATOM      4  C   UNL     1      27.287  35.098  10.851  1.00  0.00     0.142 C 
ATOM      5  C   UNL     1      28.446  36.016  10.520  1.00  0.00     0.178 C 
ATOM      6  O   UNL     1      28.547  36.256   9.197  1.00  0.00    -0.332 OA
ENDROOT
BRANCH   1   7
ATOM      7  O   UNL     1      28.241  35.235   7.297  1.00  0.00    -0.338 OA
BRANCH   7   8
ATOM      8  C   UNL     1      28.408  36.026   6.268  1.00  0.00     0.199 C 
BRANCH   8   9
ATOM      9  C   UNL     1      27.841  37.370   6.087  1.00  0.00     0.179 C 
ATOM     10  C   UNL     1      26.272  38.744   7.087  1.00  0.00     0.282 C 
ATOM     11  O   UNL     1      27.119  37.661   7.286  1.00  0.00    -0.341 OA
ATOM     12  C   UNL     1      26.829  39.860   6.325  1.00  0.00     0.202 C 
ATOM     13  C   UNL     1      28.162  39.725   5.702  1.00  0.00     0.179 C 
ATOM     14  C   UNL     1      28.904  38.485   6.133  1.00  0.00     0.177 C 
BRANCH  10  15
ATOM     15  O   UNL     1      25.949  39.173   8.389  1.00  0.00    -0.341 OA
BRANCH  15  16
ATOM     16  C   UNL     1      24.635  38.903   8.728  1.00  0.00     0.184 C 
ATOM     17  C   UNL     1      23.999  40.116   9.343  1.00  0.00     0.178 C 
ATOM     18  O   UNL     1      22.829  39.854  10.035  1.00  0.00    -0.341 OA
ATOM     19  C   UNL     1      22.302  38.605   9.885  1.00  0.00     0.281 C 
ATOM     20  C   UNL     1      24.673  37.831   9.822  1.00  0.00     0.180 C 
ATOM     21  C   UNL     1      23.267  37.494  10.216  1.00  0.00     0.202 C 
BRANCH  17  22
ATOM     22  C   UNL     1      23.691  41.109   8.215  1.00  0.00     0.191 C 
BRANCH  22  23
ATOM     23  O   UNL     1      23.378  40.378   7.079  1.00  0.00    -0.394 OA
ATOM     24  H   UNL     1      24.130  39.731   6.912  1.00  0.00     0.210 HD
ENDBRANCH  22  23
ENDBRANCH  17  22
BRANCH  19  25
ATOM     25  O   UNL     1      21.805  38.398   8.591  1.00  0.00    -0.350 OA
BRANCH  25  26
ATOM     26  C   UNL     1      20.772  37.460   8.574  1.00  0.00     0.169 C 
BRANCH  26  27
ATOM     27  C   UNL     1      21.162  36.442   7.500  1.00  0.00     0.119 C 
BRANCH  27  28
ATOM     28  N   UNL     1      20.761  35.118   7.927  1.00  0.00    -0.092 NA
ATOM     29  N   UNL     1      19.620  34.711   7.803  1.00  0.00     0.001 N 
ATOM     30  N   UNL     1      18.426  34.390   7.788  1.00  0.00    -0.003 NA
ENDBRANCH  27  28
ENDBRANCH  26  27
ENDBRANCH  25  26
ENDBRANCH  19  25
BRANCH  20  31
ATOM     31  O   UNL     1      25.281  36.665   9.320  1.00  0.00    -0.387 OA
ATOM     32  H   UNL     1      25.622  36.821   8.413  1.00  0.00     0.211 HD
ENDBRANCH  20  31
BRANCH  21  33
ATOM     33  O   UNL     1      23.157  37.138  11.559  1.00  0.00    -0.385 OA
ATOM     34  H   UNL     1      23.732  36.335  11.713  1.00  0.00     0.211 HD
ENDBRANCH  21  33
ENDBRANCH  15  16
ENDBRANCH  10  15
BRANCH  12  35
ATOM     35  O   UNL     1      25.905  40.168   5.291  1.00  0.00    -0.385 OA
ATOM     36  H   UNL     1      26.167  39.742   4.436  1.00  0.00     0.211 HD
ENDBRANCH  12  35
BRANCH  13  37
ATOM     37  O   UNL     1      28.932  40.884   5.845  1.00  0.00    -0.387 OA
ATOM     38  H   UNL     1      29.779  40.673   6.325  1.00  0.00     0.211 HD
ENDBRANCH  13  37
BRANCH  14  39
ATOM     39  O   UNL     1      29.259  38.656   7.487  1.00  0.00    -0.387 OA
ATOM     40  H   UNL     1      29.990  39.319   7.564  1.00  0.00     0.211 HD
ENDBRANCH  14  39
ENDBRANCH   8   9
ENDBRANCH   7   8
ENDBRANCH   1   7
BRANCH   1  41
ATOM     41  C   UNL     1      30.404  35.399   8.251  1.00  0.00     0.364 C 
ATOM     42  O   UNL     1      31.203  34.446   7.944  1.00  0.00    -0.246 OA
BRANCH  41  43
ATOM     43  O   UNL     1      30.963  36.621   8.419  1.00  0.00    -0.477 OA
ATOM     44  H   UNL     1      30.508  37.519   8.406  1.00  0.00     0.296 HD
ENDBRANCH  41  43
ENDBRANCH   1  41
BRANCH   3  45
ATOM     45  O   UNL     1      26.483  34.209   8.862  1.00  0.00    -0.391 OA
ATOM     46  H   UNL     1      26.118  35.118   8.996  1.00  0.00     0.211 HD
ENDBRANCH   3  45
BRANCH   5  47
ATOM     47  C   UNL     1      28.276  37.365  11.224  1.00  0.00     0.176 C 
BRANCH  47  48
ATOM     48  O   UNL     1      27.901  38.332  10.328  1.00  0.00    -0.388 OA
ATOM     49  H   UNL     1      28.161  38.150   9.382  1.00  0.00     0.211 HD
ENDBRANCH  47  48
BRANCH  47  50
ATOM     50  C   UNL     1      29.533  37.747  11.947  1.00  0.00     0.165 C 
BRANCH  50  51
ATOM     51  O   UNL     1      29.159  37.870  13.316  1.00  0.00    -0.388 OA
ATOM     52  H   UNL     1      29.886  38.457  13.696  1.00  0.00     0.211 HD
ENDBRANCH  50  51
BRANCH  50  53
ATOM     53  C   UNL     1      30.029  39.098  11.539  1.00  0.00     0.154 C 
BRANCH  53  54
ATOM     54  N   UNL     1      30.579  39.170  10.224  1.00  0.00    -0.319 N 
ATOM     55  C   UNL     1      31.592  40.110   9.923  1.00  0.00     0.407 C 
ATOM     56  H   UNL     1      30.227  38.511   9.485  1.00  0.00     0.167 HD
ATOM     57  O   UNL     1      32.010  40.879  10.799  1.00  0.00    -0.225 OA
BRANCH  55  58
ATOM     58  O   UNL     1      32.133  40.187   8.654  1.00  0.00    -0.443 OA
BRANCH  58  59
ATOM     59  C   UNL     1      31.890  41.169   7.703  1.00  0.00     0.294 C 
BRANCH  59  60
ATOM     60  C   UNL     1      32.454  40.878   6.353  1.00  0.00     0.120 A 
ATOM     61  C   UNL     1      33.613  41.363   5.795  1.00  0.00     0.138 A 
ATOM     62  N   UNL     1      31.911  40.053   5.414  1.00  0.00    -0.132 NA
ATOM     63  N   UNL     1      33.750  40.844   4.573  1.00  0.00    -0.248 N 
ATOM     64  N   UNL     1      32.711  40.058   4.368  1.00  0.00    -0.067 NA
BRANCH  63  65
ATOM     65  C   UNL     1      34.850  41.089   3.621  1.00  0.00     0.177 C 
BRANCH  65  66
ATOM     66  C   UNL     1      35.910  40.090   3.983  1.00  0.00    -0.049 C 
ATOM     67  C   UNL     1      35.793  38.799   3.612  1.00  0.00    -0.025 C 
ATOM     68  C   UNL     1      37.113  40.456   4.744  1.00  0.00     0.023 C 
ATOM     69  C   UNL     1      36.775  37.816   4.120  1.00  0.00     0.031 C 
ATOM     70  C   UNL     1      38.292  39.744   4.067  1.00  0.00     0.013 C 
ATOM     71  C   UNL     1      37.288  39.509   5.892  1.00  0.00    -0.026 C 
ATOM     72  C   UNL     1      37.868  38.513   4.878  1.00  0.00    -0.000 C 
ATOM     73  C   UNL     1      38.366  39.901   6.875  1.00  0.00     0.012 C 
ATOM     74  C   UNL     1      36.058  39.050   6.600  1.00  0.00     0.012 C 
ENDBRANCH  65  66
ENDBRANCH  63  65
ENDBRANCH  59  60
ENDBRANCH  58  59
ENDBRANCH  55  58
ENDBRANCH  53  54
ENDBRANCH  50  53
ENDBRANCH  47  50
ENDBRANCH   5  47
BRANCH   4  75
ATOM     75  N   UNL     1      27.343  34.810  12.242  1.00  0.00    -0.348 N 
ATOM     76  C   UNL     1      26.296  34.927  13.167  1.00  0.00     0.217 C 
ATOM     77  H   UNL     1      28.282  34.472  12.602  1.00  0.00     0.163 HD
ATOM     78  C   UNL     1      26.493  34.590  14.601  1.00  0.00     0.114 C 
ATOM     79  O   UNL     1      25.201  35.325  12.732  1.00  0.00    -0.275 OA
ENDBRANCH   4  75
TORSDOF 31
BEGIN_RES LYS A 131
REMARK  4 active torsions:
REMARK  status: ('A' for Active; 'I' for Inactive)
REMARK    1  A    between atoms: CA   and  CB  
REMARK    2  A    between atoms: CB   and  CG  
REMARK    3  A    between atoms: CG   and  CD  
REMARK    4  A    between atoms: CD   and  CE  
ROOT
ATOM      1  CA  LYS A 131      29.867  25.555  16.977  1.00 20.52     0.186 C 
ENDROOT
BRANCH   1   2
ATOM      2  CB  LYS A 131      28.345  25.722  17.026  1.00 20.94     0.034 C 
BRANCH   2   3
ATOM      3  CG  LYS A 131      27.601  24.406  16.862  1.00 22.96     0.005 C 
BRANCH   3   4
ATOM      4  CD  LYS A 131      26.662  24.139  18.006  1.00 24.33     0.041 C 
BRANCH   4   5
ATOM      5  CE  LYS A 131      25.652  23.072  17.597  1.00 26.91     0.338 C 
ATOM      6  NZ  LYS A 131      24.712  22.794  18.709  1.00 27.40     0.618 N 
ENDBRANCH   4   5
ENDBRANCH   3   4
ENDBRANCH   2   3
ENDBRANCH   1   2
END_RES LYS A 131
BEGIN_RES LYS A 135
REMARK  4 active torsions:
REMARK  status: ('A' for Active; 'I' for Inactive)
REMARK    5  A    between atoms: CA   and  CB  
REMARK    6  A    between atoms: CB   and  CG  
REMARK    7  A    between atoms: CG   and  CD  
REMARK    8  A    between atoms: CD   and  CE  
ROOT
ATOM      7  CA  LYS A 135      33.193  34.663   9.290  1.00 25.02     0.186 C 
ENDROOT
BRANCH   7   8
ATOM      8  CB  LYS A 135      32.060  35.360  10.034  1.00 26.63     0.034 C 
BRANCH   8   9
ATOM      9  CG  LYS A 135      32.014  35.034  11.505  1.00 29.45     0.005 C 
BRANCH   9  10
ATOM     10  CD  LYS A 135      32.671  36.137  12.320  1.00 32.00     0.041 C 
BRANCH  10  11
ATOM     11  CE  LYS A 135      32.299  36.011  13.784  1.00 34.25     0.338 C 
ATOM     12  NZ  LYS A 135      31.153  35.078  13.968  1.00 35.99     0.618 N 
ENDBRANCH  10  11
ENDBRANCH   9  10
ENDBRANCH   8   9
ENDBRANCH   7   8
END_RES LYS A 135
