REMARK VINA RESULT:    -5.162      0.000      0.000
REMARK INTER + INTRA:         -24.221
REMARK INTER:                 -12.671
REMARK INTRA:                 -11.550
REMARK UNBOUND:               -11.213
REMARK SMILES CC(=O)N[C@@H]1[C@@H](O)C[C@](OC[C@H]2O[C@@H](O[C@H]3[C@H](O)[C@@H](O)[C@H](OCCN=[N+]=[N-])O[C@@H]3CO)[C@H](O)[C@@H](O)[C@H]2O)(C(=O)O)O[C@H]1C(O)[C@H](O)CNC(=O)OCc1cn(CC2=CC[C@H]3C[C@@H]2C3(C)C)nn1
REMARK SMILES IDX 9 1 8 2 6 3 5 4 42 5 41 6 10 7 11 8 12 9 14 10 13 11 32 12
REMARK SMILES IDX 34 13 36 14 15 15 16 16 29 17 28 18 21 19 17 20 19 21 30 22
REMARK SMILES IDX 31 23 22 25 23 26 24 27 25 28 26 29 27 30 18 31 20 33 33 35
REMARK SMILES IDX 35 37 37 39 38 41 39 42 40 43 7 45 43 47 44 48 45 50 46 51
REMARK SMILES IDX 47 53 48 54 49 55 50 57 51 58 52 59 53 60 54 61 67 62 55 63
REMARK SMILES IDX 66 64 56 65 57 66 58 67 62 68 59 69 61 70 63 71 60 72 64 73
REMARK SMILES IDX 65 74 4 75 2 76 1 78 3 79
REMARK H PARENT 31 24 18 32 20 34 33 36 35 38 37 40 40 44 7 46 44 49 46 52
REMARK H PARENT 48 56 4 77
REMARK Flexibility Score: inf
ROOT
ATOM      1  C   UNL     1      28.972  35.145   8.486  1.00  0.00     0.272 C 
ATOM      2  C   UNL     1      28.871  33.865   9.249  1.00  0.00     0.113 C 
ATOM      3  C   UNL     1      27.559  33.830  10.052  1.00  0.00     0.145 C 
ATOM      4  C   UNL     1      27.531  34.924  11.057  1.00  0.00     0.142 C 
ATOM      5  C   UNL     1      28.632  35.896  10.682  1.00  0.00     0.178 C 
ATOM      6  O   UNL     1      28.608  36.215   9.372  1.00  0.00    -0.332 OA
ENDROOT
BRANCH   1   7
ATOM      7  O   UNL     1      28.163  35.296   7.448  1.00  0.00    -0.338 OA
BRANCH   7   8
ATOM      8  C   UNL     1      28.209  36.159   6.466  1.00  0.00     0.199 C 
BRANCH   8   9
ATOM      9  C   UNL     1      27.502  37.446   6.388  1.00  0.00     0.179 C 
ATOM     10  C   UNL     1      25.665  38.479   7.341  1.00  0.00     0.282 C 
ATOM     11  O   UNL     1      26.613  37.478   7.507  1.00  0.00    -0.341 OA
ATOM     12  C   UNL     1      26.162  39.749   6.813  1.00  0.00     0.202 C 
ATOM     13  C   UNL     1      27.565  39.853   6.362  1.00  0.00     0.179 C 
ATOM     14  C   UNL     1      28.403  38.651   6.723  1.00  0.00     0.177 C 
BRANCH  10  15
ATOM     15  O   UNL     1      25.139  38.676   8.632  1.00  0.00    -0.341 OA
BRANCH  15  16
ATOM     16  C   UNL     1      23.829  38.246   8.745  1.00  0.00     0.184 C 
ATOM     17  C   UNL     1      23.007  39.272   9.470  1.00  0.00     0.178 C 
ATOM     18  O   UNL     1      21.799  38.796   9.948  1.00  0.00    -0.341 OA
ATOM     19  C   UNL     1      21.421  37.558   9.518  1.00  0.00     0.281 C 
ATOM     20  C   UNL     1      23.850  36.998   9.634  1.00  0.00     0.180 C 
ATOM     21  C   UNL     1      22.449  36.485   9.778  1.00  0.00     0.202 C 
BRANCH  17  22
ATOM     22  C   UNL     1      22.732  40.426   8.499  1.00  0.00     0.191 C 
BRANCH  22  23
ATOM     23  O   UNL     1      22.633  39.893   7.222  1.00  0.00    -0.394 OA
ATOM     24  H   UNL     1      23.087  38.996   7.226  1.00  0.00     0.210 HD
ENDBRANCH  22  23
ENDBRANCH  17  22
BRANCH  19  25
ATOM     25  O   UNL     1      21.099  37.552   8.154  1.00  0.00    -0.350 OA
BRANCH  25  26
ATOM     26  C   UNL     1      20.953  36.255   7.660  1.00  0.00     0.169 C 
BRANCH  26  27
ATOM     27  C   UNL     1      19.444  35.999   7.628  1.00  0.00     0.119 C 
BRANCH  27  28
ATOM     28  N   UNL     1      19.158  34.736   8.275  1.00  0.00    -0.092 NA
ATOM     29  N   UNL     1      19.286  34.575   9.475  1.00  0.00     0.001 N 
ATOM     30  N   UNL     1      19.561  34.414  10.670  1.00  0.00    -0.003 NA
ENDBRANCH  27  28
ENDBRANCH  26  27
ENDBRANCH  25  26
ENDBRANCH  19  25
BRANCH  20  31
ATOM     31  O   UNL     1      24.626  35.996   9.024  1.00  0.00    -0.387 OA
ATOM     32  H   UNL     1      25.569  36.265   8.993  1.00  0.00     0.211 HD
ENDBRANCH  20  31
BRANCH  21  33
ATOM     33  O   UNL     1      22.223  35.882  11.014  1.00  0.00    -0.385 OA
ATOM     34  H   UNL     1      21.419  35.294  10.927  1.00  0.00     0.211 HD
ENDBRANCH  21  33
ENDBRANCH  15  16
ENDBRANCH  10  15
BRANCH  12  35
ATOM     35  O   UNL     1      25.334  40.103   5.714  1.00  0.00    -0.385 OA
ATOM     36  H   UNL     1      25.840  40.616   5.034  1.00  0.00     0.211 HD
ENDBRANCH  12  35
BRANCH  13  37
ATOM     37  O   UNL     1      28.160  41.055   6.758  1.00  0.00    -0.387 OA
ATOM     38  H   UNL     1      28.291  41.647   5.968  1.00  0.00     0.211 HD
ENDBRANCH  13  37
BRANCH  14  39
ATOM     39  O   UNL     1      28.571  38.660   8.122  1.00  0.00    -0.387 OA
ATOM     40  H   UNL     1      29.534  38.636   8.347  1.00  0.00     0.211 HD
ENDBRANCH  14  39
ENDBRANCH   8   9
ENDBRANCH   7   8
ENDBRANCH   1   7
BRANCH   1  41
ATOM     41  C   UNL     1      30.397  35.472   8.219  1.00  0.00     0.364 C 
ATOM     42  O   UNL     1      31.222  34.538   7.922  1.00  0.00    -0.246 OA
BRANCH  41  43
ATOM     43  O   UNL     1      30.904  36.727   8.274  1.00  0.00    -0.477 OA
ATOM     44  H   UNL     1      31.493  37.128   8.984  1.00  0.00     0.296 HD
ENDBRANCH  41  43
ENDBRANCH   1  41
BRANCH   3  45
ATOM     45  O   UNL     1      26.578  34.126   9.094  1.00  0.00    -0.391 OA
ATOM     46  H   UNL     1      25.867  34.647   9.543  1.00  0.00     0.211 HD
ENDBRANCH   3  45
BRANCH   5  47
ATOM     47  C   UNL     1      28.490  37.195  11.478  1.00  0.00     0.176 C 
BRANCH  47  48
ATOM     48  O   UNL     1      28.877  37.008  12.779  1.00  0.00    -0.388 OA
ATOM     49  H   UNL     1      29.452  37.733  13.153  1.00  0.00     0.211 HD
ENDBRANCH  47  48
BRANCH  47  50
ATOM     50  C   UNL     1      27.086  37.717  11.395  1.00  0.00     0.165 C 
BRANCH  50  51
ATOM     51  O   UNL     1      27.184  38.957  10.701  1.00  0.00    -0.388 OA
ATOM     52  H   UNL     1      26.827  38.731   9.786  1.00  0.00     0.211 HD
ENDBRANCH  50  51
BRANCH  50  53
ATOM     53  C   UNL     1      26.528  38.049  12.743  1.00  0.00     0.154 C 
BRANCH  53  54
ATOM     54  N   UNL     1      25.303  37.394  13.069  1.00  0.00    -0.319 N 
ATOM     55  C   UNL     1      24.075  38.092  12.987  1.00  0.00     0.407 C 
ATOM     56  H   UNL     1      25.323  36.386  13.363  1.00  0.00     0.167 HD
ATOM     57  O   UNL     1      24.054  39.278  12.632  1.00  0.00    -0.225 OA
BRANCH  55  58
ATOM     58  O   UNL     1      22.882  37.467  13.298  1.00  0.00    -0.443 OA
BRANCH  58  59
ATOM     59  C   UNL     1      22.368  37.240  14.567  1.00  0.00     0.294 C 
BRANCH  59  60
ATOM     60  C   UNL     1      22.841  35.981  15.213  1.00  0.00     0.120 A 
ATOM     61  C   UNL     1      22.158  34.798  15.364  1.00  0.00     0.138 A 
ATOM     62  N   UNL     1      24.066  35.773  15.771  1.00  0.00    -0.132 NA
ATOM     63  N   UNL     1      22.950  33.923  15.989  1.00  0.00    -0.248 N 
ATOM     64  N   UNL     1      24.094  34.537  16.223  1.00  0.00    -0.067 NA
BRANCH  63  65
ATOM     65  C   UNL     1      22.626  32.531  16.352  1.00  0.00     0.177 C 
BRANCH  65  66
ATOM     66  C   UNL     1      22.913  31.728  15.117  1.00  0.00    -0.049 C 
ATOM     67  C   UNL     1      24.151  31.704  14.585  1.00  0.00    -0.025 C 
ATOM     68  C   UNL     1      21.881  30.934  14.434  1.00  0.00     0.023 C 
ATOM     69  C   UNL     1      24.359  31.032  13.284  1.00  0.00     0.031 C 
ATOM     70  C   UNL     1      22.532  29.593  14.068  1.00  0.00     0.013 C 
ATOM     71  C   UNL     1      21.885  31.258  12.971  1.00  0.00    -0.026 C 
ATOM     72  C   UNL     1      23.103  30.332  12.850  1.00  0.00    -0.000 C 
ATOM     73  C   UNL     1      20.734  30.669  12.191  1.00  0.00     0.012 C 
ATOM     74  C   UNL     1      22.126  32.677  12.581  1.00  0.00     0.012 C 
ENDBRANCH  65  66
ENDBRANCH  63  65
ENDBRANCH  59  60
ENDBRANCH  58  59
ENDBRANCH  55  58
ENDBRANCH  53  54
ENDBRANCH  50  53
ENDBRANCH  47  50
ENDBRANCH   5  47
BRANCH   4  75
ATOM     75  N   UNL     1      27.717  34.558  12.417  1.00  0.00    -0.348 N 
ATOM     76  C   UNL     1      26.714  34.320  13.368  1.00  0.00     0.217 C 
ATOM     77  H   UNL     1      28.726  34.459  12.731  1.00  0.00     0.163 HD
ATOM     78  C   UNL     1      27.051  33.942  14.765  1.00  0.00     0.114 C 
ATOM     79  O   UNL     1      25.537  34.441  12.987  1.00  0.00    -0.275 OA
ENDBRANCH   4  75
TORSDOF 31
BEGIN_RES LYS A 131
REMARK  4 active torsions:
REMARK  status: ('A' for Active; 'I' for Inactive)
REMARK    1  A    between atoms: CA   and  CB  
REMARK    2  A    between atoms: CB   and  CG  
REMARK    3  A    between atoms: CG   and  CD  
REMARK    4  A    between atoms: CD   and  CE  
ROOT
ATOM      1  CA  LYS A 131      29.867  25.555  16.977  1.00 20.52     0.186 C 
ENDROOT
BRANCH   1   2
ATOM      2  CB  LYS A 131      28.345  25.722  17.026  1.00 20.94     0.034 C 
BRANCH   2   3
ATOM      3  CG  LYS A 131      27.602  24.399  16.922  1.00 22.96     0.005 C 
BRANCH   3   4
ATOM      4  CD  LYS A 131      26.532  24.266  17.970  1.00 24.33     0.041 C 
BRANCH   4   5
ATOM      5  CE  LYS A 131      25.205  23.923  17.302  1.00 26.91     0.338 C 
ATOM      6  NZ  LYS A 131      24.875  22.493  17.508  1.00 27.40     0.618 N 
ENDBRANCH   4   5
ENDBRANCH   3   4
ENDBRANCH   2   3
ENDBRANCH   1   2
END_RES LYS A 131
BEGIN_RES LYS A 135
REMARK  4 active torsions:
REMARK  status: ('A' for Active; 'I' for Inactive)
REMARK    5  A    between atoms: CA   and  CB  
REMARK    6  A    between atoms: CB   and  CG  
REMARK    7  A    between atoms: CG   and  CD  
REMARK    8  A    between atoms: CD   and  CE  
ROOT
ATOM      7  CA  LYS A 135      33.193  34.663   9.290  1.00 25.02     0.186 C 
ENDROOT
BRANCH   7   8
ATOM      8  CB  LYS A 135      32.060  35.360  10.034  1.00 26.63     0.034 C 
BRANCH   8   9
ATOM      9  CG  LYS A 135      32.503  36.047  11.300  1.00 29.45     0.005 C 
BRANCH   9  10
ATOM     10  CD  LYS A 135      31.910  35.359  12.520  1.00 32.00     0.041 C 
BRANCH  10  11
ATOM     11  CE  LYS A 135      32.930  35.289  13.640  1.00 34.25     0.338 C 
ATOM     12  NZ  LYS A 135      32.572  36.215  14.750  1.00 35.99     0.618 N 
ENDBRANCH  10  11
ENDBRANCH   9  10
ENDBRANCH   8   9
ENDBRANCH   7   8
END_RES LYS A 135
