REMARK VINA RESULT:    -4.791      3.433      8.507
REMARK INTER + INTRA:         -24.125
REMARK INTER:                 -13.318
REMARK INTRA:                 -10.806
REMARK UNBOUND:               -11.071
REMARK SMILES CC(=O)N[C@@H]1[C@@H](O)C[C@](OC[C@H]2O[C@@H](O[C@H]3[C@H](O)[C@@H](O)[C@H](OCCN=[N+]=[N-])O[C@@H]3CO)[C@H](O)[C@@H](O)[C@H]2O)(C(=O)O)O[C@H]1C(O)[C@H](O)CNC(=O)OCc1cn(CC(O)CCc2ccccc2)nn1
REMARK SMILES IDX 43 1 42 2 9 3 8 4 41 5 6 6 5 7 10 8 11 9 12 10 14 11 13 12
REMARK SMILES IDX 32 13 34 14 36 15 15 16 16 17 29 18 28 19 21 20 17 21 19 22
REMARK SMILES IDX 30 23 31 24 22 26 23 27 24 28 25 29 26 30 27 31 18 32 20 34
REMARK SMILES IDX 33 36 35 38 37 40 38 42 39 43 40 44 7 46 4 48 2 49 1 51 3 52
REMARK SMILES IDX 44 53 45 55 46 56 47 58 48 59 49 60 50 62 51 63 52 64 53 65
REMARK SMILES IDX 54 66 68 67 55 68 67 69 56 70 57 71 58 72 59 74 60 75 61 76
REMARK SMILES IDX 62 77 66 78 63 79 65 80 64 81
REMARK H PARENT 31 25 18 33 20 35 33 37 35 39 37 41 40 45 7 47 4 50 44 54
REMARK H PARENT 46 57 48 61 58 73
REMARK Flexibility Score: inf
ROOT
ATOM      1  C   UNL     1      22.867  38.567   7.675  1.00  0.00     0.176 C 
ENDROOT
BRANCH   1   2
ATOM      2  C   UNL     1      23.079  38.078   9.120  1.00  0.00     0.178 C 
ATOM      3  C   UNL     1      24.660  36.474   9.867  1.00  0.00     0.272 C 
ATOM      4  C   UNL     1      23.656  35.433   9.497  1.00  0.00     0.113 C 
ATOM      5  O   UNL     1      24.337  37.652   9.248  1.00  0.00    -0.332 OA
ATOM      6  C   UNL     1      22.286  35.832   9.911  1.00  0.00     0.145 C 
ATOM      7  C   UNL     1      21.927  37.229   9.501  1.00  0.00     0.142 C 
BRANCH   3   8
ATOM      8  O   UNL     1      25.962  36.050   9.537  1.00  0.00    -0.338 OA
BRANCH   8   9
ATOM      9  C   UNL     1      26.066  35.005   8.691  1.00  0.00     0.199 C 
BRANCH   9  10
ATOM     10  C   UNL     1      27.458  34.962   8.019  1.00  0.00     0.179 C 
ATOM     11  C   UNL     1      29.182  36.195   7.209  1.00  0.00     0.282 C 
ATOM     12  O   UNL     1      27.876  36.183   7.627  1.00  0.00    -0.341 OA
ATOM     13  C   UNL     1      30.003  35.781   8.463  1.00  0.00     0.202 C 
ATOM     14  C   UNL     1      29.773  34.267   8.509  1.00  0.00     0.179 C 
ATOM     15  C   UNL     1      28.325  34.125   8.887  1.00  0.00     0.177 C 
BRANCH  11  16
ATOM     16  O   UNL     1      29.581  37.436   6.859  1.00  0.00    -0.341 OA
BRANCH  16  17
ATOM     17  C   UNL     1      28.656  38.452   6.790  1.00  0.00     0.184 C 
ATOM     18  C   UNL     1      28.920  39.430   5.694  1.00  0.00     0.178 C 
ATOM     19  O   UNL     1      29.050  40.737   6.040  1.00  0.00    -0.341 OA
ATOM     20  C   UNL     1      28.352  41.195   7.117  1.00  0.00     0.281 C 
ATOM     21  C   UNL     1      28.522  39.021   8.173  1.00  0.00     0.180 C 
ATOM     22  C   UNL     1      28.856  40.459   8.335  1.00  0.00     0.202 C 
BRANCH  18  23
ATOM     23  C   UNL     1      27.811  39.338   4.667  1.00  0.00     0.191 C 
BRANCH  23  24
ATOM     24  O   UNL     1      27.035  38.196   4.856  1.00  0.00    -0.394 OA
ATOM     25  H   UNL     1      26.083  38.488   4.722  1.00  0.00     0.210 HD
ENDBRANCH  23  24
ENDBRANCH  18  23
BRANCH  20  26
ATOM     26  O   UNL     1      26.976  41.117   6.977  1.00  0.00    -0.350 OA
BRANCH  26  27
ATOM     27  C   UNL     1      26.502  42.280   6.367  1.00  0.00     0.169 C 
BRANCH  27  28
ATOM     28  C   UNL     1      26.849  43.438   7.302  1.00  0.00     0.119 C 
BRANCH  28  29
ATOM     29  N   UNL     1      25.826  43.635   8.292  1.00  0.00    -0.092 NA
ATOM     30  N   UNL     1      24.981  44.539   8.123  1.00  0.00     0.001 N 
ATOM     31  N   UNL     1      24.335  45.603   8.091  1.00  0.00    -0.003 NA
ENDBRANCH  28  29
ENDBRANCH  27  28
ENDBRANCH  26  27
ENDBRANCH  20  26
BRANCH  21  32
ATOM     32  O   UNL     1      27.196  38.873   8.660  1.00  0.00    -0.387 OA
ATOM     33  H   UNL     1      27.171  38.783   9.640  1.00  0.00     0.211 HD
ENDBRANCH  21  32
BRANCH  22  34
ATOM     34  O   UNL     1      30.239  40.649   8.402  1.00  0.00    -0.385 OA
ATOM     35  H   UNL     1      30.738  39.832   8.200  1.00  0.00     0.211 HD
ENDBRANCH  22  34
ENDBRANCH  16  17
ENDBRANCH  11  16
BRANCH  13  36
ATOM     36  O   UNL     1      31.309  36.135   8.400  1.00  0.00    -0.385 OA
ATOM     37  H   UNL     1      31.524  37.055   8.172  1.00  0.00     0.211 HD
ENDBRANCH  13  36
BRANCH  14  38
ATOM     38  O   UNL     1      30.623  33.660   9.430  1.00  0.00    -0.387 OA
ATOM     39  H   UNL     1      30.351  33.885  10.348  1.00  0.00     0.211 HD
ENDBRANCH  14  38
BRANCH  15  40
ATOM     40  O   UNL     1      28.223  34.549  10.216  1.00  0.00    -0.387 OA
ATOM     41  H   UNL     1      28.811  35.320  10.393  1.00  0.00     0.211 HD
ENDBRANCH  15  40
ENDBRANCH   9  10
ENDBRANCH   8   9
ENDBRANCH   3   8
BRANCH   3  42
ATOM     42  C   UNL     1      24.706  36.596  11.345  1.00  0.00     0.364 C 
ATOM     43  O   UNL     1      24.967  35.568  12.032  1.00  0.00    -0.246 OA
BRANCH  42  44
ATOM     44  O   UNL     1      24.481  37.767  12.013  1.00  0.00    -0.477 OA
ATOM     45  H   UNL     1      25.173  38.501  11.983  1.00  0.00     0.296 HD
ENDBRANCH  42  44
ENDBRANCH   3  42
BRANCH   6  46
ATOM     46  O   UNL     1      21.414  34.876   9.322  1.00  0.00    -0.391 OA
ATOM     47  H   UNL     1      20.874  35.266   8.605  1.00  0.00     0.211 HD
ENDBRANCH   6  46
BRANCH   7  48
ATOM     48  N   UNL     1      21.044  37.883  10.433  1.00  0.00    -0.348 N 
ATOM     49  C   UNL     1      19.758  38.381  10.089  1.00  0.00     0.217 C 
ATOM     50  H   UNL     1      21.341  38.026  11.445  1.00  0.00     0.163 HD
ATOM     51  C   UNL     1      18.944  39.029  11.139  1.00  0.00     0.114 C 
ATOM     52  O   UNL     1      19.325  38.273   8.936  1.00  0.00    -0.275 OA
ENDBRANCH   7  48
ENDBRANCH   1   2
BRANCH   1  53
ATOM     53  O   UNL     1      22.837  37.489   6.812  1.00  0.00    -0.388 OA
ATOM     54  H   UNL     1      23.129  36.646   7.235  1.00  0.00     0.211 HD
ENDBRANCH   1  53
BRANCH   1  55
ATOM     55  C   UNL     1      23.718  39.710   7.269  1.00  0.00     0.165 C 
BRANCH  55  56
ATOM     56  O   UNL     1      24.964  39.267   6.904  1.00  0.00    -0.388 OA
ATOM     57  H   UNL     1      25.680  39.905   7.096  1.00  0.00     0.211 HD
ENDBRANCH  55  56
BRANCH  55  58
ATOM     58  C   UNL     1      23.791  40.657   8.444  1.00  0.00     0.154 C 
BRANCH  58  59
ATOM     59  N   UNL     1      25.042  40.776   9.093  1.00  0.00    -0.319 N 
ATOM     60  C   UNL     1      25.300  40.775  10.489  1.00  0.00     0.407 C 
ATOM     61  H   UNL     1      25.939  40.882   8.503  1.00  0.00     0.167 HD
ATOM     62  O   UNL     1      24.373  40.641  11.297  1.00  0.00    -0.225 OA
BRANCH  60  63
ATOM     63  O   UNL     1      26.589  40.923  10.977  1.00  0.00    -0.443 OA
BRANCH  63  64
ATOM     64  C   UNL     1      27.067  40.580  12.225  1.00  0.00     0.294 C 
BRANCH  64  65
ATOM     65  C   UNL     1      27.559  39.205  12.404  1.00  0.00     0.120 A 
ATOM     66  C   UNL     1      28.026  38.625  13.577  1.00  0.00     0.138 A 
ATOM     67  N   UNL     1      27.677  38.268  11.440  1.00  0.00    -0.132 NA
ATOM     68  N   UNL     1      28.399  37.387  13.266  1.00  0.00    -0.250 N 
ATOM     69  N   UNL     1      28.185  37.185  11.990  1.00  0.00    -0.067 NA
BRANCH  68  70
ATOM     70  C   UNL     1      28.980  36.441  14.255  1.00  0.00     0.177 C 
BRANCH  70  71
ATOM     71  C   UNL     1      29.287  35.190  13.504  1.00  0.00     0.136 C 
BRANCH  71  72
ATOM     72  O   UNL     1      28.121  34.466  13.199  1.00  0.00    -0.391 OA
ATOM     73  H   UNL     1      28.227  33.918  12.393  1.00  0.00     0.211 HD
ENDBRANCH  71  72
BRANCH  71  74
ATOM     74  C   UNL     1      30.299  34.312  14.127  1.00  0.00     0.038 C 
BRANCH  74  75
ATOM     75  C   UNL     1      29.964  33.009  14.689  1.00  0.00     0.038 C 
BRANCH  75  76
ATOM     76  C   UNL     1      30.169  32.745  16.098  1.00  0.00    -0.048 A 
ATOM     77  C   UNL     1      30.535  33.766  16.970  1.00  0.00     0.004 A 
ATOM     78  C   UNL     1      30.086  31.454  16.619  1.00  0.00     0.004 A 
ATOM     79  C   UNL     1      30.800  33.501  18.281  1.00  0.00     0.000 A 
ATOM     80  C   UNL     1      30.360  31.221  17.945  1.00  0.00     0.000 A 
ATOM     81  C   UNL     1      30.726  32.238  18.816  1.00  0.00     0.000 A 
ENDBRANCH  75  76
ENDBRANCH  74  75
ENDBRANCH  71  74
ENDBRANCH  70  71
ENDBRANCH  68  70
ENDBRANCH  64  65
ENDBRANCH  63  64
ENDBRANCH  60  63
ENDBRANCH  58  59
ENDBRANCH  55  58
ENDBRANCH   1  55
TORSDOF 35
BEGIN_RES LYS A 131
REMARK  4 active torsions:
REMARK  status: ('A' for Active; 'I' for Inactive)
REMARK    1  A    between atoms: CA   and  CB  
REMARK    2  A    between atoms: CB   and  CG  
REMARK    3  A    between atoms: CG   and  CD  
REMARK    4  A    between atoms: CD   and  CE  
ROOT
ATOM      1  CA  LYS A 131      29.867  25.555  16.977  1.00 20.52     0.186 C 
ENDROOT
BRANCH   1   2
ATOM      2  CB  LYS A 131      28.345  25.722  17.026  1.00 20.94     0.034 C 
BRANCH   2   3
ATOM      3  CG  LYS A 131      27.851  26.247  18.365  1.00 22.96     0.005 C 
BRANCH   3   4
ATOM      4  CD  LYS A 131      26.351  26.322  18.426  1.00 24.33     0.041 C 
BRANCH   4   5
ATOM      5  CE  LYS A 131      25.893  27.712  17.998  1.00 26.91     0.338 C 
ATOM      6  NZ  LYS A 131      26.631  28.756  18.748  1.00 27.40     0.618 N 
ENDBRANCH   4   5
ENDBRANCH   3   4
ENDBRANCH   2   3
ENDBRANCH   1   2
END_RES LYS A 131
BEGIN_RES LYS A 135
REMARK  4 active torsions:
REMARK  status: ('A' for Active; 'I' for Inactive)
REMARK    5  A    between atoms: CA   and  CB  
REMARK    6  A    between atoms: CB   and  CG  
REMARK    7  A    between atoms: CG   and  CD  
REMARK    8  A    between atoms: CD   and  CE  
ROOT
ATOM      7  CA  LYS A 135      33.193  34.663   9.290  1.00 25.02     0.186 C 
ENDROOT
BRANCH   7   8
ATOM      8  CB  LYS A 135      32.060  35.360  10.034  1.00 26.63     0.034 C 
BRANCH   8   9
ATOM      9  CG  LYS A 135      32.491  35.992  11.332  1.00 29.45     0.005 C 
BRANCH   9  10
ATOM     10  CD  LYS A 135      31.585  37.161  11.687  1.00 32.00     0.041 C 
BRANCH  10  11
ATOM     11  CE  LYS A 135      31.880  38.352  10.795  1.00 34.25     0.338 C 
ATOM     12  NZ  LYS A 135      31.423  39.621  11.426  1.00 35.99     0.618 N 
ENDBRANCH  10  11
ENDBRANCH   9  10
ENDBRANCH   8   9
ENDBRANCH   7   8
END_RES LYS A 135
