REMARK VINA RESULT:    -4.364      2.414      6.118
REMARK INTER + INTRA:         -21.354
REMARK INTER:                  -9.139
REMARK INTRA:                 -12.215
REMARK UNBOUND:               -10.230
REMARK SMILES CC(=O)N[C@@H]1[C@@H](O)C[C@](OC[C@H]2O[C@@H](O[C@H]3[C@H](O)[C@@H](O)[C@H](OCCN=[N+]=[N-])O[C@@H]3CO)[C@H](O)[C@@H](O)[C@H]2O)(C(=O)O)O[C@H]1C(O)[C@H](O)CNC(=O)OCc1cn(C(C)(C)CO)nn1
REMARK SMILES IDX 9 1 8 2 6 3 5 4 42 5 41 6 10 7 11 8 12 9 14 10 13 11 32 12
REMARK SMILES IDX 34 13 36 14 15 15 16 16 29 17 28 18 21 19 17 20 19 21 30 22
REMARK SMILES IDX 31 23 22 25 23 26 24 27 25 28 26 29 27 30 18 31 20 33 33 35
REMARK SMILES IDX 35 37 37 39 38 41 39 42 40 43 7 45 43 47 44 48 45 50 46 51
REMARK SMILES IDX 47 53 48 54 49 55 50 57 51 58 52 59 53 60 54 61 62 62 55 63
REMARK SMILES IDX 61 64 56 65 57 66 58 67 59 68 60 69 4 71 2 72 1 74 3 75
REMARK H PARENT 31 24 18 32 20 34 33 36 35 38 37 40 40 44 7 46 44 49 46 52
REMARK H PARENT 48 56 60 70 4 73
REMARK Flexibility Score: inf
ROOT
ATOM      1  C   UNL     1      29.869  33.408  19.018  1.00  0.00     0.272 C 
ATOM      2  C   UNL     1      30.261  34.859  19.107  1.00  0.00     0.113 C 
ATOM      3  C   UNL     1      30.293  35.412  17.703  1.00  0.00     0.145 C 
ATOM      4  C   UNL     1      31.532  34.763  17.044  1.00  0.00     0.142 C 
ATOM      5  C   UNL     1      31.377  33.281  17.208  1.00  0.00     0.178 C 
ATOM      6  O   UNL     1      30.131  32.921  17.682  1.00  0.00    -0.332 OA
ENDROOT
BRANCH   1   7
ATOM      7  O   UNL     1      28.537  33.182  19.151  1.00  0.00    -0.338 OA
BRANCH   7   8
ATOM      8  C   UNL     1      28.017  32.108  19.720  1.00  0.00     0.199 C 
BRANCH   8   9
ATOM      9  C   UNL     1      27.208  31.083  19.038  1.00  0.00     0.179 C 
ATOM     10  C   UNL     1      25.818  30.847  17.212  1.00  0.00     0.282 C 
ATOM     11  O   UNL     1      26.820  31.606  17.758  1.00  0.00    -0.341 OA
ATOM     12  C   UNL     1      25.670  29.465  17.739  1.00  0.00     0.202 C 
ATOM     13  C   UNL     1      26.969  28.827  18.180  1.00  0.00     0.179 C 
ATOM     14  C   UNL     1      27.978  29.830  18.637  1.00  0.00     0.177 C 
BRANCH  10  15
ATOM     15  O   UNL     1      25.951  30.904  15.822  1.00  0.00    -0.341 OA
BRANCH  15  16
ATOM     16  C   UNL     1      24.797  31.261  15.166  1.00  0.00     0.184 C 
ATOM     17  C   UNL     1      24.905  31.178  13.660  1.00  0.00     0.178 C 
ATOM     18  O   UNL     1      24.393  32.282  13.010  1.00  0.00    -0.341 OA
ATOM     19  C   UNL     1      25.002  33.476  13.284  1.00  0.00     0.281 C 
ATOM     20  C   UNL     1      24.541  32.734  15.537  1.00  0.00     0.180 C 
ATOM     21  C   UNL     1      25.542  33.504  14.696  1.00  0.00     0.202 C 
BRANCH  17  22
ATOM     22  C   UNL     1      24.042  29.992  13.246  1.00  0.00     0.191 C 
BRANCH  22  23
ATOM     23  O   UNL     1      22.726  30.207  13.657  1.00  0.00    -0.394 OA
ATOM     24  H   UNL     1      22.478  31.149  13.700  1.00  0.00     0.210 HD
ENDBRANCH  22  23
ENDBRANCH  17  22
BRANCH  19  25
ATOM     25  O   UNL     1      24.078  34.479  13.050  1.00  0.00    -0.350 OA
BRANCH  25  26
ATOM     26  C   UNL     1      24.555  35.592  12.432  1.00  0.00     0.169 C 
BRANCH  26  27
ATOM     27  C   UNL     1      23.974  35.831  11.046  1.00  0.00     0.119 C 
BRANCH  27  28
ATOM     28  N   UNL     1      24.670  36.907  10.368  1.00  0.00    -0.092 NA
ATOM     29  N   UNL     1      25.352  36.609   9.377  1.00  0.00     0.001 N 
ATOM     30  N   UNL     1      25.751  36.486   8.198  1.00  0.00    -0.003 NA
ENDBRANCH  27  28
ENDBRANCH  26  27
ENDBRANCH  25  26
ENDBRANCH  19  25
BRANCH  20  31
ATOM     31  O   UNL     1      23.222  32.986  15.148  1.00  0.00    -0.387 OA
ATOM     32  H   UNL     1      23.286  33.379  14.237  1.00  0.00     0.211 HD
ENDBRANCH  20  31
BRANCH  21  33
ATOM     33  O   UNL     1      26.736  32.763  14.695  1.00  0.00    -0.385 OA
ATOM     34  H   UNL     1      26.922  32.416  13.771  1.00  0.00     0.211 HD
ENDBRANCH  21  33
ENDBRANCH  15  16
ENDBRANCH  10  15
BRANCH  12  35
ATOM     35  O   UNL     1      24.678  29.319  18.711  1.00  0.00    -0.385 OA
ATOM     36  H   UNL     1      24.301  30.208  18.864  1.00  0.00     0.211 HD
ENDBRANCH  12  35
BRANCH  13  37
ATOM     37  O   UNL     1      27.494  28.006  17.167  1.00  0.00    -0.387 OA
ATOM     38  H   UNL     1      27.295  27.049  17.348  1.00  0.00     0.211 HD
ENDBRANCH  13  37
BRANCH  14  39
ATOM     39  O   UNL     1      28.746  30.176  17.502  1.00  0.00    -0.387 OA
ATOM     40  H   UNL     1      28.154  30.445  16.770  1.00  0.00     0.211 HD
ENDBRANCH  14  39
ENDBRANCH   8   9
ENDBRANCH   7   8
ENDBRANCH   1   7
BRANCH   1  41
ATOM     41  C   UNL     1      30.709  32.540  19.842  1.00  0.00     0.364 C 
ATOM     42  O   UNL     1      31.312  32.949  20.837  1.00  0.00    -0.246 OA
BRANCH  41  43
ATOM     43  O   UNL     1      30.889  31.175  19.554  1.00  0.00    -0.477 OA
ATOM     44  H   UNL     1      31.841  30.859  19.408  1.00  0.00     0.296 HD
ENDBRANCH  41  43
ENDBRANCH   1  41
BRANCH   3  45
ATOM     45  O   UNL     1      29.204  34.872  17.016  1.00  0.00    -0.391 OA
ATOM     46  H   UNL     1      28.424  34.780  17.598  1.00  0.00     0.211 HD
ENDBRANCH   3  45
BRANCH   5  47
ATOM     47  C   UNL     1      31.408  32.698  15.783  1.00  0.00     0.176 C 
BRANCH  47  48
ATOM     48  O   UNL     1      32.141  33.587  14.960  1.00  0.00    -0.388 OA
ATOM     49  H   UNL     1      32.580  33.126  14.225  1.00  0.00     0.211 HD
ENDBRANCH  47  48
BRANCH  47  50
ATOM     50  C   UNL     1      30.025  32.668  15.154  1.00  0.00     0.165 C 
BRANCH  50  51
ATOM     51  O   UNL     1      29.517  31.417  15.027  1.00  0.00    -0.388 OA
ATOM     52  H   UNL     1      30.062  30.684  15.399  1.00  0.00     0.211 HD
ENDBRANCH  50  51
BRANCH  50  53
ATOM     53  C   UNL     1      30.050  33.384  13.819  1.00  0.00     0.154 C 
BRANCH  53  54
ATOM     54  N   UNL     1      29.211  34.520  13.706  1.00  0.00    -0.319 N 
ATOM     55  C   UNL     1      29.666  35.840  13.642  1.00  0.00     0.407 C 
ATOM     56  H   UNL     1      28.143  34.380  13.666  1.00  0.00     0.167 HD
ATOM     57  O   UNL     1      30.873  36.129  13.669  1.00  0.00    -0.225 OA
BRANCH  55  58
ATOM     58  O   UNL     1      28.763  36.927  13.543  1.00  0.00    -0.443 OA
BRANCH  58  59
ATOM     59  C   UNL     1      28.769  37.972  14.489  1.00  0.00     0.294 C 
BRANCH  59  60
ATOM     60  C   UNL     1      27.954  37.690  15.687  1.00  0.00     0.120 A 
ATOM     61  C   UNL     1      26.691  37.134  15.732  1.00  0.00     0.139 A 
ATOM     62  N   UNL     1      28.289  37.919  16.967  1.00  0.00    -0.132 NA
ATOM     63  N   UNL     1      26.294  37.041  17.025  1.00  0.00    -0.244 N 
ATOM     64  N   UNL     1      27.285  37.525  17.755  1.00  0.00    -0.066 NA
BRANCH  63  65
ATOM     65  C   UNL     1      25.035  36.509  17.480  1.00  0.00     0.082 C 
ATOM     66  C   UNL     1      24.087  36.390  16.323  1.00  0.00     0.039 C 
ATOM     67  C   UNL     1      24.389  37.472  18.486  1.00  0.00     0.039 C 
BRANCH  65  68
ATOM     68  C   UNL     1      25.150  35.176  18.162  1.00  0.00     0.186 C 
BRANCH  68  69
ATOM     69  O   UNL     1      26.370  34.567  17.981  1.00  0.00    -0.394 OA
ATOM     70  H   UNL     1      27.138  35.160  17.999  1.00  0.00     0.210 HD
ENDBRANCH  68  69
ENDBRANCH  65  68
ENDBRANCH  63  65
ENDBRANCH  59  60
ENDBRANCH  58  59
ENDBRANCH  55  58
ENDBRANCH  53  54
ENDBRANCH  50  53
ENDBRANCH  47  50
ENDBRANCH   5  47
BRANCH   4  71
ATOM     71  N   UNL     1      32.662  35.341  17.699  1.00  0.00    -0.348 N 
ATOM     72  C   UNL     1      33.834  35.828  17.074  1.00  0.00     0.217 C 
ATOM     73  H   UNL     1      32.665  35.430  18.759  1.00  0.00     0.163 HD
ATOM     74  C   UNL     1      34.963  36.413  17.846  1.00  0.00     0.114 C 
ATOM     75  O   UNL     1      33.933  35.768  15.838  1.00  0.00    -0.275 OA
ENDBRANCH   4  71
TORSDOF 32
BEGIN_RES LYS A 131
REMARK  4 active torsions:
REMARK  status: ('A' for Active; 'I' for Inactive)
REMARK    1  A    between atoms: CA   and  CB  
REMARK    2  A    between atoms: CB   and  CG  
REMARK    3  A    between atoms: CG   and  CD  
REMARK    4  A    between atoms: CD   and  CE  
ROOT
ATOM      1  CA  LYS A 131      29.867  25.555  16.977  1.00 20.52     0.186 C 
ENDROOT
BRANCH   1   2
ATOM      2  CB  LYS A 131      28.345  25.722  17.026  1.00 20.94     0.034 C 
BRANCH   2   3
ATOM      3  CG  LYS A 131      27.601  24.404  16.877  1.00 22.96     0.005 C 
BRANCH   3   4
ATOM      4  CD  LYS A 131      26.532  24.236  17.922  1.00 24.33     0.041 C 
BRANCH   4   5
ATOM      5  CE  LYS A 131      25.200  23.934  17.243  1.00 26.91     0.338 C 
ATOM      6  NZ  LYS A 131      24.805  22.525  17.480  1.00 27.40     0.618 N 
ENDBRANCH   4   5
ENDBRANCH   3   4
ENDBRANCH   2   3
ENDBRANCH   1   2
END_RES LYS A 131
BEGIN_RES LYS A 135
REMARK  4 active torsions:
REMARK  status: ('A' for Active; 'I' for Inactive)
REMARK    5  A    between atoms: CA   and  CB  
REMARK    6  A    between atoms: CB   and  CG  
REMARK    7  A    between atoms: CG   and  CD  
REMARK    8  A    between atoms: CD   and  CE  
ROOT
ATOM      7  CA  LYS A 135      33.193  34.663   9.290  1.00 25.02     0.186 C 
ENDROOT
BRANCH   7   8
ATOM      8  CB  LYS A 135      32.060  35.360  10.034  1.00 26.63     0.034 C 
BRANCH   8   9
ATOM      9  CG  LYS A 135      30.783  35.451   9.239  1.00 29.45     0.005 C 
BRANCH   9  10
ATOM     10  CD  LYS A 135      29.967  34.176   9.388  1.00 32.00     0.041 C 
BRANCH  10  11
ATOM     11  CE  LYS A 135      28.648  34.466  10.080  1.00 34.25     0.338 C 
ATOM     12  NZ  LYS A 135      27.529  33.726   9.434  1.00 35.99     0.618 N 
ENDBRANCH  10  11
ENDBRANCH   9  10
ENDBRANCH   8   9
ENDBRANCH   7   8
END_RES LYS A 135
