REMARK VINA RESULT:    -7.194      4.706      8.974
REMARK INTER + INTRA:         -20.597
REMARK INTER:                 -10.460
REMARK INTRA:                 -10.137
REMARK UNBOUND:                -1.206
REMARK SMILES CC(=O)N[C@@H]1[C@@H](O)C[C@](OC[C@H]2O[C@@H](O[C@H]3[C@H](O)[C@@H](O)[C@H](OCCN=[N+]=[N-])O[C@@H]3CO)[C@H](O)[C@@H](O)[C@H]2O)(C(=O)O)O[C@H]1C(O)[C@H](O)CNC(=O)OCc1cn(C2CCc3ccccc3NC2=O)nn1
REMARK SMILES IDX 43 1 42 2 9 3 8 4 41 5 6 6 5 7 10 8 11 9 12 10 14 11 13 12
REMARK SMILES IDX 32 13 34 14 36 15 15 16 16 17 29 18 28 19 21 20 17 21 19 22
REMARK SMILES IDX 30 23 31 24 22 26 23 27 24 28 25 29 26 30 27 31 18 32 20 34
REMARK SMILES IDX 33 36 35 38 37 40 38 42 39 43 40 44 7 46 4 48 2 49 1 51 3 52
REMARK SMILES IDX 44 53 45 55 46 56 47 58 48 59 49 60 50 62 51 63 52 64 53 65
REMARK SMILES IDX 54 66 69 67 55 68 68 69 56 70 57 71 66 73 65 74 67 75 64 77
REMARK SMILES IDX 59 78 63 79 60 80 62 81 61 82 58 83
REMARK H PARENT 31 25 18 33 20 35 33 37 35 39 37 41 40 45 7 47 4 50 44 54
REMARK H PARENT 46 57 48 61 65 76
REMARK Flexibility Score: 90.00
ROOT
ATOM      1  C   UNL     1      30.148  33.129  14.592  1.00  0.00     0.176 C 
ENDROOT
BRANCH   1   2
ATOM      2  C   UNL     1      30.384  34.623  14.891  1.00  0.00     0.178 C 
ATOM      3  C   UNL     1      29.912  36.345  13.309  1.00  0.00     0.272 C 
ATOM      4  C   UNL     1      31.350  36.643  13.177  1.00  0.00     0.113 C 
ATOM      5  O   UNL     1      29.529  35.435  14.297  1.00  0.00    -0.332 OA
ATOM      6  C   UNL     1      32.214  35.453  13.421  1.00  0.00     0.145 C 
ATOM      7  C   UNL     1      31.858  34.907  14.796  1.00  0.00     0.142 C 
BRANCH   3   8
ATOM      8  O   UNL     1      29.287  35.929  12.187  1.00  0.00    -0.338 OA
BRANCH   8   9
ATOM      9  C   UNL     1      28.299  35.050  12.140  1.00  0.00     0.199 C 
BRANCH   9  10
ATOM     10  C   UNL     1      26.918  35.324  11.731  1.00  0.00     0.179 C 
ATOM     11  C   UNL     1      24.973  36.207  12.620  1.00  0.00     0.282 C 
ATOM     12  O   UNL     1      26.356  36.130  12.778  1.00  0.00    -0.341 OA
ATOM     13  C   UNL     1      24.448  35.856  11.285  1.00  0.00     0.202 C 
ATOM     14  C   UNL     1      25.324  36.124  10.110  1.00  0.00     0.179 C 
ATOM     15  C   UNL     1      26.767  36.254  10.528  1.00  0.00     0.177 C 
BRANCH  11  16
ATOM     16  O   UNL     1      24.545  37.464  13.098  1.00  0.00    -0.341 OA
BRANCH  16  17
ATOM     17  C   UNL     1      24.598  37.551  14.464  1.00  0.00     0.184 C 
ATOM     18  C   UNL     1      25.779  38.301  15.020  1.00  0.00     0.178 C 
ATOM     19  O   UNL     1      25.558  38.395  16.396  1.00  0.00    -0.341 OA
ATOM     20  C   UNL     1      25.836  37.199  17.042  1.00  0.00     0.281 C 
ATOM     21  C   UNL     1      24.621  36.171  15.104  1.00  0.00     0.180 C 
ATOM     22  C   UNL     1      25.655  36.002  16.157  1.00  0.00     0.202 C 
BRANCH  18  23
ATOM     23  C   UNL     1      25.847  39.722  14.496  1.00  0.00     0.191 C 
BRANCH  23  24
ATOM     24  O   UNL     1      26.256  39.764  13.166  1.00  0.00    -0.394 OA
ATOM     25  H   UNL     1      26.613  40.639  12.899  1.00  0.00     0.210 HD
ENDBRANCH  23  24
ENDBRANCH  18  23
BRANCH  20  26
ATOM     26  O   UNL     1      25.068  37.131  18.189  1.00  0.00    -0.350 OA
BRANCH  26  27
ATOM     27  C   UNL     1      25.475  36.102  19.021  1.00  0.00     0.169 C 
BRANCH  27  28
ATOM     28  C   UNL     1      24.537  35.786  20.141  1.00  0.00     0.119 C 
BRANCH  28  29
ATOM     29  N   UNL     1      23.485  36.789  20.177  1.00  0.00    -0.092 NA
ATOM     30  N   UNL     1      23.481  37.705  21.019  1.00  0.00     0.001 N 
ATOM     31  N   UNL     1      23.857  38.763  21.545  1.00  0.00    -0.003 NA
ENDBRANCH  28  29
ENDBRANCH  27  28
ENDBRANCH  26  27
ENDBRANCH  20  26
BRANCH  21  32
ATOM     32  O   UNL     1      23.342  35.788  15.535  1.00  0.00    -0.387 OA
ATOM     33  H   UNL     1      22.870  36.593  15.873  1.00  0.00     0.211 HD
ENDBRANCH  21  32
BRANCH  22  34
ATOM     34  O   UNL     1      26.910  35.621  15.628  1.00  0.00    -0.385 OA
ATOM     35  H   UNL     1      26.945  35.713  14.657  1.00  0.00     0.211 HD
ENDBRANCH  22  34
ENDBRANCH  16  17
ENDBRANCH  11  16
BRANCH  13  36
ATOM     36  O   UNL     1      23.946  34.551  11.299  1.00  0.00    -0.385 OA
ATOM     37  H   UNL     1      23.589  34.341  12.201  1.00  0.00     0.211 HD
ENDBRANCH  13  36
BRANCH  14  38
ATOM     38  O   UNL     1      24.893  37.201   9.338  1.00  0.00    -0.387 OA
ATOM     39  H   UNL     1      24.260  36.825   8.671  1.00  0.00     0.211 HD
ENDBRANCH  14  38
BRANCH  15  40
ATOM     40  O   UNL     1      27.026  37.584  10.943  1.00  0.00    -0.387 OA
ATOM     41  H   UNL     1      26.627  37.664  11.836  1.00  0.00     0.211 HD
ENDBRANCH  15  40
ENDBRANCH   9  10
ENDBRANCH   8   9
ENDBRANCH   3   8
BRANCH   3  42
ATOM     42  C   UNL     1      29.275  37.606  13.851  1.00  0.00     0.364 C 
ATOM     43  O   UNL     1      29.101  37.779  15.035  1.00  0.00    -0.246 OA
BRANCH  42  44
ATOM     44  O   UNL     1      28.868  38.608  12.964  1.00  0.00    -0.477 OA
ATOM     45  H   UNL     1      29.525  39.184  12.463  1.00  0.00     0.296 HD
ENDBRANCH  42  44
ENDBRANCH   3  42
BRANCH   6  46
ATOM     46  O   UNL     1      31.904  34.501  12.435  1.00  0.00    -0.391 OA
ATOM     47  H   UNL     1      31.081  34.700  11.959  1.00  0.00     0.211 HD
ENDBRANCH   6  46
BRANCH   7  48
ATOM     48  N   UNL     1      32.368  35.805  15.777  1.00  0.00    -0.348 N 
ATOM     49  C   UNL     1      32.551  35.383  17.124  1.00  0.00     0.217 C 
ATOM     50  H   UNL     1      32.617  36.793  15.535  1.00  0.00     0.163 HD
ATOM     51  C   UNL     1      33.078  36.284  18.184  1.00  0.00     0.114 C 
ATOM     52  O   UNL     1      32.255  34.216  17.406  1.00  0.00    -0.275 OA
ENDBRANCH   7  48
ENDBRANCH   1   2
BRANCH   1  53
ATOM     53  O   UNL     1      31.335  32.422  14.806  1.00  0.00    -0.388 OA
ATOM     54  H   UNL     1      32.142  32.935  14.577  1.00  0.00     0.211 HD
ENDBRANCH   1  53
BRANCH   1  55
ATOM     55  C   UNL     1      29.089  32.523  15.438  1.00  0.00     0.165 C 
BRANCH  55  56
ATOM     56  O   UNL     1      27.808  33.017  15.224  1.00  0.00    -0.388 OA
ATOM     57  H   UNL     1      27.837  33.581  14.406  1.00  0.00     0.211 HD
ENDBRANCH  55  56
BRANCH  55  58
ATOM     58  C   UNL     1      29.333  32.529  16.912  1.00  0.00     0.154 C 
BRANCH  58  59
ATOM     59  N   UNL     1      28.576  31.579  17.668  1.00  0.00    -0.319 N 
ATOM     60  C   UNL     1      27.690  31.919  18.717  1.00  0.00     0.407 C 
ATOM     61  H   UNL     1      28.682  30.571  17.433  1.00  0.00     0.167 HD
ATOM     62  O   UNL     1      27.514  33.116  19.053  1.00  0.00    -0.225 OA
BRANCH  60  63
ATOM     63  O   UNL     1      27.015  30.918  19.373  1.00  0.00    -0.443 OA
BRANCH  63  64
ATOM     64  C   UNL     1      25.639  30.766  19.347  1.00  0.00     0.294 C 
BRANCH  64  65
ATOM     65  C   UNL     1      25.101  31.124  18.032  1.00  0.00     0.120 A 
ATOM     66  C   UNL     1      25.444  30.561  16.827  1.00  0.00     0.139 A 
ATOM     67  N   UNL     1      24.177  32.068  17.730  1.00  0.00    -0.132 NA
ATOM     68  N   UNL     1      24.737  31.158  15.836  1.00  0.00    -0.240 N 
ATOM     69  N   UNL     1      23.983  32.064  16.421  1.00  0.00    -0.066 NA
BRANCH  68  70
ATOM     70  C   UNL     1      24.802  30.851  14.397  1.00  0.00     0.198 C 
BRANCH  70  71
ATOM     71  C   UNL     1      23.990  29.627  14.194  1.00  0.00     0.042 CG0
ATOM     72  G   UNL     1      23.530  29.343  12.807  1.00  0.00     0.000 G0
ENDBRANCH  70  71
BRANCH  70  73
ATOM     73  C   UNL     1      24.342  32.061  13.710  1.00  0.00     0.249 C 
ATOM     74  N   UNL     1      23.063  32.389  13.188  1.00  0.00    -0.324 N 
ATOM     75  O   UNL     1      25.224  32.950  13.561  1.00  0.00    -0.272 OA
ATOM     76  H   UNL     1      22.811  33.394  13.072  1.00  0.00     0.170 HD
BRANCH  74  77
ATOM     77  C   UNL     1      22.076  31.408  12.804  1.00  0.00     0.044 A 
ATOM     78  C   UNL     1      22.227  30.038  12.622  1.00  0.00    -0.024 A 
ATOM     79  C   UNL     1      20.839  31.982  12.608  1.00  0.00     0.026 A 
ATOM     80  C   UNL     1      21.170  29.239  12.251  1.00  0.00     0.006 A 
ATOM     81  C   UNL     1      19.761  31.203  12.236  1.00  0.00     0.002 A 
ATOM     82  C   UNL     1      19.944  29.827  12.061  1.00  0.00     0.000 A 
BRANCH  78  83
ATOM     83  C   UNL     1      23.521  29.323  12.810  1.00  0.00     0.040 CG0
ATOM     84  G   UNL     1      23.988  29.627  14.190  1.00  0.00     0.000 G0
ENDBRANCH  78  83
ENDBRANCH  74  77
ENDBRANCH  70  73
ENDBRANCH  68  70
ENDBRANCH  64  65
ENDBRANCH  63  64
ENDBRANCH  60  63
ENDBRANCH  58  59
ENDBRANCH  55  58
ENDBRANCH   1  55
TORSDOF 30
BEGIN_RES LYS A 131
REMARK  4 active torsions:
REMARK  status: ('A' for Active; 'I' for Inactive)
REMARK    1  A    between atoms: CA   and  CB  
REMARK    2  A    between atoms: CB   and  CG  
REMARK    3  A    between atoms: CG   and  CD  
REMARK    4  A    between atoms: CD   and  CE  
ROOT
ATOM      1  CA  LYS A 131      29.867  25.555  16.977  1.00 20.52     0.186 C 
ENDROOT
BRANCH   1   2
ATOM      2  CB  LYS A 131      28.345  25.722  17.026  1.00 20.94     0.034 C 
BRANCH   2   3
ATOM      3  CG  LYS A 131      27.609  24.397  17.148  1.00 22.96     0.005 C 
BRANCH   3   4
ATOM      4  CD  LYS A 131      26.125  24.585  17.306  1.00 24.33     0.041 C 
BRANCH   4   5
ATOM      5  CE  LYS A 131      25.452  23.224  17.451  1.00 26.91     0.338 C 
ATOM      6  NZ  LYS A 131      23.996  23.337  17.201  1.00 27.40     0.618 N 
ENDBRANCH   4   5
ENDBRANCH   3   4
ENDBRANCH   2   3
ENDBRANCH   1   2
END_RES LYS A 131
BEGIN_RES LYS A 135
REMARK  4 active torsions:
REMARK  status: ('A' for Active; 'I' for Inactive)
REMARK    5  A    between atoms: CA   and  CB  
REMARK    6  A    between atoms: CB   and  CG  
REMARK    7  A    between atoms: CG   and  CD  
REMARK    8  A    between atoms: CD   and  CE  
ROOT
ATOM      7  CA  LYS A 135      33.193  34.663   9.290  1.00 25.02     0.186 C 
ENDROOT
BRANCH   7   8
ATOM      8  CB  LYS A 135      32.060  35.360  10.034  1.00 26.63     0.034 C 
BRANCH   8   9
ATOM      9  CG  LYS A 135      30.743  35.317   9.303  1.00 29.45     0.005 C 
BRANCH   9  10
ATOM     10  CD  LYS A 135      30.363  36.702   8.800  1.00 32.00     0.041 C 
BRANCH  10  11
ATOM     11  CE  LYS A 135      30.965  37.774   9.688  1.00 34.25     0.338 C 
ATOM     12  NZ  LYS A 135      31.473  38.917   8.879  1.00 35.99     0.618 N 
ENDBRANCH  10  11
ENDBRANCH   9  10
ENDBRANCH   8   9
ENDBRANCH   7   8
END_RES LYS A 135
