REMARK VINA RESULT:    -4.869      3.296      6.793
REMARK INTER + INTRA:         -21.697
REMARK INTER:                 -11.830
REMARK INTRA:                  -9.867
REMARK UNBOUND:                -9.712
REMARK SMILES CC(=O)N[C@@H]1[C@@H](O)C[C@](OC[C@H]2O[C@@H](O[C@H]3[C@H](O)[C@@H](O)[C@H](OCCN=[N+]=[N-])O[C@@H]3CO)[C@H](O)[C@@H](O)[C@H]2O)(C(=O)O)O[C@H]1C(O)[C@H](O)CNC(=O)OCc1cn(C2CCCCC2)nn1
REMARK SMILES IDX 9 1 8 2 6 3 5 4 42 5 41 6 10 7 11 8 12 9 14 10 13 11 32 12
REMARK SMILES IDX 34 13 36 14 15 15 16 16 29 17 28 18 21 19 17 20 19 21 30 22
REMARK SMILES IDX 31 23 22 25 23 26 24 27 25 28 26 29 27 30 18 31 20 33 33 35
REMARK SMILES IDX 35 37 37 39 38 41 39 42 40 43 7 45 43 47 44 48 45 50 46 51
REMARK SMILES IDX 47 53 48 54 49 55 50 57 51 58 52 59 53 60 54 61 63 62 55 63
REMARK SMILES IDX 62 64 56 65 57 66 61 67 58 68 60 69 59 70 4 71 2 72 1 74
REMARK SMILES IDX 3 75
REMARK H PARENT 31 24 18 32 20 34 33 36 35 38 37 40 40 44 7 46 44 49 46 52
REMARK H PARENT 48 56 4 73
REMARK Flexibility Score: inf
ROOT
ATOM      1  C   UNL     1      31.290  30.762  22.697  1.00  0.00     0.272 C 
ATOM      2  C   UNL     1      32.684  30.499  23.379  1.00  0.00     0.113 C 
ATOM      3  C   UNL     1      33.325  29.301  22.748  1.00  0.00     0.145 C 
ATOM      4  C   UNL     1      32.420  28.100  22.823  1.00  0.00     0.142 C 
ATOM      5  C   UNL     1      30.981  28.424  22.620  1.00  0.00     0.178 C 
ATOM      6  O   UNL     1      30.527  29.656  22.723  1.00  0.00    -0.332 OA
ENDROOT
BRANCH   1   7
ATOM      7  O   UNL     1      31.624  31.155  21.476  1.00  0.00    -0.338 OA
BRANCH   7   8
ATOM      8  C   UNL     1      31.249  32.102  20.684  1.00  0.00     0.199 C 
BRANCH   8   9
ATOM      9  C   UNL     1      29.795  32.324  20.300  1.00  0.00     0.179 C 
ATOM     10  C   UNL     1      29.146  33.351  18.294  1.00  0.00     0.282 C 
ATOM     11  O   UNL     1      29.605  33.472  19.601  1.00  0.00    -0.341 OA
ATOM     12  C   UNL     1      27.911  32.532  18.274  1.00  0.00     0.202 C 
ATOM     13  C   UNL     1      28.033  31.223  19.014  1.00  0.00     0.179 C 
ATOM     14  C   UNL     1      29.411  31.064  19.531  1.00  0.00     0.177 C 
BRANCH  10  15
ATOM     15  O   UNL     1      30.193  32.995  17.525  1.00  0.00    -0.341 OA
BRANCH  15  16
ATOM     16  C   UNL     1      30.468  33.673  16.383  1.00  0.00     0.184 C 
ATOM     17  C   UNL     1      30.394  32.694  15.231  1.00  0.00     0.178 C 
ATOM     18  O   UNL     1      30.376  33.325  14.002  1.00  0.00    -0.341 OA
ATOM     19  C   UNL     1      30.972  34.557  13.985  1.00  0.00     0.281 C 
ATOM     20  C   UNL     1      31.872  34.238  16.325  1.00  0.00     0.180 C 
ATOM     21  C   UNL     1      32.145  34.632  14.892  1.00  0.00     0.202 C 
BRANCH  17  22
ATOM     22  C   UNL     1      29.308  31.668  15.381  1.00  0.00     0.191 C 
BRANCH  22  23
ATOM     23  O   UNL     1      29.875  30.537  15.970  1.00  0.00    -0.394 OA
ATOM     24  H   UNL     1      30.232  29.907  15.301  1.00  0.00     0.210 HD
ENDBRANCH  22  23
ENDBRANCH  17  22
BRANCH  19  25
ATOM     25  O   UNL     1      30.020  35.530  14.133  1.00  0.00    -0.350 OA
BRANCH  25  26
ATOM     26  C   UNL     1      29.039  35.528  13.154  1.00  0.00     0.169 C 
BRANCH  26  27
ATOM     27  C   UNL     1      27.636  35.575  13.696  1.00  0.00     0.119 C 
BRANCH  27  28
ATOM     28  N   UNL     1      27.710  35.570  15.143  1.00  0.00    -0.092 NA
ATOM     29  N   UNL     1      26.848  34.902  15.731  1.00  0.00     0.001 N 
ATOM     30  N   UNL     1      25.818  34.751  16.412  1.00  0.00    -0.003 NA
ENDBRANCH  27  28
ENDBRANCH  26  27
ENDBRANCH  25  26
ENDBRANCH  19  25
BRANCH  20  31
ATOM     31  O   UNL     1      32.058  35.342  17.122  1.00  0.00    -0.387 OA
ATOM     32  H   UNL     1      32.855  35.275  17.703  1.00  0.00     0.211 HD
ENDBRANCH  20  31
BRANCH  21  33
ATOM     33  O   UNL     1      33.095  33.699  14.409  1.00  0.00    -0.385 OA
ATOM     34  H   UNL     1      32.813  33.340  13.533  1.00  0.00     0.211 HD
ENDBRANCH  21  33
ENDBRANCH  15  16
ENDBRANCH  10  15
BRANCH  12  35
ATOM     35  O   UNL     1      26.933  33.284  18.976  1.00  0.00    -0.385 OA
ATOM     36  H   UNL     1      26.424  32.721  19.599  1.00  0.00     0.211 HD
ENDBRANCH  12  35
BRANCH  13  37
ATOM     37  O   UNL     1      27.705  30.137  18.178  1.00  0.00    -0.387 OA
ATOM     38  H   UNL     1      28.382  29.451  18.282  1.00  0.00     0.211 HD
ENDBRANCH  13  37
BRANCH  14  39
ATOM     39  O   UNL     1      30.364  30.647  18.643  1.00  0.00    -0.387 OA
ATOM     40  H   UNL     1      31.108  30.247  19.153  1.00  0.00     0.211 HD
ENDBRANCH  14  39
ENDBRANCH   8   9
ENDBRANCH   7   8
ENDBRANCH   1   7
BRANCH   1  41
ATOM     41  C   UNL     1      30.659  31.764  23.625  1.00  0.00     0.364 C 
ATOM     42  O   UNL     1      29.475  31.775  23.939  1.00  0.00    -0.246 OA
BRANCH  41  43
ATOM     43  O   UNL     1      31.456  32.776  24.195  1.00  0.00    -0.477 OA
ATOM     44  H   UNL     1      31.061  33.418  24.864  1.00  0.00     0.296 HD
ENDBRANCH  41  43
ENDBRANCH   1  41
BRANCH   3  45
ATOM     45  O   UNL     1      33.740  29.567  21.449  1.00  0.00    -0.391 OA
ATOM     46  H   UNL     1      34.029  30.524  21.415  1.00  0.00     0.211 HD
ENDBRANCH   3  45
BRANCH   5  47
ATOM     47  C   UNL     1      30.509  27.882  21.236  1.00  0.00     0.176 C 
BRANCH  47  48
ATOM     48  O   UNL     1      31.129  26.638  21.010  1.00  0.00    -0.388 OA
ATOM     49  H   UNL     1      30.936  26.295  20.115  1.00  0.00     0.211 HD
ENDBRANCH  47  48
BRANCH  47  50
ATOM     50  C   UNL     1      29.024  27.792  21.156  1.00  0.00     0.165 C 
BRANCH  50  51
ATOM     51  O   UNL     1      28.609  27.023  22.268  1.00  0.00    -0.388 OA
ATOM     52  H   UNL     1      29.351  26.523  22.659  1.00  0.00     0.211 HD
ENDBRANCH  50  51
BRANCH  50  53
ATOM     53  C   UNL     1      28.452  27.139  19.953  1.00  0.00     0.154 C 
BRANCH  53  54
ATOM     54  N   UNL     1      27.175  27.637  19.515  1.00  0.00    -0.319 N 
ATOM     55  C   UNL     1      25.936  27.126  19.984  1.00  0.00     0.407 C 
ATOM     56  H   UNL     1      27.148  28.410  18.827  1.00  0.00     0.167 HD
ATOM     57  O   UNL     1      25.920  26.192  20.824  1.00  0.00    -0.225 OA
BRANCH  55  58
ATOM     58  O   UNL     1      24.737  27.618  19.549  1.00  0.00    -0.443 OA
BRANCH  58  59
ATOM     59  C   UNL     1      24.054  27.258  18.372  1.00  0.00     0.294 C 
BRANCH  59  60
ATOM     60  C   UNL     1      24.391  28.228  17.308  1.00  0.00     0.120 A 
ATOM     61  C   UNL     1      23.469  28.707  16.422  1.00  0.00     0.138 A 
ATOM     62  N   UNL     1      25.564  28.793  17.003  1.00  0.00    -0.132 NA
ATOM     63  N   UNL     1      24.094  29.565  15.582  1.00  0.00    -0.249 N 
ATOM     64  N   UNL     1      25.370  29.597  15.961  1.00  0.00    -0.067 NA
BRANCH  63  65
ATOM     65  C   UNL     1      23.478  30.291  14.490  1.00  0.00     0.109 C 
ATOM     66  C   UNL     1      21.987  30.332  14.809  1.00  0.00     0.027 C 
ATOM     67  C   UNL     1      23.665  29.544  13.188  1.00  0.00     0.027 C 
ATOM     68  C   UNL     1      21.274  31.165  13.744  1.00  0.00     0.002 C 
ATOM     69  C   UNL     1      22.359  29.325  12.451  1.00  0.00     0.002 C 
ATOM     70  C   UNL     1      21.568  30.597  12.393  1.00  0.00     0.000 C 
ENDBRANCH  63  65
ENDBRANCH  59  60
ENDBRANCH  58  59
ENDBRANCH  55  58
ENDBRANCH  53  54
ENDBRANCH  50  53
ENDBRANCH  47  50
ENDBRANCH   5  47
BRANCH   4  71
ATOM     71  N   UNL     1      32.684  27.302  23.991  1.00  0.00    -0.348 N 
ATOM     72  C   UNL     1      33.839  26.526  24.185  1.00  0.00     0.217 C 
ATOM     73  H   UNL     1      31.983  27.259  24.800  1.00  0.00     0.163 HD
ATOM     74  C   UNL     1      34.056  25.725  25.438  1.00  0.00     0.114 C 
ATOM     75  O   UNL     1      34.727  26.467  23.334  1.00  0.00    -0.275 OA
ENDBRANCH   4  71
TORSDOF 30
BEGIN_RES LYS A 131
REMARK  4 active torsions:
REMARK  status: ('A' for Active; 'I' for Inactive)
REMARK    1  A    between atoms: CA   and  CB  
REMARK    2  A    between atoms: CB   and  CG  
REMARK    3  A    between atoms: CG   and  CD  
REMARK    4  A    between atoms: CD   and  CE  
ROOT
ATOM      1  CA  LYS A 131      29.867  25.555  16.977  1.00 20.52     0.186 C 
ENDROOT
BRANCH   1   2
ATOM      2  CB  LYS A 131      28.345  25.722  17.026  1.00 20.94     0.034 C 
BRANCH   2   3
ATOM      3  CG  LYS A 131      27.602  24.399  16.924  1.00 22.96     0.005 C 
BRANCH   3   4
ATOM      4  CD  LYS A 131      26.152  24.533  17.298  1.00 24.33     0.041 C 
BRANCH   4   5
ATOM      5  CE  LYS A 131      25.787  23.460  18.319  1.00 26.91     0.338 C 
ATOM      6  NZ  LYS A 131      25.090  22.332  17.659  1.00 27.40     0.618 N 
ENDBRANCH   4   5
ENDBRANCH   3   4
ENDBRANCH   2   3
ENDBRANCH   1   2
END_RES LYS A 131
BEGIN_RES LYS A 135
REMARK  4 active torsions:
REMARK  status: ('A' for Active; 'I' for Inactive)
REMARK    5  A    between atoms: CA   and  CB  
REMARK    6  A    between atoms: CB   and  CG  
REMARK    7  A    between atoms: CG   and  CD  
REMARK    8  A    between atoms: CD   and  CE  
ROOT
ATOM      7  CA  LYS A 135      33.193  34.663   9.290  1.00 25.02     0.186 C 
ENDROOT
BRANCH   7   8
ATOM      8  CB  LYS A 135      32.060  35.360  10.034  1.00 26.63     0.034 C 
BRANCH   8   9
ATOM      9  CG  LYS A 135      30.711  34.727   9.807  1.00 29.45     0.005 C 
BRANCH   9  10
ATOM     10  CD  LYS A 135      30.451  34.537   8.321  1.00 32.00     0.041 C 
BRANCH  10  11
ATOM     11  CE  LYS A 135      29.003  34.840   7.990  1.00 34.25     0.338 C 
ATOM     12  NZ  LYS A 135      28.885  35.531   6.676  1.00 35.99     0.618 N 
ENDBRANCH  10  11
ENDBRANCH   9  10
ENDBRANCH   8   9
ENDBRANCH   7   8
END_RES LYS A 135
