REMARK VINA RESULT:    -4.338      3.976      9.558
REMARK INTER + INTRA:         -22.250
REMARK INTER:                  -7.881
REMARK INTRA:                 -14.368
REMARK UNBOUND:               -11.064
REMARK SMILES CC(=O)N[C@@H]1[C@@H](O)C[C@](OC[C@H]2O[C@@H](O[C@H]3[C@H](O)[C@@H](O)[C@H](OCCN=[N+]=[N-])O[C@@H]3CO)[C@H](O)[C@@H](O)[C@H]2O)(C(=O)O)O[C@H]1C(O)[C@H](O)CNC(=O)OCc1cn(CC(=O)Nc2ncccn2)nn1
REMARK SMILES IDX 9 1 8 2 6 3 5 4 42 5 41 6 10 7 11 8 12 9 14 10 13 11 32 12
REMARK SMILES IDX 34 13 36 14 15 15 16 16 29 17 28 18 21 19 17 20 19 21 30 22
REMARK SMILES IDX 31 23 22 25 23 26 24 27 25 28 26 29 27 30 18 31 20 33 33 35
REMARK SMILES IDX 35 37 37 39 38 41 39 42 40 43 7 45 43 47 44 48 45 50 46 51
REMARK SMILES IDX 47 53 48 54 49 55 50 57 51 58 52 59 53 60 54 61 67 62 55 63
REMARK SMILES IDX 66 64 56 65 57 66 58 67 59 68 60 70 61 71 65 72 62 73 64 74
REMARK SMILES IDX 63 75 4 76 2 77 1 79 3 80
REMARK H PARENT 31 24 18 32 20 34 33 36 35 38 37 40 40 44 7 46 44 49 46 52
REMARK H PARENT 48 56 59 69 4 78
REMARK Flexibility Score: inf
ROOT
ATOM      1  C   UNL     1      23.865  36.224  13.605  1.00  0.00     0.272 C 
ATOM      2  C   UNL     1      22.962  36.769  14.699  1.00  0.00     0.113 C 
ATOM      3  C   UNL     1      21.791  35.895  14.898  1.00  0.00     0.145 C 
ATOM      4  C   UNL     1      22.084  34.404  14.956  1.00  0.00     0.142 C 
ATOM      5  C   UNL     1      23.281  34.013  14.214  1.00  0.00     0.178 C 
ATOM      6  O   UNL     1      24.270  34.986  14.232  1.00  0.00    -0.332 OA
ENDROOT
BRANCH   1   7
ATOM      7  O   UNL     1      24.958  36.974  13.537  1.00  0.00    -0.338 OA
BRANCH   7   8
ATOM      8  C   UNL     1      25.927  37.357  14.265  1.00  0.00     0.199 C 
BRANCH   8   9
ATOM      9  C   UNL     1      27.295  36.771  14.374  1.00  0.00     0.179 C 
ATOM     10  C   UNL     1      28.265  34.651  14.512  1.00  0.00     0.282 C 
ATOM     11  O   UNL     1      27.088  35.333  14.528  1.00  0.00    -0.341 OA
ATOM     12  C   UNL     1      28.754  34.495  13.036  1.00  0.00     0.202 C 
ATOM     13  C   UNL     1      27.970  35.578  12.322  1.00  0.00     0.179 C 
ATOM     14  C   UNL     1      28.180  36.842  13.185  1.00  0.00     0.177 C 
BRANCH  10  15
ATOM     15  O   UNL     1      28.063  33.357  15.009  1.00  0.00    -0.341 OA
BRANCH  15  16
ATOM     16  C   UNL     1      28.863  33.073  16.109  1.00  0.00     0.184 C 
ATOM     17  C   UNL     1      29.467  31.680  15.894  1.00  0.00     0.178 C 
ATOM     18  O   UNL     1      29.249  30.865  16.995  1.00  0.00    -0.341 OA
ATOM     19  C   UNL     1      27.879  30.639  17.193  1.00  0.00     0.281 C 
ATOM     20  C   UNL     1      28.069  33.150  17.359  1.00  0.00     0.180 C 
ATOM     21  C   UNL     1      27.314  31.915  17.749  1.00  0.00     0.202 C 
BRANCH  17  22
ATOM     22  C   UNL     1      30.972  31.798  15.722  1.00  0.00     0.191 C 
BRANCH  22  23
ATOM     23  O   UNL     1      31.288  32.550  14.590  1.00  0.00    -0.394 OA
ATOM     24  H   UNL     1      32.252  32.798  14.562  1.00  0.00     0.210 HD
ENDBRANCH  22  23
ENDBRANCH  17  22
BRANCH  19  25
ATOM     25  O   UNL     1      27.796  29.619  18.122  1.00  0.00    -0.350 OA
BRANCH  25  26
ATOM     26  C   UNL     1      27.684  30.059  19.424  1.00  0.00     0.169 C 
BRANCH  26  27
ATOM     27  C   UNL     1      27.739  28.955  20.457  1.00  0.00     0.119 C 
BRANCH  27  28
ATOM     28  N   UNL     1      28.504  27.812  19.984  1.00  0.00    -0.092 NA
ATOM     29  N   UNL     1      29.437  27.336  20.637  1.00  0.00     0.001 N 
ATOM     30  N   UNL     1      30.404  27.092  21.352  1.00  0.00    -0.003 NA
ENDBRANCH  27  28
ENDBRANCH  26  27
ENDBRANCH  25  26
ENDBRANCH  19  25
BRANCH  20  31
ATOM     31  O   UNL     1      28.950  33.415  18.444  1.00  0.00    -0.387 OA
ATOM     32  H   UNL     1      29.103  34.401  18.508  1.00  0.00     0.211 HD
ENDBRANCH  20  31
BRANCH  21  33
ATOM     33  O   UNL     1      25.991  32.055  17.345  1.00  0.00    -0.385 OA
ATOM     34  H   UNL     1      25.939  32.695  16.596  1.00  0.00     0.211 HD
ENDBRANCH  21  33
ENDBRANCH  15  16
ENDBRANCH  10  15
BRANCH  12  35
ATOM     35  O   UNL     1      30.093  34.900  12.987  1.00  0.00    -0.385 OA
ATOM     36  H   UNL     1      30.216  35.345  12.106  1.00  0.00     0.211 HD
ENDBRANCH  12  35
BRANCH  13  37
ATOM     37  O   UNL     1      26.650  35.272  12.134  1.00  0.00    -0.387 OA
ATOM     38  H   UNL     1      26.071  36.052  12.030  1.00  0.00     0.211 HD
ENDBRANCH  13  37
BRANCH  14  39
ATOM     39  O   UNL     1      28.154  37.916  12.367  1.00  0.00    -0.387 OA
ATOM     40  H   UNL     1      28.926  37.941  11.750  1.00  0.00     0.211 HD
ENDBRANCH  14  39
ENDBRANCH   8   9
ENDBRANCH   7   8
ENDBRANCH   1   7
BRANCH   1  41
ATOM     41  C   UNL     1      23.223  35.911  12.347  1.00  0.00     0.364 C 
ATOM     42  O   UNL     1      23.834  35.198  11.479  1.00  0.00    -0.246 OA
BRANCH  41  43
ATOM     43  O   UNL     1      21.968  36.323  11.965  1.00  0.00    -0.477 OA
ATOM     44  H   UNL     1      21.317  36.808  12.534  1.00  0.00     0.296 HD
ENDBRANCH  41  43
ENDBRANCH   1  41
BRANCH   3  45
ATOM     45  O   UNL     1      21.179  36.298  16.112  1.00  0.00    -0.391 OA
ATOM     46  H   UNL     1      21.899  36.460  16.795  1.00  0.00     0.211 HD
ENDBRANCH   3  45
BRANCH   5  47
ATOM     47  C   UNL     1      24.001  32.751  14.758  1.00  0.00     0.176 C 
BRANCH  47  48
ATOM     48  O   UNL     1      23.406  32.148  15.799  1.00  0.00    -0.388 OA
ATOM     49  H   UNL     1      22.467  31.847  15.643  1.00  0.00     0.211 HD
ENDBRANCH  47  48
BRANCH  47  50
ATOM     50  C   UNL     1      24.768  31.989  13.793  1.00  0.00     0.165 C 
BRANCH  50  51
ATOM     51  O   UNL     1      24.829  32.900  12.605  1.00  0.00    -0.388 OA
ATOM     52  H   UNL     1      24.658  33.802  12.917  1.00  0.00     0.211 HD
ENDBRANCH  50  51
BRANCH  50  53
ATOM     53  C   UNL     1      24.449  30.677  13.269  1.00  0.00     0.154 C 
BRANCH  53  54
ATOM     54  N   UNL     1      23.974  29.564  13.949  1.00  0.00    -0.319 N 
ATOM     55  C   UNL     1      22.693  29.051  14.241  1.00  0.00     0.407 C 
ATOM     56  H   UNL     1      24.794  28.927  14.364  1.00  0.00     0.167 HD
ATOM     57  O   UNL     1      21.662  29.641  13.867  1.00  0.00    -0.225 OA
BRANCH  55  58
ATOM     58  O   UNL     1      22.532  27.883  14.941  1.00  0.00    -0.443 OA
BRANCH  58  59
ATOM     59  C   UNL     1      22.978  27.534  16.173  1.00  0.00     0.294 C 
BRANCH  59  60
ATOM     60  C   UNL     1      23.151  28.671  17.105  1.00  0.00     0.120 A 
ATOM     61  C   UNL     1      22.176  29.198  17.963  1.00  0.00     0.138 A 
ATOM     62  N   UNL     1      24.222  29.489  17.302  1.00  0.00    -0.132 NA
ATOM     63  N   UNL     1      22.657  30.262  18.616  1.00  0.00    -0.243 N 
ATOM     64  N   UNL     1      23.899  30.404  18.188  1.00  0.00    -0.067 NA
BRANCH  63  65
ATOM     65  C   UNL     1      22.012  31.116  19.594  1.00  0.00     0.246 C 
BRANCH  65  66
ATOM     66  C   UNL     1      22.749  32.439  19.599  1.00  0.00     0.248 C 
ATOM     67  O   UNL     1      23.408  32.826  20.594  1.00  0.00    -0.272 OA
ATOM     68  N   UNL     1      22.705  33.277  18.457  1.00  0.00    -0.293 N 
ATOM     69  H   UNL     1      22.140  32.903  17.654  1.00  0.00     0.173 HD
BRANCH  68  70
ATOM     70  C   UNL     1      23.349  34.524  18.312  1.00  0.00     0.229 A 
ATOM     71  N   UNL     1      22.834  35.699  18.713  1.00  0.00    -0.221 NA
ATOM     72  N   UNL     1      24.562  34.544  17.723  1.00  0.00    -0.221 NA
ATOM     73  C   UNL     1      23.486  36.887  18.544  1.00  0.00     0.117 A 
ATOM     74  C   UNL     1      25.244  35.674  17.534  1.00  0.00     0.117 A 
ATOM     75  C   UNL     1      24.724  36.874  17.938  1.00  0.00     0.040 A 
ENDBRANCH  68  70
ENDBRANCH  65  66
ENDBRANCH  63  65
ENDBRANCH  59  60
ENDBRANCH  58  59
ENDBRANCH  55  58
ENDBRANCH  53  54
ENDBRANCH  50  53
ENDBRANCH  47  50
ENDBRANCH   5  47
BRANCH   4  76
ATOM     76  N   UNL     1      20.853  33.751  14.626  1.00  0.00    -0.348 N 
ATOM     77  C   UNL     1      19.980  33.230  15.653  1.00  0.00     0.217 C 
ATOM     78  H   UNL     1      20.536  33.625  13.629  1.00  0.00     0.163 HD
ATOM     79  C   UNL     1      18.722  32.573  15.242  1.00  0.00     0.114 C 
ATOM     80  O   UNL     1      20.294  33.338  16.856  1.00  0.00    -0.275 OA
ENDBRANCH   4  76
TORSDOF 32
BEGIN_RES LYS A 131
REMARK  4 active torsions:
REMARK  status: ('A' for Active; 'I' for Inactive)
REMARK    1  A    between atoms: CA   and  CB  
REMARK    2  A    between atoms: CB   and  CG  
REMARK    3  A    between atoms: CG   and  CD  
REMARK    4  A    between atoms: CD   and  CE  
ROOT
ATOM      1  CA  LYS A 131      29.867  25.555  16.977  1.00 20.52     0.186 C 
ENDROOT
BRANCH   1   2
ATOM      2  CB  LYS A 131      28.345  25.722  17.026  1.00 20.94     0.034 C 
BRANCH   2   3
ATOM      3  CG  LYS A 131      27.602  24.398  16.933  1.00 22.96     0.005 C 
BRANCH   3   4
ATOM      4  CD  LYS A 131      26.528  24.277  17.978  1.00 24.33     0.041 C 
BRANCH   4   5
ATOM      5  CE  LYS A 131      26.117  25.668  18.450  1.00 26.91     0.338 C 
ATOM      6  NZ  LYS A 131      25.538  25.605  19.812  1.00 27.40     0.618 N 
ENDBRANCH   4   5
ENDBRANCH   3   4
ENDBRANCH   2   3
ENDBRANCH   1   2
END_RES LYS A 131
BEGIN_RES LYS A 135
REMARK  4 active torsions:
REMARK  status: ('A' for Active; 'I' for Inactive)
REMARK    5  A    between atoms: CA   and  CB  
REMARK    6  A    between atoms: CB   and  CG  
REMARK    7  A    between atoms: CG   and  CD  
REMARK    8  A    between atoms: CD   and  CE  
ROOT
ATOM      7  CA  LYS A 135      33.193  34.663   9.290  1.00 25.02     0.186 C 
ENDROOT
BRANCH   7   8
ATOM      8  CB  LYS A 135      32.060  35.360  10.034  1.00 26.63     0.034 C 
BRANCH   8   9
ATOM      9  CG  LYS A 135      30.790  35.471   9.230  1.00 29.45     0.005 C 
BRANCH   9  10
ATOM     10  CD  LYS A 135      30.226  34.092   8.924  1.00 32.00     0.041 C 
BRANCH  10  11
ATOM     11  CE  LYS A 135      28.721  34.080   9.110  1.00 34.25     0.338 C 
ATOM     12  NZ  LYS A 135      28.038  34.811   8.007  1.00 35.99     0.618 N 
ENDBRANCH  10  11
ENDBRANCH   9  10
ENDBRANCH   8   9
ENDBRANCH   7   8
END_RES LYS A 135
