REMARK VINA RESULT:    -4.029      2.530      9.523
REMARK INTER + INTRA:         -21.986
REMARK INTER:                  -9.653
REMARK INTRA:                 -12.333
REMARK UNBOUND:               -11.833
REMARK SMILES CC(=O)N[C@@H]1[C@@H](O)C[C@](OC[C@H]2O[C@@H](O[C@H]3[C@H](O)[C@@H](O)[C@H](OCCN=[N+]=[N-])O[C@@H]3CO)[C@H](O)[C@@H](O)[C@H]2O)(C(=O)O)O[C@H]1C(O)[C@H](O)CNC(=O)OCc1cn(-c2ccccc2C(N)=O)nn1
REMARK SMILES IDX 9 1 8 2 6 3 5 4 42 5 41 6 10 7 11 8 12 9 14 10 13 11 32 12
REMARK SMILES IDX 34 13 36 14 15 15 16 16 29 17 28 18 21 19 17 20 19 21 30 22
REMARK SMILES IDX 31 23 22 25 23 26 24 27 25 28 26 29 27 30 18 31 20 33 33 35
REMARK SMILES IDX 35 37 37 39 38 41 39 42 40 43 7 45 43 47 44 48 45 50 46 51
REMARK SMILES IDX 47 53 48 54 49 55 50 57 51 58 52 59 53 60 54 61 66 62 55 63
REMARK SMILES IDX 65 64 56 65 61 66 57 67 60 68 58 69 59 70 62 71 64 72 63 73
REMARK SMILES IDX 4 76 2 77 1 79 3 80
REMARK H PARENT 31 24 18 32 20 34 33 36 35 38 37 40 40 44 7 46 44 49 46 52
REMARK H PARENT 48 56 63 74 63 75 4 78
REMARK Flexibility Score: inf
ROOT
ATOM      1  C   UNL     1      23.585  33.970  14.884  1.00  0.00     0.272 C 
ATOM      2  C   UNL     1      22.042  33.959  15.081  1.00  0.00     0.113 C 
ATOM      3  C   UNL     1      21.480  33.483  13.772  1.00  0.00     0.145 C 
ATOM      4  C   UNL     1      21.639  34.538  12.750  1.00  0.00     0.142 C 
ATOM      5  C   UNL     1      22.948  35.275  13.083  1.00  0.00     0.178 C 
ATOM      6  O   UNL     1      23.880  34.393  13.598  1.00  0.00    -0.332 OA
ENDROOT
BRANCH   1   7
ATOM      7  O   UNL     1      23.944  32.646  15.049  1.00  0.00    -0.338 OA
BRANCH   7   8
ATOM      8  C   UNL     1      25.209  32.338  14.645  1.00  0.00     0.199 C 
BRANCH   8   9
ATOM      9  C   UNL     1      25.938  31.439  15.628  1.00  0.00     0.179 C 
ATOM     10  C   UNL     1      28.106  31.110  16.415  1.00  0.00     0.282 C 
ATOM     11  O   UNL     1      27.256  31.887  15.643  1.00  0.00    -0.341 OA
ATOM     12  C   UNL     1      27.454  30.042  17.212  1.00  0.00     0.202 C 
ATOM     13  C   UNL     1      26.117  30.388  17.797  1.00  0.00     0.179 C 
ATOM     14  C   UNL     1      25.414  31.513  17.025  1.00  0.00     0.177 C 
BRANCH  10  15
ATOM     15  O   UNL     1      28.799  31.972  17.246  1.00  0.00    -0.341 OA
BRANCH  15  16
ATOM     16  C   UNL     1      29.505  32.947  16.561  1.00  0.00     0.184 C 
ATOM     17  C   UNL     1      30.962  32.835  16.954  1.00  0.00     0.178 C 
ATOM     18  O   UNL     1      31.312  33.698  17.935  1.00  0.00    -0.341 OA
ATOM     19  C   UNL     1      31.240  34.998  17.589  1.00  0.00     0.281 C 
ATOM     20  C   UNL     1      28.955  34.288  17.034  1.00  0.00     0.180 C 
ATOM     21  C   UNL     1      29.971  35.367  16.930  1.00  0.00     0.202 C 
BRANCH  17  22
ATOM     22  C   UNL     1      31.835  33.017  15.744  1.00  0.00     0.191 C 
BRANCH  22  23
ATOM     23  O   UNL     1      31.468  32.152  14.708  1.00  0.00    -0.394 OA
ATOM     24  H   UNL     1      31.570  31.224  15.080  1.00  0.00     0.210 HD
ENDBRANCH  22  23
ENDBRANCH  17  22
BRANCH  19  25
ATOM     25  O   UNL     1      32.371  35.470  16.907  1.00  0.00    -0.350 OA
BRANCH  25  26
ATOM     26  C   UNL     1      33.348  35.973  17.728  1.00  0.00     0.169 C 
BRANCH  26  27
ATOM     27  C   UNL     1      32.793  37.056  18.591  1.00  0.00     0.119 C 
BRANCH  27  28
ATOM     28  N   UNL     1      32.881  38.317  17.899  1.00  0.00    -0.092 NA
ATOM     29  N   UNL     1      32.110  38.630  16.983  1.00  0.00     0.001 N 
ATOM     30  N   UNL     1      31.127  38.803  16.258  1.00  0.00    -0.003 NA
ENDBRANCH  27  28
ENDBRANCH  26  27
ENDBRANCH  25  26
ENDBRANCH  19  25
BRANCH  20  31
ATOM     31  O   UNL     1      27.839  34.637  16.280  1.00  0.00    -0.387 OA
ATOM     32  H   UNL     1      28.017  34.482  15.300  1.00  0.00     0.211 HD
ENDBRANCH  20  31
BRANCH  21  33
ATOM     33  O   UNL     1      29.441  36.513  17.574  1.00  0.00    -0.385 OA
ATOM     34  H   UNL     1      29.326  36.294  18.544  1.00  0.00     0.211 HD
ENDBRANCH  21  33
ENDBRANCH  15  16
ENDBRANCH  10  15
BRANCH  12  35
ATOM     35  O   UNL     1      27.409  28.811  16.523  1.00  0.00    -0.385 OA
ATOM     36  H   UNL     1      28.271  28.716  16.063  1.00  0.00     0.211 HD
ENDBRANCH  12  35
BRANCH  13  37
ATOM     37  O   UNL     1      26.254  30.831  19.113  1.00  0.00    -0.387 OA
ATOM     38  H   UNL     1      25.983  31.794  19.208  1.00  0.00     0.211 HD
ENDBRANCH  13  37
BRANCH  14  39
ATOM     39  O   UNL     1      25.809  32.746  17.574  1.00  0.00    -0.387 OA
ATOM     40  H   UNL     1      26.723  32.996  17.365  1.00  0.00     0.211 HD
ENDBRANCH  14  39
ENDBRANCH   8   9
ENDBRANCH   7   8
ENDBRANCH   1   7
BRANCH   1  41
ATOM     41  C   UNL     1      24.191  34.877  15.862  1.00  0.00     0.364 C 
ATOM     42  O   UNL     1      25.135  35.668  15.517  1.00  0.00    -0.246 OA
BRANCH  41  43
ATOM     43  O   UNL     1      23.741  34.887  17.185  1.00  0.00    -0.477 OA
ATOM     44  H   UNL     1      23.325  34.024  17.525  1.00  0.00     0.296 HD
ENDBRANCH  41  43
ENDBRANCH   1  41
BRANCH   3  45
ATOM     45  O   UNL     1      22.303  32.402  13.365  1.00  0.00    -0.391 OA
ATOM     46  H   UNL     1      21.732  31.708  12.945  1.00  0.00     0.211 HD
ENDBRANCH   3  45
BRANCH   5  47
ATOM     47  C   UNL     1      23.414  36.072  11.899  1.00  0.00     0.176 C 
BRANCH  47  48
ATOM     48  O   UNL     1      24.645  36.651  12.268  1.00  0.00    -0.388 OA
ATOM     49  H   UNL     1      24.526  37.199  13.090  1.00  0.00     0.211 HD
ENDBRANCH  47  48
BRANCH  47  50
ATOM     50  C   UNL     1      23.753  35.159  10.717  1.00  0.00     0.165 C 
BRANCH  50  51
ATOM     51  O   UNL     1      25.126  34.864  10.761  1.00  0.00    -0.388 OA
ATOM     52  H   UNL     1      25.322  34.644  11.710  1.00  0.00     0.211 HD
ENDBRANCH  50  51
BRANCH  50  53
ATOM     53  C   UNL     1      23.435  35.790   9.405  1.00  0.00     0.154 C 
BRANCH  53  54
ATOM     54  N   UNL     1      23.899  37.150   9.347  1.00  0.00    -0.319 N 
ATOM     55  C   UNL     1      24.840  37.628   8.401  1.00  0.00     0.407 C 
ATOM     56  H   UNL     1      23.506  37.828  10.062  1.00  0.00     0.167 HD
ATOM     57  O   UNL     1      25.366  36.965   7.506  1.00  0.00    -0.225 OA
BRANCH  55  58
ATOM     58  O   UNL     1      25.236  38.986   8.456  1.00  0.00    -0.443 OA
BRANCH  58  59
ATOM     59  C   UNL     1      26.618  39.308   8.627  1.00  0.00     0.294 C 
BRANCH  59  60
ATOM     60  C   UNL     1      27.136  38.748   9.889  1.00  0.00     0.121 A 
ATOM     61  C   UNL     1      28.364  38.181  10.135  1.00  0.00     0.144 A 
ATOM     62  N   UNL     1      26.479  38.687  11.060  1.00  0.00    -0.131 NA
ATOM     63  N   UNL     1      28.430  37.791  11.427  1.00  0.00    -0.220 N 
ATOM     64  N   UNL     1      27.252  38.120  11.964  1.00  0.00    -0.062 NA
BRANCH  63  65
ATOM     65  C   UNL     1      29.494  37.160  12.116  1.00  0.00     0.079 A 
ATOM     66  C   UNL     1      29.313  35.881  12.577  1.00  0.00     0.065 A 
ATOM     67  C   UNL     1      30.696  37.806  12.328  1.00  0.00     0.029 A 
ATOM     68  C   UNL     1      30.324  35.213  13.262  1.00  0.00     0.016 A 
ATOM     69  C   UNL     1      31.722  37.152  13.013  1.00  0.00     0.002 A 
ATOM     70  C   UNL     1      31.520  35.868  13.469  1.00  0.00     0.001 A 
BRANCH  66  71
ATOM     71  C   UNL     1      28.049  35.210  12.352  1.00  0.00     0.250 C 
ATOM     72  O   UNL     1      27.890  34.563  11.286  1.00  0.00    -0.269 OA
ATOM     73  N   UNL     1      26.972  35.236  13.260  1.00  0.00    -0.366 N 
ATOM     74  H   UNL     1      26.606  34.353  13.649  1.00  0.00     0.159 HD
ATOM     75  H   UNL     1      26.552  36.137  13.533  1.00  0.00     0.159 HD
ENDBRANCH  66  71
ENDBRANCH  63  65
ENDBRANCH  59  60
ENDBRANCH  58  59
ENDBRANCH  55  58
ENDBRANCH  53  54
ENDBRANCH  50  53
ENDBRANCH  47  50
ENDBRANCH   5  47
BRANCH   4  76
ATOM     76  N   UNL     1      20.619  35.507  12.648  1.00  0.00    -0.348 N 
ATOM     77  C   UNL     1      19.826  35.681  11.486  1.00  0.00     0.217 C 
ATOM     78  H   UNL     1      20.432  36.133  13.467  1.00  0.00     0.163 HD
ATOM     79  C   UNL     1      18.750  36.684  11.342  1.00  0.00     0.114 C 
ATOM     80  O   UNL     1      20.107  34.885  10.532  1.00  0.00    -0.275 OA
ENDBRANCH   4  76
TORSDOF 31
BEGIN_RES LYS A 131
REMARK  4 active torsions:
REMARK  status: ('A' for Active; 'I' for Inactive)
REMARK    1  A    between atoms: CA   and  CB  
REMARK    2  A    between atoms: CB   and  CG  
REMARK    3  A    between atoms: CG   and  CD  
REMARK    4  A    between atoms: CD   and  CE  
ROOT
ATOM      1  CA  LYS A 131      29.867  25.555  16.977  1.00 20.52     0.186 C 
ENDROOT
BRANCH   1   2
ATOM      2  CB  LYS A 131      28.345  25.722  17.026  1.00 20.94     0.034 C 
BRANCH   2   3
ATOM      3  CG  LYS A 131      27.599  24.422  16.767  1.00 22.96     0.005 C 
BRANCH   3   4
ATOM      4  CD  LYS A 131      26.855  23.943  17.983  1.00 24.33     0.041 C 
BRANCH   4   5
ATOM      5  CE  LYS A 131      25.596  23.201  17.549  1.00 26.91     0.338 C 
ATOM      6  NZ  LYS A 131      24.633  24.135  16.919  1.00 27.40     0.618 N 
ENDBRANCH   4   5
ENDBRANCH   3   4
ENDBRANCH   2   3
ENDBRANCH   1   2
END_RES LYS A 131
BEGIN_RES LYS A 135
REMARK  4 active torsions:
REMARK  status: ('A' for Active; 'I' for Inactive)
REMARK    5  A    between atoms: CA   and  CB  
REMARK    6  A    between atoms: CB   and  CG  
REMARK    7  A    between atoms: CG   and  CD  
REMARK    8  A    between atoms: CD   and  CE  
ROOT
ATOM      7  CA  LYS A 135      33.193  34.663   9.290  1.00 25.02     0.186 C 
ENDROOT
BRANCH   7   8
ATOM      8  CB  LYS A 135      32.060  35.360  10.034  1.00 26.63     0.034 C 
BRANCH   8   9
ATOM      9  CG  LYS A 135      30.907  35.751   9.146  1.00 29.45     0.005 C 
BRANCH   9  10
ATOM     10  CD  LYS A 135      30.457  34.570   8.299  1.00 32.00     0.041 C 
BRANCH  10  11
ATOM     11  CE  LYS A 135      28.957  34.613   8.080  1.00 34.25     0.338 C 
ATOM     12  NZ  LYS A 135      28.607  35.507   6.941  1.00 35.99     0.618 N 
ENDBRANCH  10  11
ENDBRANCH   9  10
ENDBRANCH   8   9
ENDBRANCH   7   8
END_RES LYS A 135
