REMARK VINA RESULT:    -4.216      6.994     12.326
REMARK INTER + INTRA:         -22.378
REMARK INTER:                 -13.355
REMARK INTRA:                  -9.022
REMARK UNBOUND:               -11.507
REMARK SMILES COc1ccc(Cn2cc(COC(=O)NC[C@@H](O)C(O)[C@@H]3O[C@@](OC[C@H]4O[C@@H](O[C@H]5[C@H](O)[C@@H](O)[C@H](OCCN=[N+]=[N-])O[C@@H]5CO)[C@H](O)[C@@H](O)[C@H]4O)(C(=O)O)C[C@H](O)[C@H]3NC(C)=O)nn2)cc1
REMARK SMILES IDX 23 1 55 2 56 3 58 4 21 5 22 6 24 7 25 8 26 9 28 10 27 11
REMARK SMILES IDX 46 12 48 13 50 14 29 15 30 16 43 17 42 18 35 19 31 20 33 21
REMARK SMILES IDX 44 22 45 23 36 25 37 26 38 27 39 28 40 29 41 30 32 31 34 33
REMARK SMILES IDX 47 35 49 37 51 39 52 41 53 42 54 43 57 45 19 47 20 48 17 50
REMARK SMILES IDX 18 51 16 53 15 54 13 55 14 57 12 58 11 59 10 60 9 61 63 62
REMARK SMILES IDX 8 63 64 64 7 65 6 66 5 67 65 68 4 69 66 70 3 71 2 72 1 73
REMARK SMILES IDX 59 74 60 75 61 77 62 78
REMARK H PARENT 45 24 32 32 34 34 47 36 49 38 51 40 54 44 57 46 20 49 18 52
REMARK H PARENT 15 56 59 76
REMARK Flexibility Score: inf
ROOT
ATOM      1  C   UNL     1      30.339  31.564  21.391  1.00  0.00     0.272 C 
ATOM      2  C   UNL     1      31.675  30.970  20.997  1.00  0.00     0.113 C 
ATOM      3  C   UNL     1      32.136  29.992  22.060  1.00  0.00     0.145 C 
ATOM      4  C   UNL     1      31.064  29.044  22.512  1.00  0.00     0.142 C 
ATOM      5  C   UNL     1      29.710  29.322  21.882  1.00  0.00     0.178 C 
ATOM      6  O   UNL     1      29.438  30.674  21.815  1.00  0.00    -0.332 OA
ENDROOT
BRANCH   1   7
ATOM      7  O   UNL     1      29.936  32.528  20.530  1.00  0.00    -0.338 OA
BRANCH   7   8
ATOM      8  C   UNL     1      30.549  32.793  19.371  1.00  0.00     0.199 C 
BRANCH   8   9
ATOM      9  C   UNL     1      29.649  32.619  18.167  1.00  0.00     0.179 C 
ATOM     10  C   UNL     1      29.025  33.801  16.323  1.00  0.00     0.282 C 
ATOM     11  O   UNL     1      30.144  33.406  17.089  1.00  0.00    -0.341 OA
ATOM     12  C   UNL     1      28.051  32.694  16.155  1.00  0.00     0.202 C 
ATOM     13  C   UNL     1      28.525  31.320  16.487  1.00  0.00     0.179 C 
ATOM     14  C   UNL     1      29.509  31.242  17.637  1.00  0.00     0.177 C 
BRANCH  10  15
ATOM     15  O   UNL     1      29.388  34.502  15.208  1.00  0.00    -0.341 OA
BRANCH  15  16
ATOM     16  C   UNL     1      30.631  35.097  15.223  1.00  0.00     0.184 C 
ATOM     17  C   UNL     1      30.707  36.435  14.529  1.00  0.00     0.178 C 
ATOM     18  O   UNL     1      31.985  36.659  14.019  1.00  0.00    -0.341 OA
ATOM     19  C   UNL     1      32.994  36.066  14.798  1.00  0.00     0.281 C 
ATOM     20  C   UNL     1      31.514  34.197  14.337  1.00  0.00     0.180 C 
ATOM     21  C   UNL     1      32.939  34.531  14.685  1.00  0.00     0.202 C 
BRANCH  17  22
ATOM     22  C   UNL     1      30.366  37.612  15.387  1.00  0.00     0.191 C 
BRANCH  22  23
ATOM     23  O   UNL     1      30.268  37.203  16.715  1.00  0.00    -0.394 OA
ATOM     24  H   UNL     1      30.671  37.926  17.275  1.00  0.00     0.210 HD
ENDBRANCH  22  23
ENDBRANCH  17  22
BRANCH  19  25
ATOM     25  O   UNL     1      33.009  36.459  16.097  1.00  0.00    -0.350 OA
BRANCH  25  26
ATOM     26  C   UNL     1      33.948  35.950  16.940  1.00  0.00     0.169 C 
BRANCH  26  27
ATOM     27  C   UNL     1      33.821  36.252  18.386  1.00  0.00     0.119 C 
BRANCH  27  28
ATOM     28  N   UNL     1      32.505  36.581  18.813  1.00  0.00    -0.092 NA
ATOM     29  N   UNL     1      31.947  36.094  19.807  1.00  0.00     0.001 N 
ATOM     30  N   UNL     1      31.465  36.023  20.960  1.00  0.00    -0.003 NA
ENDBRANCH  27  28
ENDBRANCH  26  27
ENDBRANCH  25  26
ENDBRANCH  19  25
BRANCH  20  31
ATOM     31  O   UNL     1      31.190  32.874  14.449  1.00  0.00    -0.387 OA
ATOM     32  H   UNL     1      30.733  32.522  13.620  1.00  0.00     0.211 HD
ENDBRANCH  20  31
BRANCH  21  33
ATOM     33  O   UNL     1      33.827  34.057  13.720  1.00  0.00    -0.385 OA
ATOM     34  H   UNL     1      34.744  34.049  14.102  1.00  0.00     0.211 HD
ENDBRANCH  21  33
ENDBRANCH  15  16
ENDBRANCH  10  15
BRANCH  12  35
ATOM     35  O   UNL     1      26.827  32.959  16.821  1.00  0.00    -0.385 OA
ATOM     36  H   UNL     1      26.542  32.136  17.323  1.00  0.00     0.211 HD
ENDBRANCH  12  35
BRANCH  13  37
ATOM     37  O   UNL     1      29.028  30.650  15.346  1.00  0.00    -0.387 OA
ATOM     38  H   UNL     1      29.741  30.031  15.649  1.00  0.00     0.211 HD
ENDBRANCH  13  37
BRANCH  14  39
ATOM     39  O   UNL     1      30.718  30.678  17.243  1.00  0.00    -0.387 OA
ATOM     40  H   UNL     1      30.657  29.696  17.139  1.00  0.00     0.211 HD
ENDBRANCH  14  39
ENDBRANCH   8   9
ENDBRANCH   7   8
ENDBRANCH   1   7
BRANCH   1  41
ATOM     41  C   UNL     1      30.746  32.469  22.600  1.00  0.00     0.364 C 
ATOM     42  O   UNL     1      30.243  32.260  23.724  1.00  0.00    -0.246 OA
BRANCH  41  43
ATOM     43  O   UNL     1      31.632  33.485  22.492  1.00  0.00    -0.477 OA
ATOM     44  H   UNL     1      32.562  33.474  22.154  1.00  0.00     0.296 HD
ENDBRANCH  41  43
ENDBRANCH   1  41
BRANCH   3  45
ATOM     45  O   UNL     1      33.180  29.265  21.416  1.00  0.00    -0.391 OA
ATOM     46  H   UNL     1      33.554  28.587  22.034  1.00  0.00     0.211 HD
ENDBRANCH   3  45
BRANCH   5  47
ATOM     47  C   UNL     1      29.624  28.529  20.636  1.00  0.00     0.176 C 
BRANCH  47  48
ATOM     48  O   UNL     1      29.082  29.252  19.534  1.00  0.00    -0.388 OA
ATOM     49  H   UNL     1      28.111  29.118  19.545  1.00  0.00     0.211 HD
ENDBRANCH  47  48
BRANCH  47  50
ATOM     50  C   UNL     1      28.552  27.402  20.685  1.00  0.00     0.165 C 
BRANCH  50  51
ATOM     51  O   UNL     1      28.416  26.625  19.605  1.00  0.00    -0.388 OA
ATOM     52  H   UNL     1      29.292  26.437  19.183  1.00  0.00     0.211 HD
ENDBRANCH  50  51
BRANCH  50  53
ATOM     53  C   UNL     1      27.219  28.092  21.051  1.00  0.00     0.154 C 
BRANCH  53  54
ATOM     54  N   UNL     1      26.172  27.801  20.129  1.00  0.00    -0.319 N 
ATOM     55  C   UNL     1      25.770  28.796  19.179  1.00  0.00     0.407 C 
ATOM     56  H   UNL     1      25.694  26.893  20.127  1.00  0.00     0.167 HD
ATOM     57  O   UNL     1      26.355  29.914  19.176  1.00  0.00    -0.225 OA
BRANCH  55  58
ATOM     58  O   UNL     1      24.750  28.485  18.298  1.00  0.00    -0.443 OA
BRANCH  58  59
ATOM     59  C   UNL     1      23.775  29.492  17.962  1.00  0.00     0.294 C 
BRANCH  59  60
ATOM     60  C   UNL     1      24.084  29.995  16.608  1.00  0.00     0.120 A 
ATOM     61  C   UNL     1      23.680  29.437  15.390  1.00  0.00     0.138 A 
ATOM     62  N   UNL     1      24.816  31.067  16.283  1.00  0.00    -0.132 NA
ATOM     63  N   UNL     1      24.191  30.199  14.416  1.00  0.00    -0.248 N 
ATOM     64  N   UNL     1      24.877  31.186  14.972  1.00  0.00    -0.067 NA
BRANCH  63  65
ATOM     65  C   UNL     1      24.026  29.986  13.000  1.00  0.00     0.181 C 
BRANCH  65  66
ATOM     66  C   UNL     1      22.583  30.000  12.674  1.00  0.00    -0.026 A 
ATOM     67  C   UNL     1      21.879  31.200  12.715  1.00  0.00     0.009 A 
ATOM     68  C   UNL     1      21.891  28.874  12.311  1.00  0.00     0.009 A 
ATOM     69  C   UNL     1      20.538  31.274  12.405  1.00  0.00     0.047 A 
ATOM     70  C   UNL     1      20.530  28.950  11.996  1.00  0.00     0.047 A 
ATOM     71  C   UNL     1      19.841  30.131  12.037  1.00  0.00     0.118 A 
BRANCH  71  72
ATOM     72  O   UNL     1      18.498  30.257  11.735  1.00  0.00    -0.497 OA
ATOM     73  C   UNL     1      17.956  31.221  10.881  1.00  0.00     0.278 C 
ENDBRANCH  71  72
ENDBRANCH  65  66
ENDBRANCH  63  65
ENDBRANCH  59  60
ENDBRANCH  58  59
ENDBRANCH  55  58
ENDBRANCH  53  54
ENDBRANCH  50  53
ENDBRANCH  47  50
ENDBRANCH   5  47
BRANCH   4  74
ATOM     74  N   UNL     1      30.970  28.861  23.944  1.00  0.00    -0.348 N 
ATOM     75  C   UNL     1      30.808  27.604  24.589  1.00  0.00     0.217 C 
ATOM     76  H   UNL     1      31.007  29.690  24.555  1.00  0.00     0.163 HD
ATOM     77  C   UNL     1      30.715  27.532  26.097  1.00  0.00     0.114 C 
ATOM     78  O   UNL     1      30.742  26.555  23.904  1.00  0.00    -0.275 OA
ENDBRANCH   4  74
TORSDOF 32
BEGIN_RES LYS A 131
REMARK  4 active torsions:
REMARK  status: ('A' for Active; 'I' for Inactive)
REMARK    1  A    between atoms: CA   and  CB  
REMARK    2  A    between atoms: CB   and  CG  
REMARK    3  A    between atoms: CG   and  CD  
REMARK    4  A    between atoms: CD   and  CE  
ROOT
ATOM      1  CA  LYS A 131      29.867  25.555  16.977  1.00 20.52     0.186 C 
ENDROOT
BRANCH   1   2
ATOM      2  CB  LYS A 131      28.345  25.722  17.026  1.00 20.94     0.034 C 
BRANCH   2   3
ATOM      3  CG  LYS A 131      27.599  24.445  16.672  1.00 22.96     0.005 C 
BRANCH   3   4
ATOM      4  CD  LYS A 131      26.990  23.790  17.881  1.00 24.33     0.041 C 
BRANCH   4   5
ATOM      5  CE  LYS A 131      25.808  24.621  18.369  1.00 26.91     0.338 C 
ATOM      6  NZ  LYS A 131      25.500  24.305  19.783  1.00 27.40     0.618 N 
ENDBRANCH   4   5
ENDBRANCH   3   4
ENDBRANCH   2   3
ENDBRANCH   1   2
END_RES LYS A 131
BEGIN_RES LYS A 135
REMARK  4 active torsions:
REMARK  status: ('A' for Active; 'I' for Inactive)
REMARK    5  A    between atoms: CA   and  CB  
REMARK    6  A    between atoms: CB   and  CG  
REMARK    7  A    between atoms: CG   and  CD  
REMARK    8  A    between atoms: CD   and  CE  
ROOT
ATOM      7  CA  LYS A 135      33.193  34.663   9.290  1.00 25.02     0.186 C 
ENDROOT
BRANCH   7   8
ATOM      8  CB  LYS A 135      32.060  35.360  10.034  1.00 26.63     0.034 C 
BRANCH   8   9
ATOM      9  CG  LYS A 135      30.733  34.659   9.904  1.00 29.45     0.005 C 
BRANCH   9  10
ATOM     10  CD  LYS A 135      30.346  34.508   8.441  1.00 32.00     0.041 C 
BRANCH  10  11
ATOM     11  CE  LYS A 135      28.838  34.521   8.284  1.00 34.25     0.338 C 
ATOM     12  NZ  LYS A 135      28.404  35.606   7.360  1.00 35.99     0.618 N 
ENDBRANCH  10  11
ENDBRANCH   9  10
ENDBRANCH   8   9
ENDBRANCH   7   8
END_RES LYS A 135
