REMARK VINA RESULT:    -4.670      5.038     10.051
REMARK INTER + INTRA:         -21.838
REMARK INTER:                 -12.051
REMARK INTRA:                  -9.787
REMARK UNBOUND:                -9.660
REMARK SMILES CC(=O)N[C@@H]1[C@@H](O)C[C@](OC[C@H]2O[C@@H](O[C@H]3[C@H](O)[C@@H](O)[C@H](OCCN=[N+]=[N-])O[C@@H]3CO)[C@H](O)[C@@H](O)[C@H]2O)(C(=O)O)O[C@H]1C(O)[C@H](O)CNC(=O)OCc1cn(CCC(=O)O)nn1
REMARK SMILES IDX 43 1 42 2 9 3 8 4 41 5 6 6 5 7 10 8 11 9 12 10 14 11 13 12
REMARK SMILES IDX 32 13 34 14 36 15 15 16 16 17 29 18 28 19 21 20 17 21 19 22
REMARK SMILES IDX 30 23 31 24 22 26 23 27 24 28 25 29 26 30 27 31 18 32 20 34
REMARK SMILES IDX 33 36 35 38 37 40 38 42 39 43 40 44 7 46 4 48 2 49 1 51 3 52
REMARK SMILES IDX 44 53 45 55 46 56 47 58 48 59 49 60 50 62 51 63 52 64 53 65
REMARK SMILES IDX 54 66 62 67 55 68 61 69 56 70 57 71 58 72 59 73 60 74
REMARK H PARENT 31 25 18 33 20 35 33 37 35 39 37 41 40 45 7 47 4 50 44 54
REMARK H PARENT 46 57 48 61 60 75
REMARK Flexibility Score: inf
ROOT
ATOM      1  C   UNL     1      24.790  32.014  17.469  1.00  0.00     0.176 C 
ENDROOT
BRANCH   1   2
ATOM      2  C   UNL     1      25.766  30.865  17.559  1.00  0.00     0.178 C 
ATOM      3  C   UNL     1      27.481  30.021  18.920  1.00  0.00     0.272 C 
ATOM      4  C   UNL     1      27.246  28.930  17.892  1.00  0.00     0.113 C 
ATOM      5  O   UNL     1      26.895  31.174  18.272  1.00  0.00    -0.332 OA
ATOM      6  C   UNL     1      27.402  29.474  16.457  1.00  0.00     0.145 C 
ATOM      7  C   UNL     1      26.238  30.418  16.182  1.00  0.00     0.142 C 
BRANCH   3   8
ATOM      8  O   UNL     1      28.797  30.242  19.092  1.00  0.00    -0.338 OA
BRANCH   8   9
ATOM      9  C   UNL     1      29.408  30.940  20.009  1.00  0.00     0.199 C 
BRANCH   9  10
ATOM     10  C   UNL     1      30.143  32.198  19.830  1.00  0.00     0.179 C 
ATOM     11  C   UNL     1      31.409  33.599  18.522  1.00  0.00     0.282 C 
ATOM     12  O   UNL     1      30.858  32.359  18.674  1.00  0.00    -0.341 OA
ATOM     13  C   UNL     1      31.178  34.566  19.650  1.00  0.00     0.202 C 
ATOM     14  C   UNL     1      29.728  34.580  20.098  1.00  0.00     0.179 C 
ATOM     15  C   UNL     1      29.025  33.298  19.716  1.00  0.00     0.177 C 
BRANCH  11  16
ATOM     16  O   UNL     1      31.006  34.250  17.357  1.00  0.00    -0.341 OA
BRANCH  16  17
ATOM     17  C   UNL     1      31.649  33.784  16.212  1.00  0.00     0.184 C 
ATOM     18  C   UNL     1      31.963  34.946  15.335  1.00  0.00     0.178 C 
ATOM     19  O   UNL     1      31.252  34.953  14.123  1.00  0.00    -0.341 OA
ATOM     20  C   UNL     1      29.900  34.815  14.500  1.00  0.00     0.281 C 
ATOM     21  C   UNL     1      30.755  32.756  15.584  1.00  0.00     0.180 C 
ATOM     22  C   UNL     1      29.687  33.333  14.708  1.00  0.00     0.202 C 
BRANCH  18  23
ATOM     23  C   UNL     1      33.447  35.005  15.005  1.00  0.00     0.191 C 
BRANCH  23  24
ATOM     24  O   UNL     1      33.751  34.104  13.988  1.00  0.00    -0.394 OA
ATOM     25  H   UNL     1      33.597  34.550  13.122  1.00  0.00     0.210 HD
ENDBRANCH  23  24
ENDBRANCH  18  23
BRANCH  20  26
ATOM     26  O   UNL     1      29.048  35.339  13.557  1.00  0.00    -0.350 OA
BRANCH  26  27
ATOM     27  C   UNL     1      29.136  36.728  13.579  1.00  0.00     0.169 C 
BRANCH  27  28
ATOM     28  C   UNL     1      29.385  37.237  12.166  1.00  0.00     0.119 C 
BRANCH  28  29
ATOM     29  N   UNL     1      30.740  37.750  12.149  1.00  0.00    -0.092 NA
ATOM     30  N   UNL     1      31.035  38.599  11.309  1.00  0.00     0.001 N 
ATOM     31  N   UNL     1      31.567  39.513  10.644  1.00  0.00    -0.003 NA
ENDBRANCH  28  29
ENDBRANCH  27  28
ENDBRANCH  26  27
ENDBRANCH  20  26
BRANCH  21  32
ATOM     32  O   UNL     1      31.559  31.924  14.811  1.00  0.00    -0.387 OA
ATOM     33  H   UNL     1      32.059  32.477  14.180  1.00  0.00     0.211 HD
ENDBRANCH  21  32
BRANCH  22  34
ATOM     34  O   UNL     1      28.418  33.077  15.231  1.00  0.00    -0.385 OA
ATOM     35  H   UNL     1      28.087  32.192  14.913  1.00  0.00     0.211 HD
ENDBRANCH  22  34
ENDBRANCH  16  17
ENDBRANCH  11  16
BRANCH  13  36
ATOM     36  O   UNL     1      32.055  34.379  20.728  1.00  0.00    -0.385 OA
ATOM     37  H   UNL     1      31.564  34.433  21.563  1.00  0.00     0.211 HD
ENDBRANCH  13  36
BRANCH  14  38
ATOM     38  O   UNL     1      29.090  35.707  19.632  1.00  0.00    -0.387 OA
ATOM     39  H   UNL     1      28.195  35.494  19.299  1.00  0.00     0.211 HD
ENDBRANCH  14  38
BRANCH  15  40
ATOM     40  O   UNL     1      28.630  33.279  18.399  1.00  0.00    -0.387 OA
ATOM     41  H   UNL     1      28.772  32.423  17.933  1.00  0.00     0.211 HD
ENDBRANCH  15  40
ENDBRANCH   9  10
ENDBRANCH   8   9
ENDBRANCH   3   8
BRANCH   3  42
ATOM     42  C   UNL     1      26.726  29.843  20.163  1.00  0.00     0.364 C 
ATOM     43  O   UNL     1      26.627  28.704  20.683  1.00  0.00    -0.246 OA
BRANCH  42  44
ATOM     44  O   UNL     1      26.113  30.899  20.788  1.00  0.00    -0.477 OA
ATOM     45  H   UNL     1      26.551  31.758  21.051  1.00  0.00     0.296 HD
ENDBRANCH  42  44
ENDBRANCH   3  42
BRANCH   6  46
ATOM     46  O   UNL     1      28.571  30.203  16.426  1.00  0.00    -0.391 OA
ATOM     47  H   UNL     1      28.743  30.549  17.350  1.00  0.00     0.211 HD
ENDBRANCH   6  46
BRANCH   7  48
ATOM     48  N   UNL     1      25.213  29.756  15.445  1.00  0.00    -0.348 N 
ATOM     49  C   UNL     1      24.695  30.360  14.269  1.00  0.00     0.217 C 
ATOM     50  H   UNL     1      24.816  28.834  15.731  1.00  0.00     0.163 HD
ATOM     51  C   UNL     1      23.628  29.743  13.445  1.00  0.00     0.114 C 
ATOM     52  O   UNL     1      25.134  31.478  13.868  1.00  0.00    -0.275 OA
ENDBRANCH   7  48
ENDBRANCH   1   2
BRANCH   1  53
ATOM     53  O   UNL     1      24.295  32.263  18.750  1.00  0.00    -0.388 OA
ATOM     54  H   UNL     1      23.319  32.202  18.775  1.00  0.00     0.211 HD
ENDBRANCH   1  53
BRANCH   1  55
ATOM     55  C   UNL     1      25.367  33.282  16.925  1.00  0.00     0.165 C 
BRANCH  55  56
ATOM     56  O   UNL     1      25.713  34.112  17.997  1.00  0.00    -0.388 OA
ATOM     57  H   UNL     1      25.785  33.558  18.811  1.00  0.00     0.211 HD
ENDBRANCH  55  56
BRANCH  55  58
ATOM     58  C   UNL     1      24.240  33.983  16.158  1.00  0.00     0.154 C 
BRANCH  58  59
ATOM     59  N   UNL     1      24.618  34.214  14.791  1.00  0.00    -0.319 N 
ATOM     60  C   UNL     1      25.604  35.148  14.373  1.00  0.00     0.407 C 
ATOM     61  H   UNL     1      24.154  33.666  14.005  1.00  0.00     0.167 HD
ATOM     62  O   UNL     1      26.186  35.819  15.264  1.00  0.00    -0.225 OA
BRANCH  60  63
ATOM     63  O   UNL     1      25.934  35.335  13.043  1.00  0.00    -0.443 OA
BRANCH  63  64
ATOM     64  C   UNL     1      25.459  36.475  12.371  1.00  0.00     0.294 C 
BRANCH  64  65
ATOM     65  C   UNL     1      25.438  36.255  10.913  1.00  0.00     0.120 A 
ATOM     66  C   UNL     1      26.080  37.094  10.012  1.00  0.00     0.138 A 
ATOM     67  N   UNL     1      24.845  35.256  10.215  1.00  0.00    -0.132 NA
ATOM     68  N   UNL     1      25.848  36.560   8.788  1.00  0.00    -0.252 N 
ATOM     69  N   UNL     1      25.112  35.469   8.943  1.00  0.00    -0.067 NA
BRANCH  68  70
ATOM     70  C   UNL     1      26.325  37.078   7.524  1.00  0.00     0.158 C 
BRANCH  70  71
ATOM     71  C   UNL     1      27.814  37.343   7.511  1.00  0.00     0.146 C 
BRANCH  71  72
ATOM     72  C   UNL     1      28.378  36.731   6.301  1.00  0.00     0.305 C 
ATOM     73  O   UNL     1      28.065  35.559   5.996  1.00  0.00    -0.252 OA
BRANCH  72  74
ATOM     74  O   UNL     1      29.263  37.419   5.473  1.00  0.00    -0.481 OA
ATOM     75  H   UNL     1      29.112  38.374   5.165  1.00  0.00     0.296 HD
ENDBRANCH  72  74
ENDBRANCH  71  72
ENDBRANCH  70  71
ENDBRANCH  68  70
ENDBRANCH  64  65
ENDBRANCH  63  64
ENDBRANCH  60  63
ENDBRANCH  58  59
ENDBRANCH  55  58
ENDBRANCH   1  55
TORSDOF 33
BEGIN_RES LYS A 131
REMARK  4 active torsions:
REMARK  status: ('A' for Active; 'I' for Inactive)
REMARK    1  A    between atoms: CA   and  CB  
REMARK    2  A    between atoms: CB   and  CG  
REMARK    3  A    between atoms: CG   and  CD  
REMARK    4  A    between atoms: CD   and  CE  
ROOT
ATOM      1  CA  LYS A 131      29.867  25.555  16.977  1.00 20.52     0.186 C 
ENDROOT
BRANCH   1   2
ATOM      2  CB  LYS A 131      28.345  25.722  17.026  1.00 20.94     0.034 C 
BRANCH   2   3
ATOM      3  CG  LYS A 131      27.602  24.397  16.942  1.00 22.96     0.005 C 
BRANCH   3   4
ATOM      4  CD  LYS A 131      26.495  24.304  17.954  1.00 24.33     0.041 C 
BRANCH   4   5
ATOM      5  CE  LYS A 131      25.289  23.610  17.327  1.00 26.91     0.338 C 
ATOM      6  NZ  LYS A 131      24.135  24.537  17.260  1.00 27.40     0.618 N 
ENDBRANCH   4   5
ENDBRANCH   3   4
ENDBRANCH   2   3
ENDBRANCH   1   2
END_RES LYS A 131
BEGIN_RES LYS A 135
REMARK  4 active torsions:
REMARK  status: ('A' for Active; 'I' for Inactive)
REMARK    5  A    between atoms: CA   and  CB  
REMARK    6  A    between atoms: CB   and  CG  
REMARK    7  A    between atoms: CG   and  CD  
REMARK    8  A    between atoms: CD   and  CE  
ROOT
ATOM      7  CA  LYS A 135      33.193  34.663   9.290  1.00 25.02     0.186 C 
ENDROOT
BRANCH   7   8
ATOM      8  CB  LYS A 135      32.060  35.360  10.034  1.00 26.63     0.034 C 
BRANCH   8   9
ATOM      9  CG  LYS A 135      30.798  35.493   9.222  1.00 29.45     0.005 C 
BRANCH   9  10
ATOM     10  CD  LYS A 135      30.222  34.124   8.896  1.00 32.00     0.041 C 
BRANCH  10  11
ATOM     11  CE  LYS A 135      28.713  34.129   9.053  1.00 34.25     0.338 C 
ATOM     12  NZ  LYS A 135      28.323  34.244  10.486  1.00 35.99     0.618 N 
ENDBRANCH  10  11
ENDBRANCH   9  10
ENDBRANCH   8   9
ENDBRANCH   7   8
END_RES LYS A 135
