REMARK VINA RESULT:    -7.284      0.000      0.000
REMARK INTER + INTRA:         -21.506
REMARK INTER:                 -12.836
REMARK INTRA:                  -8.670
REMARK UNBOUND:                -1.022
REMARK SMILES CC(=O)N[C@@H]1[C@@H](O)C[C@](OC[C@H]2O[C@@H](O[C@H]3[C@H](O)[C@@H](O)[C@H](OCCN=[N+]=[N-])O[C@@H]3CO)[C@H](O)[C@@H](O)[C@H]2O)(C(=O)O)O[C@H]1C(O)[C@H](O)CNC(=O)OCc1cn(C2CC(O)C=C[C@@H](O)C2)nn1
REMARK SMILES IDX 43 1 42 2 9 3 8 4 41 5 6 6 5 7 10 8 11 9 12 10 14 11 13 12
REMARK SMILES IDX 32 13 34 14 36 15 15 16 16 17 29 18 28 19 21 20 17 21 19 22
REMARK SMILES IDX 30 23 31 24 22 26 23 27 24 28 25 29 26 30 27 31 18 32 20 34
REMARK SMILES IDX 33 36 35 38 37 40 38 42 39 43 40 44 7 46 4 48 2 49 1 51 3 52
REMARK SMILES IDX 44 53 45 55 46 56 47 58 48 59 49 60 50 62 51 63 52 64 53 65
REMARK SMILES IDX 54 66 66 67 55 68 65 69 56 70 57 71 58 72 59 74 64 76 62 77
REMARK SMILES IDX 61 78 60 79 63 81
REMARK H PARENT 31 25 18 33 20 35 33 37 35 39 37 41 40 45 7 47 4 50 44 54
REMARK H PARENT 46 57 48 61 59 75 63 82
REMARK Flexibility Score: 90.00
ROOT
ATOM      1  C   UNL     1      23.746  37.477   9.371  1.00  0.00     0.176 C 
ENDROOT
BRANCH   1   2
ATOM      2  C   UNL     1      25.102  38.155   9.465  1.00  0.00     0.178 C 
ATOM      3  C   UNL     1      27.257  37.774   8.601  1.00  0.00     0.272 C 
ATOM      4  C   UNL     1      27.869  38.659   9.625  1.00  0.00     0.113 C 
ATOM      5  O   UNL     1      26.019  37.292   8.799  1.00  0.00    -0.332 OA
ATOM      6  C   UNL     1      26.904  39.310  10.547  1.00  0.00     0.145 C 
ATOM      7  C   UNL     1      25.679  38.374  10.795  1.00  0.00     0.142 C 
BRANCH   3   8
ATOM      8  O   UNL     1      28.176  36.745   8.314  1.00  0.00    -0.338 OA
BRANCH   8   9
ATOM      9  C   UNL     1      29.305  36.751   9.080  1.00  0.00     0.199 C 
BRANCH   9  10
ATOM     10  C   UNL     1      29.370  35.508   9.968  1.00  0.00     0.179 C 
ATOM     11  C   UNL     1      28.186  34.880  11.849  1.00  0.00     0.282 C 
ATOM     12  O   UNL     1      28.950  35.859  11.212  1.00  0.00    -0.341 OA
ATOM     13  C   UNL     1      26.922  34.785  11.015  1.00  0.00     0.202 C 
ATOM     14  C   UNL     1      27.313  34.065   9.744  1.00  0.00     0.179 C 
ATOM     15  C   UNL     1      28.725  34.326   9.330  1.00  0.00     0.177 C 
BRANCH  11  16
ATOM     16  O   UNL     1      27.967  35.260  13.151  1.00  0.00    -0.341 OA
BRANCH  16  17
ATOM     17  C   UNL     1      29.166  35.198  13.866  1.00  0.00     0.184 C 
ATOM     18  C   UNL     1      29.437  33.782  14.308  1.00  0.00     0.178 C 
ATOM     19  O   UNL     1      28.678  33.357  15.369  1.00  0.00    -0.341 OA
ATOM     20  C   UNL     1      27.896  34.355  15.946  1.00  0.00     0.281 C 
ATOM     21  C   UNL     1      29.215  36.179  15.006  1.00  0.00     0.180 C 
ATOM     22  C   UNL     1      28.769  35.554  16.300  1.00  0.00     0.202 C 
BRANCH  18  23
ATOM     23  C   UNL     1      30.916  33.588  14.616  1.00  0.00     0.191 C 
BRANCH  23  24
ATOM     24  O   UNL     1      31.258  32.252  14.712  1.00  0.00    -0.394 OA
ATOM     25  H   UNL     1      32.217  32.102  14.710  1.00  0.00     0.210 HD
ENDBRANCH  23  24
ENDBRANCH  18  23
BRANCH  20  26
ATOM     26  O   UNL     1      27.352  33.799  17.099  1.00  0.00    -0.350 OA
BRANCH  26  27
ATOM     27  C   UNL     1      28.308  32.981  17.690  1.00  0.00     0.169 C 
BRANCH  27  28
ATOM     28  C   UNL     1      27.661  31.846  18.465  1.00  0.00     0.119 C 
BRANCH  28  29
ATOM     29  N   UNL     1      27.251  30.781  17.573  1.00  0.00    -0.092 NA
ATOM     30  N   UNL     1      28.042  30.390  16.700  1.00  0.00     0.001 N 
ATOM     31  N   UNL     1      28.879  30.166  15.814  1.00  0.00    -0.003 NA
ENDBRANCH  28  29
ENDBRANCH  27  28
ENDBRANCH  26  27
ENDBRANCH  20  26
BRANCH  21  32
ATOM     32  O   UNL     1      30.504  36.691  15.149  1.00  0.00    -0.387 OA
ATOM     33  H   UNL     1      30.750  37.286  14.400  1.00  0.00     0.211 HD
ENDBRANCH  21  32
BRANCH  22  34
ATOM     34  O   UNL     1      28.034  36.453  17.064  1.00  0.00    -0.385 OA
ATOM     35  H   UNL     1      27.102  36.134  17.185  1.00  0.00     0.211 HD
ENDBRANCH  22  34
ENDBRANCH  16  17
ENDBRANCH  11  16
BRANCH  13  36
ATOM     36  O   UNL     1      25.885  34.137  11.631  1.00  0.00    -0.385 OA
ATOM     37  H   UNL     1      24.997  34.408  11.348  1.00  0.00     0.211 HD
ENDBRANCH  13  36
BRANCH  14  38
ATOM     38  O   UNL     1      26.385  34.435   8.772  1.00  0.00    -0.387 OA
ATOM     39  H   UNL     1      26.808  34.469   7.870  1.00  0.00     0.211 HD
ENDBRANCH  14  38
BRANCH  15  40
ATOM     40  O   UNL     1      28.788  34.526   7.936  1.00  0.00    -0.387 OA
ATOM     41  H   UNL     1      28.237  35.258   7.624  1.00  0.00     0.211 HD
ENDBRANCH  15  40
ENDBRANCH   9  10
ENDBRANCH   8   9
ENDBRANCH   3   8
BRANCH   3  42
ATOM     42  C   UNL     1      27.192  38.598   7.333  1.00  0.00     0.364 C 
ATOM     43  O   UNL     1      26.686  38.158   6.267  1.00  0.00    -0.246 OA
BRANCH  42  44
ATOM     44  O   UNL     1      27.715  39.880   7.375  1.00  0.00    -0.477 OA
ATOM     45  H   UNL     1      28.684  40.045   7.647  1.00  0.00     0.296 HD
ENDBRANCH  42  44
ENDBRANCH   3  42
BRANCH   6  46
ATOM     46  O   UNL     1      27.487  39.648  11.743  1.00  0.00    -0.391 OA
ATOM     47  H   UNL     1      27.256  38.988  12.432  1.00  0.00     0.211 HD
ENDBRANCH   6  46
BRANCH   7  48
ATOM     48  N   UNL     1      24.914  38.904  11.856  1.00  0.00    -0.348 N 
ATOM     49  C   UNL     1      24.989  38.327  13.149  1.00  0.00     0.217 C 
ATOM     50  H   UNL     1      24.311  39.737  11.721  1.00  0.00     0.163 HD
ATOM     51  C   UNL     1      24.193  38.869  14.282  1.00  0.00     0.114 C 
ATOM     52  O   UNL     1      25.740  37.342  13.345  1.00  0.00    -0.275 OA
ENDBRANCH   7  48
ENDBRANCH   1   2
BRANCH   1  53
ATOM     53  O   UNL     1      24.061  36.178   9.969  1.00  0.00    -0.388 OA
ATOM     54  H   UNL     1      24.997  35.941   9.682  1.00  0.00     0.211 HD
ENDBRANCH   1  53
BRANCH   1  55
ATOM     55  C   UNL     1      23.354  37.071   7.979  1.00  0.00     0.165 C 
BRANCH  55  56
ATOM     56  O   UNL     1      23.697  38.017   7.044  1.00  0.00    -0.388 OA
ATOM     57  H   UNL     1      22.955  38.293   6.462  1.00  0.00     0.211 HD
ENDBRANCH  55  56
BRANCH  55  58
ATOM     58  C   UNL     1      21.844  36.886   7.875  1.00  0.00     0.154 C 
BRANCH  58  59
ATOM     59  N   UNL     1      21.289  36.035   8.878  1.00  0.00    -0.319 N 
ATOM     60  C   UNL     1      20.078  35.312   8.696  1.00  0.00     0.407 C 
ATOM     61  H   UNL     1      21.789  35.926   9.811  1.00  0.00     0.167 HD
ATOM     62  O   UNL     1      19.491  35.453   7.585  1.00  0.00    -0.225 OA
BRANCH  60  63
ATOM     63  O   UNL     1      19.591  34.504   9.699  1.00  0.00    -0.443 OA
BRANCH  63  64
ATOM     64  C   UNL     1      19.625  34.934  11.057  1.00  0.00     0.294 C 
BRANCH  64  65
ATOM     65  C   UNL     1      20.919  34.508  11.635  1.00  0.00     0.120 A 
ATOM     66  C   UNL     1      21.234  33.313  12.229  1.00  0.00     0.138 A 
ATOM     67  N   UNL     1      22.035  35.256  11.677  1.00  0.00    -0.132 NA
ATOM     68  N   UNL     1      22.533  33.379  12.615  1.00  0.00    -0.249 N 
ATOM     69  N   UNL     1      22.987  34.565  12.267  1.00  0.00    -0.067 NA
BRANCH  68  70
ATOM     70  C   UNL     1      23.296  32.326  13.299  1.00  0.00     0.115 C 
BRANCH  70  71
ATOM     71  C   UNL     1      23.326  32.633  14.759  1.00  0.00     0.063 C 
BRANCH  71  72
ATOM     72  C   UNL     1      24.587  32.014  15.371  1.00  0.00     0.139 CG0
ATOM     73  G   UNL     1      24.410  30.556  15.462  1.00  0.00     0.000 G0
BRANCH  72  74
ATOM     74  O   UNL     1      24.831  32.575  16.622  1.00  0.00    -0.389 OA
ATOM     75  H   UNL     1      25.601  32.086  17.031  1.00  0.00     0.211 HD
ENDBRANCH  72  74
ENDBRANCH  71  72
ENDBRANCH  70  71
BRANCH  70  76
ATOM     76  C   UNL     1      22.635  31.010  13.031  1.00  0.00     0.063 C 
BRANCH  76  77
ATOM     77  C   UNL     1      23.731  29.942  13.127  1.00  0.00     0.139 C 
BRANCH  77  78
ATOM     78  C   UNL     1      24.021  29.654  14.557  1.00  0.00     0.002 C 
ATOM     79  C   UNL     1      24.389  30.539  15.473  1.00  0.00     0.002 CG0
ATOM     80  G   UNL     1      24.603  31.990  15.347  1.00  0.00     0.000 G0
ENDBRANCH  77  78
BRANCH  77  81
ATOM     81  O   UNL     1      23.385  28.791  12.437  1.00  0.00    -0.389 OA
ATOM     82  H   UNL     1      24.034  28.079  12.700  1.00  0.00     0.211 HD
ENDBRANCH  77  81
ENDBRANCH  76  77
ENDBRANCH  70  76
ENDBRANCH  68  70
ENDBRANCH  64  65
ENDBRANCH  63  64
ENDBRANCH  60  63
ENDBRANCH  58  59
ENDBRANCH  55  58
ENDBRANCH   1  55
TORSDOF 32
BEGIN_RES LYS A 131
REMARK  4 active torsions:
REMARK  status: ('A' for Active; 'I' for Inactive)
REMARK    1  A    between atoms: CA   and  CB  
REMARK    2  A    between atoms: CB   and  CG  
REMARK    3  A    between atoms: CG   and  CD  
REMARK    4  A    between atoms: CD   and  CE  
ROOT
ATOM      1  CA  LYS A 131      29.867  25.555  16.977  1.00 20.52     0.186 C 
ENDROOT
BRANCH   1   2
ATOM      2  CB  LYS A 131      28.345  25.722  17.026  1.00 20.94     0.034 C 
BRANCH   2   3
ATOM      3  CG  LYS A 131      27.602  24.398  16.937  1.00 22.96     0.005 C 
BRANCH   3   4
ATOM      4  CD  LYS A 131      26.181  24.512  17.415  1.00 24.33     0.041 C 
BRANCH   4   5
ATOM      5  CE  LYS A 131      26.161  25.138  18.806  1.00 26.91     0.338 C 
ATOM      6  NZ  LYS A 131      24.919  24.766  19.524  1.00 27.40     0.618 N 
ENDBRANCH   4   5
ENDBRANCH   3   4
ENDBRANCH   2   3
ENDBRANCH   1   2
END_RES LYS A 131
BEGIN_RES LYS A 135
REMARK  4 active torsions:
REMARK  status: ('A' for Active; 'I' for Inactive)
REMARK    5  A    between atoms: CA   and  CB  
REMARK    6  A    between atoms: CB   and  CG  
REMARK    7  A    between atoms: CG   and  CD  
REMARK    8  A    between atoms: CD   and  CE  
ROOT
ATOM      7  CA  LYS A 135      33.193  34.663   9.290  1.00 25.02     0.186 C 
ENDROOT
BRANCH   7   8
ATOM      8  CB  LYS A 135      32.060  35.360  10.034  1.00 26.63     0.034 C 
BRANCH   8   9
ATOM      9  CG  LYS A 135      32.473  35.923  11.369  1.00 29.45     0.005 C 
BRANCH   9  10
ATOM     10  CD  LYS A 135      32.520  37.442  11.320  1.00 32.00     0.041 C 
BRANCH  10  11
ATOM     11  CE  LYS A 135      31.376  38.037  12.119  1.00 34.25     0.338 C 
ATOM     12  NZ  LYS A 135      30.803  39.227  11.432  1.00 35.99     0.618 N 
ENDBRANCH  10  11
ENDBRANCH   9  10
ENDBRANCH   8   9
ENDBRANCH   7   8
END_RES LYS A 135
