REMARK VINA RESULT:    -4.552      5.718     11.129
REMARK INTER + INTRA:         -22.671
REMARK INTER:                 -10.905
REMARK INTRA:                 -11.765
REMARK UNBOUND:               -11.068
REMARK SMILES CC(=O)N[C@@H]1[C@@H](O)C[C@](OC[C@H]2O[C@@H](O[C@H]3[C@H](O)[C@@H](O)[C@H](OCCN=[N+]=[N-])O[C@@H]3CO)[C@H](O)[C@@H](O)[C@H]2O)(C(=O)O)O[C@H]1C(O)[C@H](O)CNC(=O)OCc1cn(Cc2cc(Br)cc(Br)c2O)nn1
REMARK SMILES IDX 9 1 8 2 6 3 5 4 42 5 41 6 10 7 11 8 12 9 14 10 13 11 32 12
REMARK SMILES IDX 34 13 36 14 15 15 16 16 29 17 28 18 21 19 17 20 19 21 30 22
REMARK SMILES IDX 31 23 22 25 23 26 24 27 25 28 26 29 27 30 18 31 20 33 33 35
REMARK SMILES IDX 35 37 37 39 38 41 39 42 40 43 7 45 43 47 44 48 45 50 46 51
REMARK SMILES IDX 47 53 48 54 49 55 50 57 51 58 52 59 53 60 54 61 67 62 55 63
REMARK SMILES IDX 66 64 56 65 57 66 58 67 64 68 59 69 62 70 60 71 61 72 63 73
REMARK SMILES IDX 65 74 4 76 2 77 1 79 3 80
REMARK H PARENT 31 24 18 32 20 34 33 36 35 38 37 40 40 44 7 46 44 49 46 52
REMARK H PARENT 48 56 65 75 4 78
REMARK Flexibility Score: inf
ROOT
ATOM      1  C   UNL     1      30.521  33.052  20.525  1.00  0.00     0.272 C 
ATOM      2  C   UNL     1      29.179  33.874  20.832  1.00  0.00     0.113 C 
ATOM      3  C   UNL     1      29.067  35.019  19.911  1.00  0.00     0.145 C 
ATOM      4  C   UNL     1      29.135  34.550  18.481  1.00  0.00     0.142 C 
ATOM      5  C   UNL     1      29.758  33.202  18.277  1.00  0.00     0.178 C 
ATOM      6  O   UNL     1      30.431  32.607  19.254  1.00  0.00    -0.332 OA
ENDROOT
BRANCH   1   7
ATOM      7  O   UNL     1      30.368  32.038  21.409  1.00  0.00    -0.338 OA
BRANCH   7   8
ATOM      8  C   UNL     1      30.379  30.748  21.134  1.00  0.00     0.199 C 
BRANCH   8   9
ATOM      9  C   UNL     1      29.829  29.739  22.080  1.00  0.00     0.179 C 
ATOM     10  C   UNL     1      28.223  28.812  20.670  1.00  0.00     0.282 C 
ATOM     11  O   UNL     1      28.537  29.418  21.843  1.00  0.00    -0.341 OA
ATOM     12  C   UNL     1      29.196  27.742  20.294  1.00  0.00     0.202 C 
ATOM     13  C   UNL     1      30.024  27.332  21.481  1.00  0.00     0.179 C 
ATOM     14  C   UNL     1      30.708  28.488  22.150  1.00  0.00     0.177 C 
BRANCH  10  15
ATOM     15  O   UNL     1      28.007  29.756  19.654  1.00  0.00    -0.341 OA
BRANCH  15  16
ATOM     16  C   UNL     1      26.715  29.791  19.180  1.00  0.00     0.184 C 
ATOM     17  C   UNL     1      25.708  29.725  20.305  1.00  0.00     0.178 C 
ATOM     18  O   UNL     1      24.423  29.501  19.901  1.00  0.00    -0.341 OA
ATOM     19  C   UNL     1      24.166  29.667  18.552  1.00  0.00     0.281 C 
ATOM     20  C   UNL     1      26.402  28.558  18.325  1.00  0.00     0.180 C 
ATOM     21  C   UNL     1      25.070  28.845  17.674  1.00  0.00     0.202 C 
BRANCH  17  22
ATOM     22  C   UNL     1      25.769  30.934  21.214  1.00  0.00     0.191 C 
BRANCH  22  23
ATOM     23  O   UNL     1      26.149  32.066  20.526  1.00  0.00    -0.394 OA
ATOM     24  H   UNL     1      26.658  32.647  21.139  1.00  0.00     0.210 HD
ENDBRANCH  22  23
ENDBRANCH  17  22
BRANCH  19  25
ATOM     25  O   UNL     1      24.210  31.018  18.251  1.00  0.00    -0.350 OA
BRANCH  25  26
ATOM     26  C   UNL     1      23.805  31.254  16.965  1.00  0.00     0.169 C 
BRANCH  26  27
ATOM     27  C   UNL     1      24.627  32.225  16.188  1.00  0.00     0.119 C 
BRANCH  27  28
ATOM     28  N   UNL     1      25.426  31.592  15.158  1.00  0.00    -0.092 NA
ATOM     29  N   UNL     1      24.946  30.886  14.293  1.00  0.00     0.001 N 
ATOM     30  N   UNL     1      24.594  30.378  13.231  1.00  0.00    -0.003 NA
ENDBRANCH  27  28
ENDBRANCH  26  27
ENDBRANCH  25  26
ENDBRANCH  19  25
BRANCH  20  31
ATOM     31  O   UNL     1      27.388  28.246  17.429  1.00  0.00    -0.387 OA
ATOM     32  H   UNL     1      27.621  29.109  16.958  1.00  0.00     0.211 HD
ENDBRANCH  20  31
BRANCH  21  33
ATOM     33  O   UNL     1      24.416  27.674  17.307  1.00  0.00    -0.385 OA
ATOM     34  H   UNL     1      25.014  27.085  16.816  1.00  0.00     0.211 HD
ENDBRANCH  21  33
ENDBRANCH  15  16
ENDBRANCH  10  15
BRANCH  12  35
ATOM     35  O   UNL     1      28.449  26.636  19.821  1.00  0.00    -0.385 OA
ATOM     36  H   UNL     1      27.741  26.504  20.495  1.00  0.00     0.211 HD
ENDBRANCH  12  35
BRANCH  13  37
ATOM     37  O   UNL     1      30.936  26.327  21.160  1.00  0.00    -0.387 OA
ATOM     38  H   UNL     1      31.831  26.702  21.355  1.00  0.00     0.211 HD
ENDBRANCH  13  37
BRANCH  14  39
ATOM     39  O   UNL     1      31.915  28.742  21.525  1.00  0.00    -0.387 OA
ATOM     40  H   UNL     1      31.800  28.775  20.537  1.00  0.00     0.211 HD
ENDBRANCH  14  39
ENDBRANCH   8   9
ENDBRANCH   7   8
ENDBRANCH   1   7
BRANCH   1  41
ATOM     41  C   UNL     1      31.605  34.000  20.753  1.00  0.00     0.364 C 
ATOM     42  O   UNL     1      31.727  34.611  21.881  1.00  0.00    -0.246 OA
BRANCH  41  43
ATOM     43  O   UNL     1      32.570  34.321  19.834  1.00  0.00    -0.477 OA
ATOM     44  H   UNL     1      33.497  33.927  19.893  1.00  0.00     0.296 HD
ENDBRANCH  41  43
ENDBRANCH   1  41
BRANCH   3  45
ATOM     45  O   UNL     1      27.860  35.693  20.173  1.00  0.00    -0.391 OA
ATOM     46  H   UNL     1      27.928  36.177  21.028  1.00  0.00     0.211 HD
ENDBRANCH   3  45
BRANCH   5  47
ATOM     47  C   UNL     1      28.728  32.321  17.596  1.00  0.00     0.176 C 
BRANCH  47  48
ATOM     48  O   UNL     1      27.867  33.130  16.813  1.00  0.00    -0.388 OA
ATOM     49  H   UNL     1      26.990  32.710  16.714  1.00  0.00     0.211 HD
ENDBRANCH  47  48
BRANCH  47  50
ATOM     50  C   UNL     1      29.258  31.181  16.829  1.00  0.00     0.165 C 
BRANCH  50  51
ATOM     51  O   UNL     1      30.171  30.438  17.544  1.00  0.00    -0.388 OA
ATOM     52  H   UNL     1      29.931  30.325  18.498  1.00  0.00     0.211 HD
ENDBRANCH  50  51
BRANCH  50  53
ATOM     53  C   UNL     1      29.755  31.434  15.447  1.00  0.00     0.154 C 
BRANCH  53  54
ATOM     54  N   UNL     1      31.084  31.926  15.323  1.00  0.00    -0.319 N 
ATOM     55  C   UNL     1      31.250  33.324  15.038  1.00  0.00     0.407 C 
ATOM     56  H   UNL     1      31.934  31.346  15.402  1.00  0.00     0.167 HD
ATOM     57  O   UNL     1      30.209  34.055  14.911  1.00  0.00    -0.225 OA
BRANCH  55  58
ATOM     58  O   UNL     1      32.503  33.852  14.909  1.00  0.00    -0.443 OA
BRANCH  58  59
ATOM     59  C   UNL     1      32.745  35.233  14.836  1.00  0.00     0.294 C 
BRANCH  59  60
ATOM     60  C   UNL     1      33.258  35.741  16.128  1.00  0.00     0.120 A 
ATOM     61  C   UNL     1      34.561  36.042  16.505  1.00  0.00     0.138 A 
ATOM     62  N   UNL     1      32.527  36.026  17.218  1.00  0.00    -0.132 NA
ATOM     63  N   UNL     1      34.587  36.483  17.771  1.00  0.00    -0.248 N 
ATOM     64  N   UNL     1      33.316  36.462  18.180  1.00  0.00    -0.067 NA
BRANCH  63  65
ATOM     65  C   UNL     1      35.722  36.913  18.595  1.00  0.00     0.185 C 
BRANCH  65  66
ATOM     66  C   UNL     1      36.420  35.693  19.061  1.00  0.00     0.018 A 
ATOM     67  C   UNL     1      37.495  35.222  18.334  1.00  0.00     0.025 A 
ATOM     68  C   UNL     1      36.031  35.005  20.205  1.00  0.00     0.134 A 
ATOM     69  C   UNL     1      38.195  34.087  18.713  1.00  0.00     0.019 A 
ATOM     70  C   UNL     1      36.711  33.867  20.610  1.00  0.00     0.061 A 
ATOM     71  Br  UNL     1      39.672  33.473  17.679  1.00  0.00    -0.051 Br
ATOM     72  C   UNL     1      37.792  33.425  19.848  1.00  0.00     0.035 A 
ATOM     73  Br  UNL     1      36.165  32.951  22.168  1.00  0.00    -0.047 Br
BRANCH  68  74
ATOM     74  O   UNL     1      34.949  35.527  20.886  1.00  0.00    -0.506 OA
ATOM     75  H   UNL     1      34.206  35.968  20.370  1.00  0.00     0.293 HD
ENDBRANCH  68  74
ENDBRANCH  65  66
ENDBRANCH  63  65
ENDBRANCH  59  60
ENDBRANCH  58  59
ENDBRANCH  55  58
ENDBRANCH  53  54
ENDBRANCH  50  53
ENDBRANCH  47  50
ENDBRANCH   5  47
BRANCH   4  76
ATOM     76  N   UNL     1      29.693  35.595  17.650  1.00  0.00    -0.348 N 
ATOM     77  C   UNL     1      28.814  36.439  16.923  1.00  0.00     0.217 C 
ATOM     78  H   UNL     1      30.722  35.761  17.554  1.00  0.00     0.163 HD
ATOM     79  C   UNL     1      29.392  37.520  16.064  1.00  0.00     0.114 C 
ATOM     80  O   UNL     1      27.552  36.270  17.009  1.00  0.00    -0.275 OA
ENDBRANCH   4  76
TORSDOF 32
BEGIN_RES LYS A 131
REMARK  4 active torsions:
REMARK  status: ('A' for Active; 'I' for Inactive)
REMARK    1  A    between atoms: CA   and  CB  
REMARK    2  A    between atoms: CB   and  CG  
REMARK    3  A    between atoms: CG   and  CD  
REMARK    4  A    between atoms: CD   and  CE  
ROOT
ATOM      1  CA  LYS A 131      29.867  25.555  16.977  1.00 20.52     0.186 C 
ENDROOT
BRANCH   1   2
ATOM      2  CB  LYS A 131      28.345  25.722  17.026  1.00 20.94     0.034 C 
BRANCH   2   3
ATOM      3  CG  LYS A 131      27.602  24.399  16.927  1.00 22.96     0.005 C 
BRANCH   3   4
ATOM      4  CD  LYS A 131      26.526  24.274  17.969  1.00 24.33     0.041 C 
BRANCH   4   5
ATOM      5  CE  LYS A 131      25.162  24.219  17.289  1.00 26.91     0.338 C 
ATOM      6  NZ  LYS A 131      24.608  22.845  17.348  1.00 27.40     0.618 N 
ENDBRANCH   4   5
ENDBRANCH   3   4
ENDBRANCH   2   3
ENDBRANCH   1   2
END_RES LYS A 131
BEGIN_RES LYS A 135
REMARK  4 active torsions:
REMARK  status: ('A' for Active; 'I' for Inactive)
REMARK    5  A    between atoms: CA   and  CB  
REMARK    6  A    between atoms: CB   and  CG  
REMARK    7  A    between atoms: CG   and  CD  
REMARK    8  A    between atoms: CD   and  CE  
ROOT
ATOM      7  CA  LYS A 135      33.193  34.663   9.290  1.00 25.02     0.186 C 
ENDROOT
BRANCH   7   8
ATOM      8  CB  LYS A 135      32.060  35.360  10.034  1.00 26.63     0.034 C 
BRANCH   8   9
ATOM      9  CG  LYS A 135      30.815  35.540   9.204  1.00 29.45     0.005 C 
BRANCH   9  10
ATOM     10  CD  LYS A 135      30.058  34.227   9.080  1.00 32.00     0.041 C 
BRANCH  10  11
ATOM     11  CE  LYS A 135      28.718  34.447   8.405  1.00 34.25     0.338 C 
ATOM     12  NZ  LYS A 135      28.860  35.303   7.194  1.00 35.99     0.618 N 
ENDBRANCH  10  11
ENDBRANCH   9  10
ENDBRANCH   8   9
ENDBRANCH   7   8
END_RES LYS A 135
