REMARK VINA RESULT:    -7.583      3.893      8.838
REMARK INTER + INTRA:         -21.644
REMARK INTER:                  -9.129
REMARK INTRA:                 -12.515
REMARK UNBOUND:                -1.206
REMARK SMILES CC(=O)N[C@@H]1[C@@H](O)C[C@](OC[C@H]2O[C@@H](O[C@H]3[C@H](O)[C@@H](O)[C@H](OCCN=[N+]=[N-])O[C@@H]3CO)[C@H](O)[C@@H](O)[C@H]2O)(C(=O)O)O[C@H]1C(O)[C@H](O)CNC(=O)OCc1cn(C2CCc3ccccc3NC2=O)nn1
REMARK SMILES IDX 43 1 42 2 9 3 8 4 41 5 6 6 5 7 10 8 11 9 12 10 14 11 13 12
REMARK SMILES IDX 32 13 34 14 36 15 15 16 16 17 29 18 28 19 21 20 17 21 19 22
REMARK SMILES IDX 30 23 31 24 22 26 23 27 24 28 25 29 26 30 27 31 18 32 20 34
REMARK SMILES IDX 33 36 35 38 37 40 38 42 39 43 40 44 7 46 4 48 2 49 1 51 3 52
REMARK SMILES IDX 44 53 45 55 46 56 47 58 48 59 49 60 50 62 51 63 52 64 53 65
REMARK SMILES IDX 54 66 69 67 55 68 68 69 56 70 57 71 66 73 65 74 67 75 64 77
REMARK SMILES IDX 59 78 63 79 60 80 62 81 61 82 58 83
REMARK H PARENT 31 25 18 33 20 35 33 37 35 39 37 41 40 45 7 47 4 50 44 54
REMARK H PARENT 46 57 48 61 65 76
REMARK Flexibility Score: 90.00
ROOT
ATOM      1  C   UNL     1      28.094  37.024  15.488  1.00  0.00     0.176 C 
ENDROOT
BRANCH   1   2
ATOM      2  C   UNL     1      29.134  36.885  14.357  1.00  0.00     0.178 C 
ATOM      3  C   UNL     1      31.264  35.864  14.682  1.00  0.00     0.272 C 
ATOM      4  C   UNL     1      31.937  37.161  14.483  1.00  0.00     0.113 C 
ATOM      5  O   UNL     1      29.889  35.807  14.446  1.00  0.00    -0.332 OA
ATOM      6  C   UNL     1      31.096  38.321  14.896  1.00  0.00     0.145 C 
ATOM      7  C   UNL     1      29.782  38.224  14.133  1.00  0.00     0.142 C 
BRANCH   3   8
ATOM      8  O   UNL     1      31.438  35.285  15.890  1.00  0.00    -0.338 OA
BRANCH   8   9
ATOM      9  C   UNL     1      31.870  34.052  16.094  1.00  0.00     0.199 C 
BRANCH   9  10
ATOM     10  C   UNL     1      31.065  32.921  16.567  1.00  0.00     0.179 C 
ATOM     11  C   UNL     1      29.173  32.533  17.840  1.00  0.00     0.282 C 
ATOM     12  O   UNL     1      29.871  33.498  17.116  1.00  0.00    -0.341 OA
ATOM     13  C   UNL     1      29.524  31.126  17.559  1.00  0.00     0.202 C 
ATOM     14  C   UNL     1      29.995  30.796  16.184  1.00  0.00     0.179 C 
ATOM     15  C   UNL     1      30.487  32.030  15.470  1.00  0.00     0.177 C 
BRANCH  11  16
ATOM     16  O   UNL     1      27.795  32.817  17.737  1.00  0.00    -0.341 OA
BRANCH  16  17
ATOM     17  C   UNL     1      27.026  31.964  18.484  1.00  0.00     0.184 C 
ATOM     18  C   UNL     1      25.747  31.506  17.835  1.00  0.00     0.178 C 
ATOM     19  O   UNL     1      25.205  30.547  18.694  1.00  0.00    -0.341 OA
ATOM     20  C   UNL     1      24.599  31.132  19.796  1.00  0.00     0.281 C 
ATOM     21  C   UNL     1      26.635  32.596  19.812  1.00  0.00     0.180 C 
ATOM     22  C   UNL     1      25.196  32.460  20.154  1.00  0.00     0.202 C 
BRANCH  18  23
ATOM     23  C   UNL     1      26.000  30.808  16.513  1.00  0.00     0.191 C 
BRANCH  23  24
ATOM     24  O   UNL     1      26.589  31.660  15.582  1.00  0.00    -0.394 OA
ATOM     25  H   UNL     1      26.846  31.206  14.751  1.00  0.00     0.210 HD
ENDBRANCH  23  24
ENDBRANCH  18  23
BRANCH  20  26
ATOM     26  O   UNL     1      24.637  30.233  20.846  1.00  0.00    -0.350 OA
BRANCH  26  27
ATOM     27  C   UNL     1      25.411  29.125  20.548  1.00  0.00     0.169 C 
BRANCH  27  28
ATOM     28  C   UNL     1      26.609  28.937  21.422  1.00  0.00     0.119 C 
BRANCH  28  29
ATOM     29  N   UNL     1      27.808  28.978  20.602  1.00  0.00    -0.092 NA
ATOM     30  N   UNL     1      28.942  29.087  21.101  1.00  0.00     0.001 N 
ATOM     31  N   UNL     1      29.949  28.711  21.719  1.00  0.00    -0.003 NA
ENDBRANCH  28  29
ENDBRANCH  27  28
ENDBRANCH  26  27
ENDBRANCH  20  26
BRANCH  21  32
ATOM     32  O   UNL     1      27.480  32.170  20.848  1.00  0.00    -0.387 OA
ATOM     33  H   UNL     1      28.345  31.890  20.452  1.00  0.00     0.211 HD
ENDBRANCH  21  32
BRANCH  22  34
ATOM     34  O   UNL     1      24.405  33.490  19.594  1.00  0.00    -0.385 OA
ATOM     35  H   UNL     1      23.697  33.782  20.198  1.00  0.00     0.211 HD
ENDBRANCH  22  34
ENDBRANCH  16  17
ENDBRANCH  11  16
BRANCH  13  36
ATOM     36  O   UNL     1      30.379  30.642  18.555  1.00  0.00    -0.385 OA
ATOM     37  H   UNL     1      29.949  29.879  19.021  1.00  0.00     0.211 HD
ENDBRANCH  13  36
BRANCH  14  38
ATOM     38  O   UNL     1      29.056  30.086  15.439  1.00  0.00    -0.387 OA
ATOM     39  H   UNL     1      29.574  29.554  14.780  1.00  0.00     0.211 HD
ENDBRANCH  14  38
BRANCH  15  40
ATOM     40  O   UNL     1      29.394  32.699  14.865  1.00  0.00    -0.387 OA
ATOM     41  H   UNL     1      28.962  33.205  15.588  1.00  0.00     0.211 HD
ENDBRANCH  15  40
ENDBRANCH   9  10
ENDBRANCH   8   9
ENDBRANCH   3   8
BRANCH   3  42
ATOM     42  C   UNL     1      31.761  34.964  13.572  1.00  0.00     0.364 C 
ATOM     43  O   UNL     1      31.007  34.297  12.902  1.00  0.00    -0.246 OA
BRANCH  42  44
ATOM     44  O   UNL     1      33.131  34.893  13.303  1.00  0.00    -0.477 OA
ATOM     45  H   UNL     1      33.701  35.714  13.183  1.00  0.00     0.296 HD
ENDBRANCH  42  44
ENDBRANCH   3  42
BRANCH   6  46
ATOM     46  O   UNL     1      30.857  38.194  16.275  1.00  0.00    -0.391 OA
ATOM     47  H   UNL     1      31.509  37.633  16.725  1.00  0.00     0.211 HD
ENDBRANCH   6  46
BRANCH   7  48
ATOM     48  N   UNL     1      30.034  38.556  12.771  1.00  0.00    -0.348 N 
ATOM     49  C   UNL     1      29.018  39.144  11.967  1.00  0.00     0.217 C 
ATOM     50  H   UNL     1      30.966  38.375  12.329  1.00  0.00     0.163 HD
ATOM     51  C   UNL     1      29.232  39.507  10.540  1.00  0.00     0.114 C 
ATOM     52  O   UNL     1      27.919  39.355  12.492  1.00  0.00    -0.275 OA
ENDBRANCH   7  48
ENDBRANCH   1   2
BRANCH   1  53
ATOM     53  O   UNL     1      26.849  37.342  14.935  1.00  0.00    -0.388 OA
ATOM     54  H   UNL     1      26.908  37.945  14.162  1.00  0.00     0.211 HD
ENDBRANCH   1  53
BRANCH   1  55
ATOM     55  C   UNL     1      27.940  35.787  16.296  1.00  0.00     0.165 C 
BRANCH  55  56
ATOM     56  O   UNL     1      27.339  34.723  15.636  1.00  0.00    -0.388 OA
ATOM     57  H   UNL     1      26.587  34.404  16.203  1.00  0.00     0.211 HD
ENDBRANCH  55  56
BRANCH  55  58
ATOM     58  C   UNL     1      27.261  35.940  17.617  1.00  0.00     0.154 C 
BRANCH  58  59
ATOM     59  N   UNL     1      25.906  35.482  17.672  1.00  0.00    -0.319 N 
ATOM     60  C   UNL     1      24.775  36.317  17.517  1.00  0.00     0.407 C 
ATOM     61  H   UNL     1      25.738  34.468  17.836  1.00  0.00     0.167 HD
ATOM     62  O   UNL     1      24.903  37.549  17.317  1.00  0.00    -0.225 OA
BRANCH  60  63
ATOM     63  O   UNL     1      23.519  35.763  17.589  1.00  0.00    -0.443 OA
BRANCH  63  64
ATOM     64  C   UNL     1      22.739  35.468  16.483  1.00  0.00     0.294 C 
BRANCH  64  65
ATOM     65  C   UNL     1      23.545  34.850  15.428  1.00  0.00     0.120 A 
ATOM     66  C   UNL     1      23.736  35.331  14.156  1.00  0.00     0.139 A 
ATOM     67  N   UNL     1      24.254  33.696  15.479  1.00  0.00    -0.132 NA
ATOM     68  N   UNL     1      24.540  34.481  13.471  1.00  0.00    -0.240 N 
ATOM     69  N   UNL     1      24.832  33.504  14.304  1.00  0.00    -0.066 NA
BRANCH  68  70
ATOM     70  C   UNL     1      24.995  34.627  12.077  1.00  0.00     0.198 C 
BRANCH  70  71
ATOM     71  C   UNL     1      23.789  34.949  11.276  1.00  0.00     0.042 CG0
ATOM     72  G   UNL     1      24.012  35.436   9.887  1.00  0.00     0.000 G0
ENDBRANCH  70  71
BRANCH  70  73
ATOM     73  C   UNL     1      26.051  35.643  12.107  1.00  0.00     0.249 C 
ATOM     74  N   UNL     1      26.015  37.013  11.737  1.00  0.00    -0.324 N 
ATOM     75  O   UNL     1      27.165  35.232  12.529  1.00  0.00    -0.272 OA
ATOM     76  H   UNL     1      26.715  37.664  12.155  1.00  0.00     0.170 HD
BRANCH  74  77
ATOM     77  C   UNL     1      25.060  37.570  10.809  1.00  0.00     0.044 A 
ATOM     78  C   UNL     1      24.165  36.914   9.972  1.00  0.00    -0.024 A 
ATOM     79  C   UNL     1      25.098  38.948  10.808  1.00  0.00     0.026 A 
ATOM     80  C   UNL     1      23.315  37.605   9.141  1.00  0.00     0.006 A 
ATOM     81  C   UNL     1      24.255  39.666   9.983  1.00  0.00     0.002 A 
ATOM     82  C   UNL     1      23.365  38.977   9.152  1.00  0.00     0.000 A 
BRANCH  78  83
ATOM     83  C   UNL     1      24.047  35.429   9.901  1.00  0.00     0.040 CG0
ATOM     84  G   UNL     1      23.791  34.948  11.287  1.00  0.00     0.000 G0
ENDBRANCH  78  83
ENDBRANCH  74  77
ENDBRANCH  70  73
ENDBRANCH  68  70
ENDBRANCH  64  65
ENDBRANCH  63  64
ENDBRANCH  60  63
ENDBRANCH  58  59
ENDBRANCH  55  58
ENDBRANCH   1  55
TORSDOF 30
BEGIN_RES LYS A 131
REMARK  4 active torsions:
REMARK  status: ('A' for Active; 'I' for Inactive)
REMARK    1  A    between atoms: CA   and  CB  
REMARK    2  A    between atoms: CB   and  CG  
REMARK    3  A    between atoms: CG   and  CD  
REMARK    4  A    between atoms: CD   and  CE  
ROOT
ATOM      1  CA  LYS A 131      29.867  25.555  16.977  1.00 20.52     0.186 C 
ENDROOT
BRANCH   1   2
ATOM      2  CB  LYS A 131      28.345  25.722  17.026  1.00 20.94     0.034 C 
BRANCH   2   3
ATOM      3  CG  LYS A 131      27.602  24.398  16.934  1.00 22.96     0.005 C 
BRANCH   3   4
ATOM      4  CD  LYS A 131      26.371  24.378  17.798  1.00 24.33     0.041 C 
BRANCH   4   5
ATOM      5  CE  LYS A 131      26.150  25.761  18.401  1.00 26.91     0.338 C 
ATOM      6  NZ  LYS A 131      25.880  25.656  19.854  1.00 27.40     0.618 N 
ENDBRANCH   4   5
ENDBRANCH   3   4
ENDBRANCH   2   3
ENDBRANCH   1   2
END_RES LYS A 131
BEGIN_RES LYS A 135
REMARK  4 active torsions:
REMARK  status: ('A' for Active; 'I' for Inactive)
REMARK    5  A    between atoms: CA   and  CB  
REMARK    6  A    between atoms: CB   and  CG  
REMARK    7  A    between atoms: CG   and  CD  
REMARK    8  A    between atoms: CD   and  CE  
ROOT
ATOM      7  CA  LYS A 135      33.193  34.663   9.290  1.00 25.02     0.186 C 
ENDROOT
BRANCH   7   8
ATOM      8  CB  LYS A 135      32.060  35.360  10.034  1.00 26.63     0.034 C 
BRANCH   8   9
ATOM      9  CG  LYS A 135      30.692  35.028   9.496  1.00 29.45     0.005 C 
BRANCH   9  10
ATOM     10  CD  LYS A 135      29.640  35.943  10.104  1.00 32.00     0.041 C 
BRANCH  10  11
ATOM     11  CE  LYS A 135      28.424  36.029   9.202  1.00 34.25     0.338 C 
ATOM     12  NZ  LYS A 135      28.701  36.872   8.006  1.00 35.99     0.618 N 
ENDBRANCH  10  11
ENDBRANCH   9  10
ENDBRANCH   8   9
ENDBRANCH   7   8
END_RES LYS A 135
