REMARK VINA RESULT:    -4.317      2.300      4.422
REMARK INTER + INTRA:         -22.064
REMARK INTER:                 -10.645
REMARK INTRA:                 -11.419
REMARK UNBOUND:               -10.427
REMARK SMILES CCN(CC)CCn1cc(COC(=O)NC[C@@H](O)C(O)[C@@H]2O[C@@](OC[C@H]3O[C@@H](O[C@H]4[C@H](O)[C@@H](O)[C@H](OCCN=[N+]=[N-])O[C@@H]4CO)[C@H](O)[C@@H](O)[C@H]3O)(C(=O)O)C[C@H](O)[C@H]2NC(C)=O)nn1
REMARK SMILES IDX 19 1 21 2 23 3 55 4 22 5 56 6 58 7 24 8 25 9 26 10 28 11
REMARK SMILES IDX 27 12 46 13 48 14 50 15 29 16 30 17 43 18 42 19 35 20 31 21
REMARK SMILES IDX 33 22 44 23 45 24 36 26 37 27 38 28 39 29 40 30 41 31 32 32
REMARK SMILES IDX 34 34 47 36 49 38 51 40 52 42 53 43 54 44 57 46 59 48 60 49
REMARK SMILES IDX 61 51 62 52 20 53 17 55 18 56 16 58 15 59 13 60 14 62 12 63
REMARK SMILES IDX 11 64 10 65 9 66 63 67 8 68 64 69 7 70 6 71 3 72 2 73 1 74
REMARK SMILES IDX 4 75 5 76
REMARK H PARENT 45 25 32 33 34 35 47 37 49 39 51 41 54 45 57 47 59 50 20 54
REMARK H PARENT 18 57 15 61
REMARK Flexibility Score: inf
ROOT
ATOM      1  C   UNL     1      30.091  33.854  14.469  1.00  0.00     0.176 C 
ENDROOT
BRANCH   1   2
ATOM      2  C   UNL     1      30.469  35.060  15.287  1.00  0.00     0.178 C 
ATOM      3  C   UNL     1      31.917  35.832  16.902  1.00  0.00     0.272 C 
ATOM      4  C   UNL     1      31.205  37.126  16.480  1.00  0.00     0.113 C 
ATOM      5  O   UNL     1      31.550  34.782  16.090  1.00  0.00    -0.332 OA
ATOM      6  C   UNL     1      29.715  37.016  16.483  1.00  0.00     0.145 C 
ATOM      7  C   UNL     1      29.362  35.548  16.196  1.00  0.00     0.142 C 
BRANCH   3   8
ATOM      8  O   UNL     1      31.641  35.651  18.235  1.00  0.00    -0.338 OA
BRANCH   8   9
ATOM      9  C   UNL     1      31.880  34.396  18.740  1.00  0.00     0.199 C 
BRANCH   9  10
ATOM     10  C   UNL     1      30.585  33.749  19.261  1.00  0.00     0.179 C 
ATOM     11  C   UNL     1      30.087  31.515  19.803  1.00  0.00     0.282 C 
ATOM     12  O   UNL     1      30.661  32.440  18.944  1.00  0.00    -0.341 OA
ATOM     13  C   UNL     1      28.974  32.085  20.587  1.00  0.00     0.202 C 
ATOM     14  C   UNL     1      29.339  33.319  21.364  1.00  0.00     0.179 C 
ATOM     15  C   UNL     1      30.557  33.967  20.743  1.00  0.00     0.177 C 
BRANCH  11  16
ATOM     16  O   UNL     1      31.156  30.962  20.494  1.00  0.00    -0.341 OA
BRANCH  16  17
ATOM     17  C   UNL     1      30.844  29.898  21.265  1.00  0.00     0.184 C 
ATOM     18  C   UNL     1      32.016  29.380  22.056  1.00  0.00     0.178 C 
ATOM     19  O   UNL     1      31.541  28.340  22.906  1.00  0.00    -0.341 OA
ATOM     20  C   UNL     1      31.439  27.190  22.154  1.00  0.00     0.281 C 
ATOM     21  C   UNL     1      30.299  28.714  20.473  1.00  0.00     0.180 C 
ATOM     22  C   UNL     1      31.004  27.430  20.775  1.00  0.00     0.202 C 
BRANCH  18  23
ATOM     23  C   UNL     1      32.784  30.396  22.822  1.00  0.00     0.191 C 
BRANCH  23  24
ATOM     24  O   UNL     1      31.889  31.354  23.281  1.00  0.00    -0.394 OA
ATOM     25  H   UNL     1      31.835  32.158  22.707  1.00  0.00     0.210 HD
ENDBRANCH  23  24
ENDBRANCH  18  23
BRANCH  20  26
ATOM     26  O   UNL     1      30.734  26.193  22.823  1.00  0.00    -0.350 OA
BRANCH  26  27
ATOM     27  C   UNL     1      30.071  26.606  23.939  1.00  0.00     0.169 C 
BRANCH  27  28
ATOM     28  C   UNL     1      28.565  26.631  23.758  1.00  0.00     0.119 C 
BRANCH  28  29
ATOM     29  N   UNL     1      28.088  27.978  23.513  1.00  0.00    -0.092 NA
ATOM     30  N   UNL     1      28.563  28.971  24.080  1.00  0.00     0.001 N 
ATOM     31  N   UNL     1      28.697  29.840  24.943  1.00  0.00    -0.003 NA
ENDBRANCH  28  29
ENDBRANCH  27  28
ENDBRANCH  26  27
ENDBRANCH  20  26
BRANCH  21  32
ATOM     32  O   UNL     1      28.954  28.578  20.764  1.00  0.00    -0.387 OA
ATOM     33  H   UNL     1      28.717  28.800  21.687  1.00  0.00     0.211 HD
ENDBRANCH  21  32
BRANCH  22  34
ATOM     34  O   UNL     1      32.098  27.230  19.896  1.00  0.00    -0.385 OA
ATOM     35  H   UNL     1      32.710  26.606  20.366  1.00  0.00     0.211 HD
ENDBRANCH  22  34
ENDBRANCH  16  17
ENDBRANCH  11  16
BRANCH  13  36
ATOM     36  O   UNL     1      27.943  32.471  19.680  1.00  0.00    -0.385 OA
ATOM     37  H   UNL     1      27.071  32.176  19.996  1.00  0.00     0.211 HD
ENDBRANCH  13  36
BRANCH  14  38
ATOM     38  O   UNL     1      29.506  33.104  22.722  1.00  0.00    -0.387 OA
ATOM     39  H   UNL     1      30.039  33.787  23.160  1.00  0.00     0.211 HD
ENDBRANCH  14  38
BRANCH  15  40
ATOM     40  O   UNL     1      31.683  33.378  21.302  1.00  0.00    -0.387 OA
ATOM     41  H   UNL     1      32.428  34.043  21.362  1.00  0.00     0.211 HD
ENDBRANCH  15  40
ENDBRANCH   9  10
ENDBRANCH   8   9
ENDBRANCH   3   8
BRANCH   3  42
ATOM     42  C   UNL     1      33.358  36.122  16.691  1.00  0.00     0.364 C 
ATOM     43  O   UNL     1      33.968  36.961  17.437  1.00  0.00    -0.246 OA
BRANCH  42  44
ATOM     44  O   UNL     1      34.139  35.542  15.712  1.00  0.00    -0.477 OA
ATOM     45  H   UNL     1      34.611  34.663  15.895  1.00  0.00     0.296 HD
ENDBRANCH  42  44
ENDBRANCH   3  42
BRANCH   6  46
ATOM     46  O   UNL     1      29.092  37.507  17.605  1.00  0.00    -0.391 OA
ATOM     47  H   UNL     1      29.659  37.273  18.383  1.00  0.00     0.211 HD
ENDBRANCH   6  46
BRANCH   7  48
ATOM     48  N   UNL     1      28.049  35.419  15.661  1.00  0.00    -0.348 N 
ATOM     49  C   UNL     1      27.094  34.617  16.387  1.00  0.00     0.217 C 
ATOM     50  H   UNL     1      27.702  35.855  14.788  1.00  0.00     0.163 HD
ATOM     51  C   UNL     1      25.707  34.436  15.889  1.00  0.00     0.114 C 
ATOM     52  O   UNL     1      27.403  34.043  17.464  1.00  0.00    -0.275 OA
ENDBRANCH   7  48
ENDBRANCH   1   2
BRANCH   1  53
ATOM     53  O   UNL     1      30.945  33.782  13.377  1.00  0.00    -0.388 OA
ATOM     54  H   UNL     1      31.800  34.272  13.594  1.00  0.00     0.211 HD
ENDBRANCH   1  53
BRANCH   1  55
ATOM     55  C   UNL     1      30.311  32.647  15.345  1.00  0.00     0.165 C 
BRANCH  55  56
ATOM     56  O   UNL     1      31.475  31.988  14.933  1.00  0.00    -0.388 OA
ATOM     57  H   UNL     1      31.847  31.509  15.712  1.00  0.00     0.211 HD
ENDBRANCH  55  56
BRANCH  55  58
ATOM     58  C   UNL     1      29.186  31.681  15.402  1.00  0.00     0.154 C 
BRANCH  58  59
ATOM     59  N   UNL     1      28.731  31.384  16.716  1.00  0.00    -0.319 N 
ATOM     60  C   UNL     1      28.112  30.114  16.976  1.00  0.00     0.407 C 
ATOM     61  H   UNL     1      28.824  32.051  17.483  1.00  0.00     0.167 HD
ATOM     62  O   UNL     1      27.963  29.275  16.066  1.00  0.00    -0.225 OA
BRANCH  60  63
ATOM     63  O   UNL     1      27.682  29.846  18.265  1.00  0.00    -0.443 OA
BRANCH  63  64
ATOM     64  C   UNL     1      26.365  29.298  18.444  1.00  0.00     0.294 C 
BRANCH  64  65
ATOM     65  C   UNL     1      25.399  30.364  18.151  1.00  0.00     0.120 A 
ATOM     66  C   UNL     1      24.413  30.267  17.163  1.00  0.00     0.138 A 
ATOM     67  N   UNL     1      25.232  31.568  18.693  1.00  0.00    -0.132 NA
ATOM     68  N   UNL     1      23.699  31.407  17.154  1.00  0.00    -0.251 N 
ATOM     69  N   UNL     1      24.211  32.171  18.082  1.00  0.00    -0.067 NA
BRANCH  68  70
ATOM     70  C   UNL     1      22.580  31.741  16.293  1.00  0.00     0.161 C 
BRANCH  70  71
ATOM     71  C   UNL     1      23.059  31.651  14.861  1.00  0.00     0.108 C 
BRANCH  71  72
ATOM     72  N   UNL     1      22.215  30.848  14.025  1.00  0.00    -0.302 NA
BRANCH  72  73
ATOM     73  C   UNL     1      22.649  29.479  13.967  1.00  0.00     0.081 C 
ATOM     74  C   UNL     1      23.547  29.309  12.747  1.00  0.00     0.021 C 
ENDBRANCH  72  73
BRANCH  72  75
ATOM     75  C   UNL     1      21.979  31.426  12.739  1.00  0.00     0.081 C 
ATOM     76  C   UNL     1      22.440  32.869  12.699  1.00  0.00     0.021 C 
ENDBRANCH  72  75
ENDBRANCH  71  72
ENDBRANCH  70  71
ENDBRANCH  68  70
ENDBRANCH  64  65
ENDBRANCH  63  64
ENDBRANCH  60  63
ENDBRANCH  58  59
ENDBRANCH  55  58
ENDBRANCH   1  55
TORSDOF 34
BEGIN_RES LYS A 131
REMARK  4 active torsions:
REMARK  status: ('A' for Active; 'I' for Inactive)
REMARK    1  A    between atoms: CA   and  CB  
REMARK    2  A    between atoms: CB   and  CG  
REMARK    3  A    between atoms: CG   and  CD  
REMARK    4  A    between atoms: CD   and  CE  
ROOT
ATOM      1  CA  LYS A 131      29.867  25.555  16.977  1.00 20.52     0.186 C 
ENDROOT
BRANCH   1   2
ATOM      2  CB  LYS A 131      28.345  25.722  17.026  1.00 20.94     0.034 C 
BRANCH   2   3
ATOM      3  CG  LYS A 131      27.601  24.402  16.892  1.00 22.96     0.005 C 
BRANCH   3   4
ATOM      4  CD  LYS A 131      26.566  24.223  17.967  1.00 24.33     0.041 C 
BRANCH   4   5
ATOM      5  CE  LYS A 131      25.973  25.580  18.333  1.00 26.91     0.338 C 
ATOM      6  NZ  LYS A 131      25.831  25.705  19.803  1.00 27.40     0.618 N 
ENDBRANCH   4   5
ENDBRANCH   3   4
ENDBRANCH   2   3
ENDBRANCH   1   2
END_RES LYS A 131
BEGIN_RES LYS A 135
REMARK  4 active torsions:
REMARK  status: ('A' for Active; 'I' for Inactive)
REMARK    5  A    between atoms: CA   and  CB  
REMARK    6  A    between atoms: CB   and  CG  
REMARK    7  A    between atoms: CG   and  CD  
REMARK    8  A    between atoms: CD   and  CE  
ROOT
ATOM      7  CA  LYS A 135      33.193  34.663   9.290  1.00 25.02     0.186 C 
ENDROOT
BRANCH   7   8
ATOM      8  CB  LYS A 135      32.060  35.360  10.034  1.00 26.63     0.034 C 
BRANCH   8   9
ATOM      9  CG  LYS A 135      30.953  35.841   9.132  1.00 29.45     0.005 C 
BRANCH   9  10
ATOM     10  CD  LYS A 135      30.212  34.664   8.517  1.00 32.00     0.041 C 
BRANCH  10  11
ATOM     11  CE  LYS A 135      29.574  33.813   9.599  1.00 34.25     0.338 C 
ATOM     12  NZ  LYS A 135      28.092  33.777   9.449  1.00 35.99     0.618 N 
ENDBRANCH  10  11
ENDBRANCH   9  10
ENDBRANCH   8   9
ENDBRANCH   7   8
END_RES LYS A 135
