REMARK VINA RESULT:    -4.359      5.756     10.505
REMARK INTER + INTRA:         -22.478
REMARK INTER:                  -9.040
REMARK INTRA:                 -13.439
REMARK UNBOUND:               -11.494
REMARK SMILES CC(=O)N[C@@H]1[C@@H](O)C[C@](OC[C@H]2O[C@@H](O[C@H]3[C@H](O)[C@@H](O)[C@H](OCCN=[N+]=[N-])O[C@@H]3CO)[C@H](O)[C@@H](O)[C@H]2O)(C(=O)O)O[C@H]1C(O)[C@H](O)CNC(=O)OCc1cn(-c2ccccc2C(C)=O)nn1
REMARK SMILES IDX 9 1 8 2 6 3 5 4 42 5 41 6 10 7 11 8 12 9 14 10 13 11 32 12
REMARK SMILES IDX 34 13 36 14 15 15 16 16 29 17 28 18 21 19 17 20 19 21 30 22
REMARK SMILES IDX 31 23 22 25 23 26 24 27 25 28 26 29 27 30 18 31 20 33 33 35
REMARK SMILES IDX 35 37 37 39 38 41 39 42 40 43 7 45 43 47 44 48 45 50 46 51
REMARK SMILES IDX 47 53 48 54 49 55 50 57 51 58 52 59 53 60 54 61 66 62 55 63
REMARK SMILES IDX 65 64 56 65 61 66 57 67 60 68 58 69 59 70 62 71 64 72 63 73
REMARK SMILES IDX 4 74 2 75 1 77 3 78
REMARK H PARENT 31 24 18 32 20 34 33 36 35 38 37 40 40 44 7 46 44 49 46 52
REMARK H PARENT 48 56 4 76
REMARK Flexibility Score: inf
ROOT
ATOM      1  C   UNL     1      22.239  36.790   9.297  1.00  0.00     0.272 C 
ATOM      2  C   UNL     1      21.337  37.890   9.778  1.00  0.00     0.113 C 
ATOM      3  C   UNL     1      20.602  38.446   8.587  1.00  0.00     0.145 C 
ATOM      4  C   UNL     1      19.692  37.315   8.137  1.00  0.00     0.142 C 
ATOM      5  C   UNL     1      20.617  36.234   7.648  1.00  0.00     0.178 C 
ATOM      6  O   UNL     1      21.911  36.315   8.007  1.00  0.00    -0.332 OA
ENDROOT
BRANCH   1   7
ATOM      7  O   UNL     1      22.384  35.734  10.057  1.00  0.00    -0.338 OA
BRANCH   7   8
ATOM      8  C   UNL     1      23.340  35.257  10.791  1.00  0.00     0.199 C 
BRANCH   8   9
ATOM      9  C   UNL     1      23.275  34.979  12.245  1.00  0.00     0.179 C 
ATOM     10  C   UNL     1      21.817  35.200  14.029  1.00  0.00     0.282 C 
ATOM     11  O   UNL     1      21.934  35.265  12.652  1.00  0.00    -0.341 OA
ATOM     12  C   UNL     1      22.934  34.551  14.755  1.00  0.00     0.202 C 
ATOM     13  C   UNL     1      23.607  33.411  14.054  1.00  0.00     0.179 C 
ATOM     14  C   UNL     1      23.389  33.469  12.562  1.00  0.00     0.177 C 
BRANCH  10  15
ATOM     15  O   UNL     1      20.617  34.571  14.358  1.00  0.00    -0.341 OA
BRANCH  15  16
ATOM     16  C   UNL     1      19.579  34.962  13.516  1.00  0.00     0.184 C 
ATOM     17  C   UNL     1      18.835  36.090  14.189  1.00  0.00     0.178 C 
ATOM     18  O   UNL     1      17.520  35.819  14.465  1.00  0.00    -0.341 OA
ATOM     19  C   UNL     1      16.762  35.370  13.412  1.00  0.00     0.281 C 
ATOM     20  C   UNL     1      18.618  33.765  13.464  1.00  0.00     0.180 C 
ATOM     21  C   UNL     1      17.411  34.197  12.694  1.00  0.00     0.202 C 
BRANCH  17  22
ATOM     22  C   UNL     1      19.009  37.339  13.345  1.00  0.00     0.191 C 
BRANCH  22  23
ATOM     23  O   UNL     1      19.407  36.942  12.069  1.00  0.00    -0.394 OA
ATOM     24  H   UNL     1      18.676  36.811  11.439  1.00  0.00     0.210 HD
ENDBRANCH  22  23
ENDBRANCH  17  22
BRANCH  19  25
ATOM     25  O   UNL     1      16.363  36.351  12.525  1.00  0.00    -0.350 OA
BRANCH  25  26
ATOM     26  C   UNL     1      15.054  36.712  12.805  1.00  0.00     0.169 C 
BRANCH  26  27
ATOM     27  C   UNL     1      14.109  35.806  12.030  1.00  0.00     0.119 C 
BRANCH  27  28
ATOM     28  N   UNL     1      13.742  34.645  12.851  1.00  0.00    -0.092 NA
ATOM     29  N   UNL     1      13.197  34.893  13.925  1.00  0.00     0.001 N 
ATOM     30  N   UNL     1      12.756  34.985  15.058  1.00  0.00    -0.003 NA
ENDBRANCH  27  28
ENDBRANCH  26  27
ENDBRANCH  25  26
ENDBRANCH  19  25
BRANCH  20  31
ATOM     31  O   UNL     1      19.266  32.683  12.915  1.00  0.00    -0.387 OA
ATOM     32  H   UNL     1      19.408  31.948  13.589  1.00  0.00     0.211 HD
ENDBRANCH  20  31
BRANCH  21  33
ATOM     33  O   UNL     1      16.514  33.148  12.483  1.00  0.00    -0.385 OA
ATOM     34  H   UNL     1      16.133  33.227  11.556  1.00  0.00     0.211 HD
ENDBRANCH  21  33
ENDBRANCH  15  16
ENDBRANCH  10  15
BRANCH  12  35
ATOM     35  O   UNL     1      23.856  35.488  15.245  1.00  0.00    -0.385 OA
ATOM     36  H   UNL     1      24.676  35.047  15.580  1.00  0.00     0.211 HD
ENDBRANCH  12  35
BRANCH  13  37
ATOM     37  O   UNL     1      23.124  32.167  14.494  1.00  0.00    -0.387 OA
ATOM     38  H   UNL     1      22.549  32.357  15.281  1.00  0.00     0.211 HD
ENDBRANCH  13  37
BRANCH  14  39
ATOM     39  O   UNL     1      22.200  32.830  12.194  1.00  0.00    -0.387 OA
ATOM     40  H   UNL     1      21.492  32.916  12.883  1.00  0.00     0.211 HD
ENDBRANCH  14  39
ENDBRANCH   8   9
ENDBRANCH   7   8
ENDBRANCH   1   7
BRANCH   1  41
ATOM     41  C   UNL     1      23.533  37.473   9.011  1.00  0.00     0.364 C 
ATOM     42  O   UNL     1      24.220  37.145   7.983  1.00  0.00    -0.246 OA
BRANCH  41  43
ATOM     43  O   UNL     1      24.105  38.462   9.769  1.00  0.00    -0.477 OA
ATOM     44  H   UNL     1      24.357  38.333  10.740  1.00  0.00     0.296 HD
ENDBRANCH  41  43
ENDBRANCH   1  41
BRANCH   3  45
ATOM     45  O   UNL     1      19.870  39.539   9.044  1.00  0.00    -0.391 OA
ATOM     46  H   UNL     1      19.230  39.274   9.757  1.00  0.00     0.211 HD
ENDBRANCH   3  45
BRANCH   5  47
ATOM     47  C   UNL     1      19.978  34.836   7.937  1.00  0.00     0.176 C 
BRANCH  47  48
ATOM     48  O   UNL     1      19.030  34.691   6.854  1.00  0.00    -0.388 OA
ATOM     49  H   UNL     1      18.694  35.634   6.750  1.00  0.00     0.211 HD
ENDBRANCH  47  48
BRANCH  47  50
ATOM     50  C   UNL     1      19.193  34.851   9.180  1.00  0.00     0.165 C 
BRANCH  50  51
ATOM     51  O   UNL     1      19.918  34.308  10.269  1.00  0.00    -0.388 OA
ATOM     52  H   UNL     1      20.783  33.948   9.976  1.00  0.00     0.211 HD
ENDBRANCH  50  51
BRANCH  50  53
ATOM     53  C   UNL     1      17.745  34.658   9.212  1.00  0.00     0.154 C 
BRANCH  53  54
ATOM     54  N   UNL     1      17.272  33.340   9.424  1.00  0.00    -0.319 N 
ATOM     55  C   UNL     1      16.836  32.399   8.464  1.00  0.00     0.407 C 
ATOM     56  H   UNL     1      17.228  32.972  10.430  1.00  0.00     0.167 HD
ATOM     57  O   UNL     1      16.830  32.735   7.258  1.00  0.00    -0.225 OA
BRANCH  55  58
ATOM     58  O   UNL     1      16.409  31.115   8.773  1.00  0.00    -0.443 OA
BRANCH  58  59
ATOM     59  C   UNL     1      17.328  30.059   8.874  1.00  0.00     0.294 C 
BRANCH  59  60
ATOM     60  C   UNL     1      17.678  29.910  10.329  1.00  0.00     0.121 A 
ATOM     61  C   UNL     1      18.384  28.885  10.913  1.00  0.00     0.144 A 
ATOM     62  N   UNL     1      17.373  30.734  11.340  1.00  0.00    -0.131 NA
ATOM     63  N   UNL     1      18.474  29.135  12.260  1.00  0.00    -0.220 N 
ATOM     64  N   UNL     1      17.845  30.270  12.475  1.00  0.00    -0.062 NA
BRANCH  63  65
ATOM     65  C   UNL     1      19.104  28.261  13.188  1.00  0.00     0.077 A 
ATOM     66  C   UNL     1      20.362  28.373  13.659  1.00  0.00     0.043 A 
ATOM     67  C   UNL     1      18.302  27.194  13.639  1.00  0.00     0.029 A 
ATOM     68  C   UNL     1      20.809  27.406  14.585  1.00  0.00     0.014 A 
ATOM     69  C   UNL     1      18.764  26.264  14.543  1.00  0.00     0.002 A 
ATOM     70  C   UNL     1      20.044  26.367  15.032  1.00  0.00     0.001 A 
BRANCH  66  71
ATOM     71  C   UNL     1      21.257  29.430  13.249  1.00  0.00     0.161 C 
ATOM     72  O   UNL     1      21.001  30.587  13.761  1.00  0.00    -0.294 OA
ATOM     73  C   UNL     1      22.404  29.367  12.342  1.00  0.00     0.093 C 
ENDBRANCH  66  71
ENDBRANCH  63  65
ENDBRANCH  59  60
ENDBRANCH  58  59
ENDBRANCH  55  58
ENDBRANCH  53  54
ENDBRANCH  50  53
ENDBRANCH  47  50
ENDBRANCH   5  47
BRANCH   4  74
ATOM     74  N   UNL     1      18.743  37.738   7.151  1.00  0.00    -0.348 N 
ATOM     75  C   UNL     1      17.419  38.139   7.456  1.00  0.00     0.217 C 
ATOM     76  H   UNL     1      19.071  37.742   6.150  1.00  0.00     0.163 HD
ATOM     77  C   UNL     1      16.505  38.567   6.340  1.00  0.00     0.114 C 
ATOM     78  O   UNL     1      17.067  38.122   8.654  1.00  0.00    -0.275 OA
ENDBRANCH   4  74
TORSDOF 31
BEGIN_RES LYS A 131
REMARK  4 active torsions:
REMARK  status: ('A' for Active; 'I' for Inactive)
REMARK    1  A    between atoms: CA   and  CB  
REMARK    2  A    between atoms: CB   and  CG  
REMARK    3  A    between atoms: CG   and  CD  
REMARK    4  A    between atoms: CD   and  CE  
ROOT
ATOM      1  CA  LYS A 131      29.867  25.555  16.977  1.00 20.52     0.186 C 
ENDROOT
BRANCH   1   2
ATOM      2  CB  LYS A 131      28.345  25.722  17.026  1.00 20.94     0.034 C 
BRANCH   2   3
ATOM      3  CG  LYS A 131      27.602  24.399  16.922  1.00 22.96     0.005 C 
BRANCH   3   4
ATOM      4  CD  LYS A 131      26.141  24.542  17.250  1.00 24.33     0.041 C 
BRANCH   4   5
ATOM      5  CE  LYS A 131      25.582  23.192  17.684  1.00 26.91     0.338 C 
ATOM      6  NZ  LYS A 131      24.101  23.205  17.642  1.00 27.40     0.618 N 
ENDBRANCH   4   5
ENDBRANCH   3   4
ENDBRANCH   2   3
ENDBRANCH   1   2
END_RES LYS A 131
BEGIN_RES LYS A 135
REMARK  4 active torsions:
REMARK  status: ('A' for Active; 'I' for Inactive)
REMARK    5  A    between atoms: CA   and  CB  
REMARK    6  A    between atoms: CB   and  CG  
REMARK    7  A    between atoms: CG   and  CD  
REMARK    8  A    between atoms: CD   and  CE  
ROOT
ATOM      7  CA  LYS A 135      33.193  34.663   9.290  1.00 25.02     0.186 C 
ENDROOT
BRANCH   7   8
ATOM      8  CB  LYS A 135      32.060  35.360  10.034  1.00 26.63     0.034 C 
BRANCH   8   9
ATOM      9  CG  LYS A 135      30.693  34.831   9.683  1.00 29.45     0.005 C 
BRANCH   9  10
ATOM     10  CD  LYS A 135      30.610  34.503   8.200  1.00 32.00     0.041 C 
BRANCH  10  11
ATOM     11  CE  LYS A 135      29.251  34.886   7.646  1.00 34.25     0.338 C 
ATOM     12  NZ  LYS A 135      28.161  34.511   8.589  1.00 35.99     0.618 N 
ENDBRANCH  10  11
ENDBRANCH   9  10
ENDBRANCH   8   9
ENDBRANCH   7   8
END_RES LYS A 135
