REMARK VINA RESULT:    -4.933      3.165      8.033
REMARK INTER + INTRA:         -22.293
REMARK INTER:                 -10.282
REMARK INTRA:                 -12.011
REMARK UNBOUND:                -9.861
REMARK SMILES CC(=O)N[C@@H]1[C@@H](O)C[C@](OC[C@H]2O[C@@H](O[C@H]3[C@H](O)[C@@H](O)[C@H](OCCN=[N+]=[N-])O[C@@H]3CO)[C@H](O)[C@@H](O)[C@H]2O)(C(=O)O)O[C@H]1C(O)[C@H](O)CNC(=O)OCc1cn(-c2ccc([N+](=O)[O-])cc2)nn1
REMARK SMILES IDX 9 1 8 2 6 3 5 4 42 5 41 6 10 7 11 8 12 9 14 10 13 11 32 12
REMARK SMILES IDX 34 13 36 14 15 15 16 16 29 17 28 18 21 19 17 20 19 21 30 22
REMARK SMILES IDX 31 23 22 25 23 26 24 27 25 28 26 29 27 30 18 31 20 33 33 35
REMARK SMILES IDX 35 37 37 39 38 41 39 42 40 43 7 45 43 47 44 48 45 50 46 51
REMARK SMILES IDX 47 53 48 54 49 55 50 57 51 58 52 59 53 60 54 61 66 62 55 63
REMARK SMILES IDX 65 64 56 65 57 66 64 67 58 68 63 69 59 70 60 71 61 72 62 73
REMARK SMILES IDX 4 74 2 75 1 77 3 78
REMARK H PARENT 31 24 18 32 20 34 33 36 35 38 37 40 40 44 7 46 44 49 46 52
REMARK H PARENT 48 56 4 76
REMARK Flexibility Score: inf
ROOT
ATOM      1  C   UNL     1      24.431  36.849   8.799  1.00  0.00     0.272 C 
ATOM      2  C   UNL     1      23.052  36.277   8.819  1.00  0.00     0.113 C 
ATOM      3  C   UNL     1      22.064  37.317   8.504  1.00  0.00     0.145 C 
ATOM      4  C   UNL     1      22.582  38.766   8.545  1.00  0.00     0.142 C 
ATOM      5  C   UNL     1      23.567  38.887   9.611  1.00  0.00     0.178 C 
ATOM      6  O   UNL     1      24.494  37.858   9.744  1.00  0.00    -0.332 OA
ENDROOT
BRANCH   1   7
ATOM      7  O   UNL     1      24.908  37.204   7.575  1.00  0.00    -0.338 OA
BRANCH   7   8
ATOM      8  C   UNL     1      26.255  37.207   7.415  1.00  0.00     0.199 C 
BRANCH   8   9
ATOM      9  C   UNL     1      26.839  38.607   7.558  1.00  0.00     0.179 C 
ATOM     10  C   UNL     1      28.747  38.487   8.904  1.00  0.00     0.282 C 
ATOM     11  O   UNL     1      27.437  38.824   8.770  1.00  0.00    -0.341 OA
ATOM     12  C   UNL     1      29.468  37.962   7.730  1.00  0.00     0.202 C 
ATOM     13  C   UNL     1      29.068  38.681   6.469  1.00  0.00     0.179 C 
ATOM     14  C   UNL     1      27.636  39.073   6.392  1.00  0.00     0.177 C 
BRANCH  10  15
ATOM     15  O   UNL     1      28.860  37.697  10.044  1.00  0.00    -0.341 OA
BRANCH  15  16
ATOM     16  C   UNL     1      29.209  38.315  11.197  1.00  0.00     0.184 C 
ATOM     17  C   UNL     1      30.414  37.715  11.886  1.00  0.00     0.178 C 
ATOM     18  O   UNL     1      30.625  38.412  13.093  1.00  0.00    -0.341 OA
ATOM     19  C   UNL     1      29.638  38.044  14.007  1.00  0.00     0.281 C 
ATOM     20  C   UNL     1      28.051  38.068  12.185  1.00  0.00     0.180 C 
ATOM     21  C   UNL     1      28.368  38.744  13.505  1.00  0.00     0.202 C 
BRANCH  17  22
ATOM     22  C   UNL     1      31.698  37.838  11.107  1.00  0.00     0.191 C 
BRANCH  22  23
ATOM     23  O   UNL     1      32.591  36.924  11.720  1.00  0.00    -0.394 OA
ATOM     24  H   UNL     1      32.160  36.490  12.503  1.00  0.00     0.210 HD
ENDBRANCH  22  23
ENDBRANCH  17  22
BRANCH  19  25
ATOM     25  O   UNL     1      29.934  38.528  15.254  1.00  0.00    -0.350 OA
BRANCH  25  26
ATOM     26  C   UNL     1      30.081  37.592  16.245  1.00  0.00     0.169 C 
BRANCH  26  27
ATOM     27  C   UNL     1      31.396  37.636  16.972  1.00  0.00     0.119 C 
BRANCH  27  28
ATOM     28  N   UNL     1      32.469  37.689  15.977  1.00  0.00    -0.092 NA
ATOM     29  N   UNL     1      32.716  36.698  15.305  1.00  0.00     0.001 N 
ATOM     30  N   UNL     1      32.781  35.784  14.498  1.00  0.00    -0.003 NA
ENDBRANCH  27  28
ENDBRANCH  26  27
ENDBRANCH  25  26
ENDBRANCH  19  25
BRANCH  20  31
ATOM     31  O   UNL     1      26.842  38.436  11.665  1.00  0.00    -0.387 OA
ATOM     32  H   UNL     1      26.294  39.011  12.233  1.00  0.00     0.211 HD
ENDBRANCH  20  31
BRANCH  21  33
ATOM     33  O   UNL     1      27.317  38.599  14.368  1.00  0.00    -0.385 OA
ATOM     34  H   UNL     1      26.668  39.326  14.211  1.00  0.00     0.211 HD
ENDBRANCH  21  33
ENDBRANCH  15  16
ENDBRANCH  10  15
BRANCH  12  35
ATOM     35  O   UNL     1      30.840  38.246   7.876  1.00  0.00    -0.385 OA
ATOM     36  H   UNL     1      31.216  38.651   7.072  1.00  0.00     0.211 HD
ENDBRANCH  12  35
BRANCH  13  37
ATOM     37  O   UNL     1      29.452  37.893   5.356  1.00  0.00    -0.387 OA
ATOM     38  H   UNL     1      30.038  37.192   5.687  1.00  0.00     0.211 HD
ENDBRANCH  13  37
BRANCH  14  39
ATOM     39  O   UNL     1      26.996  38.722   5.211  1.00  0.00    -0.387 OA
ATOM     40  H   UNL     1      26.200  39.314   5.124  1.00  0.00     0.211 HD
ENDBRANCH  14  39
ENDBRANCH   8   9
ENDBRANCH   7   8
ENDBRANCH   1   7
BRANCH   1  41
ATOM     41  C   UNL     1      25.364  35.809   9.384  1.00  0.00     0.364 C 
ATOM     42  O   UNL     1      25.236  34.608   9.076  1.00  0.00    -0.246 OA
BRANCH  41  43
ATOM     43  O   UNL     1      26.344  36.194  10.255  1.00  0.00    -0.477 OA
ATOM     44  H   UNL     1      27.326  35.941  10.179  1.00  0.00     0.296 HD
ENDBRANCH  41  43
ENDBRANCH   1  41
BRANCH   3  45
ATOM     45  O   UNL     1      21.532  37.138   7.229  1.00  0.00    -0.391 OA
ATOM     46  H   UNL     1      21.321  36.198   7.065  1.00  0.00     0.211 HD
ENDBRANCH   3  45
BRANCH   5  47
ATOM     47  C   UNL     1      24.352  40.105   9.832  1.00  0.00     0.176 C 
BRANCH  47  48
ATOM     48  O   UNL     1      24.281  41.080   8.832  1.00  0.00    -0.388 OA
ATOM     49  H   UNL     1      24.809  41.879   9.000  1.00  0.00     0.211 HD
ENDBRANCH  47  48
BRANCH  47  50
ATOM     50  C   UNL     1      24.268  40.847  11.126  1.00  0.00     0.165 C 
BRANCH  50  51
ATOM     51  O   UNL     1      25.396  40.885  11.886  1.00  0.00    -0.388 OA
ATOM     52  H   UNL     1      25.756  41.803  11.998  1.00  0.00     0.211 HD
ENDBRANCH  50  51
BRANCH  50  53
ATOM     53  C   UNL     1      22.961  40.644  11.844  1.00  0.00     0.154 C 
BRANCH  53  54
ATOM     54  N   UNL     1      23.030  39.800  13.007  1.00  0.00    -0.319 N 
ATOM     55  C   UNL     1      22.257  38.630  13.196  1.00  0.00     0.407 C 
ATOM     56  H   UNL     1      23.690  40.035  13.795  1.00  0.00     0.167 HD
ATOM     57  O   UNL     1      21.450  38.280  12.330  1.00  0.00    -0.225 OA
BRANCH  55  58
ATOM     58  O   UNL     1      22.375  37.848  14.347  1.00  0.00    -0.443 OA
BRANCH  58  59
ATOM     59  C   UNL     1      22.582  36.460  14.341  1.00  0.00     0.294 C 
BRANCH  59  60
ATOM     60  C   UNL     1      23.998  36.146  14.058  1.00  0.00     0.121 A 
ATOM     61  C   UNL     1      24.946  35.584  14.910  1.00  0.00     0.144 A 
ATOM     62  N   UNL     1      24.673  36.329  12.885  1.00  0.00    -0.131 NA
ATOM     63  N   UNL     1      26.115  35.448  14.256  1.00  0.00    -0.220 N 
ATOM     64  N   UNL     1      25.915  35.906  13.041  1.00  0.00    -0.062 NA
BRANCH  63  65
ATOM     65  C   UNL     1      27.335  34.901  14.767  1.00  0.00     0.067 A 
ATOM     66  C   UNL     1      27.572  34.677  16.102  1.00  0.00     0.035 A 
ATOM     67  C   UNL     1      28.356  34.580  13.883  1.00  0.00     0.035 A 
ATOM     68  C   UNL     1      28.783  34.151  16.548  1.00  0.00     0.088 A 
ATOM     69  C   UNL     1      29.556  34.060  14.320  1.00  0.00     0.088 A 
ATOM     70  C   UNL     1      29.795  33.835  15.659  1.00  0.00     0.269 A 
BRANCH  70  71
ATOM     71  N   UNL     1      31.030  33.301  16.126  1.00  0.00     0.062 N 
ATOM     72  O   UNL     1      31.633  33.715  17.128  1.00  0.00    -0.258 OA
ATOM     73  O   UNL     1      31.586  32.266  15.419  1.00  0.00    -0.258 OA
ENDBRANCH  70  71
ENDBRANCH  63  65
ENDBRANCH  59  60
ENDBRANCH  58  59
ENDBRANCH  55  58
ENDBRANCH  53  54
ENDBRANCH  50  53
ENDBRANCH  47  50
ENDBRANCH   5  47
BRANCH   4  74
ATOM     74  N   UNL     1      21.352  39.479   8.926  1.00  0.00    -0.348 N 
ATOM     75  C   UNL     1      20.963  40.691   8.328  1.00  0.00     0.217 C 
ATOM     76  H   UNL     1      20.760  39.049   9.657  1.00  0.00     0.163 HD
ATOM     77  C   UNL     1      19.696  41.335   8.791  1.00  0.00     0.114 C 
ATOM     78  O   UNL     1      21.627  41.241   7.437  1.00  0.00    -0.275 OA
ENDBRANCH   4  74
TORSDOF 31
BEGIN_RES LYS A 131
REMARK  4 active torsions:
REMARK  status: ('A' for Active; 'I' for Inactive)
REMARK    1  A    between atoms: CA   and  CB  
REMARK    2  A    between atoms: CB   and  CG  
REMARK    3  A    between atoms: CG   and  CD  
REMARK    4  A    between atoms: CD   and  CE  
ROOT
ATOM      1  CA  LYS A 131      29.867  25.555  16.977  1.00 20.52     0.186 C 
ENDROOT
BRANCH   1   2
ATOM      2  CB  LYS A 131      28.345  25.722  17.026  1.00 20.94     0.034 C 
BRANCH   2   3
ATOM      3  CG  LYS A 131      27.599  24.440  16.689  1.00 22.96     0.005 C 
BRANCH   3   4
ATOM      4  CD  LYS A 131      27.011  23.789  17.910  1.00 24.33     0.041 C 
BRANCH   4   5
ATOM      5  CE  LYS A 131      25.635  24.384  18.191  1.00 26.91     0.338 C 
ATOM      6  NZ  LYS A 131      24.774  24.292  16.988  1.00 27.40     0.618 N 
ENDBRANCH   4   5
ENDBRANCH   3   4
ENDBRANCH   2   3
ENDBRANCH   1   2
END_RES LYS A 131
BEGIN_RES LYS A 135
REMARK  4 active torsions:
REMARK  status: ('A' for Active; 'I' for Inactive)
REMARK    5  A    between atoms: CA   and  CB  
REMARK    6  A    between atoms: CB   and  CG  
REMARK    7  A    between atoms: CG   and  CD  
REMARK    8  A    between atoms: CD   and  CE  
ROOT
ATOM      7  CA  LYS A 135      33.193  34.663   9.290  1.00 25.02     0.186 C 
ENDROOT
BRANCH   7   8
ATOM      8  CB  LYS A 135      32.060  35.360  10.034  1.00 26.63     0.034 C 
BRANCH   8   9
ATOM      9  CG  LYS A 135      30.745  34.628   9.952  1.00 29.45     0.005 C 
BRANCH   9  10
ATOM     10  CD  LYS A 135      30.293  34.497   8.506  1.00 32.00     0.041 C 
BRANCH  10  11
ATOM     11  CE  LYS A 135      28.783  34.383   8.429  1.00 34.25     0.338 C 
ATOM     12  NZ  LYS A 135      28.246  33.586   9.567  1.00 35.99     0.618 N 
ENDBRANCH  10  11
ENDBRANCH   9  10
ENDBRANCH   8   9
ENDBRANCH   7   8
END_RES LYS A 135
