REMARK VINA RESULT:    -4.384      4.931     10.710
REMARK INTER + INTRA:         -21.987
REMARK INTER:                 -10.623
REMARK INTRA:                 -11.364
REMARK UNBOUND:               -10.939
REMARK SMILES CC(=O)N[C@@H]1[C@@H](O)C[C@](OC[C@H]2O[C@@H](O[C@H]3[C@H](O)[C@@H](O)[C@H](OCCN=[N+]=[N-])O[C@@H]3CO)[C@H](O)[C@@H](O)[C@H]2O)(C(=O)O)O[C@H]1C(O)[C@H](O)CNC(=O)OCc1cn(Cc2ccsc2)nn1
REMARK SMILES IDX 9 1 8 2 6 3 5 4 42 5 41 6 10 7 11 8 12 9 14 10 13 11 32 12
REMARK SMILES IDX 34 13 36 14 15 15 16 16 29 17 28 18 21 19 17 20 19 21 30 22
REMARK SMILES IDX 31 23 22 25 23 26 24 27 25 28 26 29 27 30 18 31 20 33 33 35
REMARK SMILES IDX 35 37 37 39 38 41 39 42 40 43 7 45 43 47 44 48 45 50 46 51
REMARK SMILES IDX 47 53 48 54 49 55 50 57 51 58 52 59 53 60 54 61 63 62 55 63
REMARK SMILES IDX 62 64 56 65 57 66 58 67 61 68 59 69 60 70 4 71 2 72 1 74
REMARK SMILES IDX 3 75
REMARK H PARENT 31 24 18 32 20 34 33 36 35 38 37 40 40 44 7 46 44 49 46 52
REMARK H PARENT 48 56 4 73
REMARK Flexibility Score: inf
ROOT
ATOM      1  C   UNL     1      21.385  36.263   9.782  1.00  0.00     0.272 C 
ATOM      2  C   UNL     1      22.259  36.332   8.565  1.00  0.00     0.113 C 
ATOM      3  C   UNL     1      22.140  37.604   7.771  1.00  0.00     0.145 C 
ATOM      4  C   UNL     1      22.086  38.817   8.616  1.00  0.00     0.142 C 
ATOM      5  C   UNL     1      21.511  38.599  10.002  1.00  0.00     0.178 C 
ATOM      6  O   UNL     1      21.780  37.409  10.578  1.00  0.00    -0.332 OA
ENDROOT
BRANCH   1   7
ATOM      7  O   UNL     1      21.778  35.241  10.571  1.00  0.00    -0.338 OA
BRANCH   7   8
ATOM      8  C   UNL     1      23.027  34.889  10.815  1.00  0.00     0.199 C 
BRANCH   8   9
ATOM      9  C   UNL     1      23.553  34.486  12.129  1.00  0.00     0.179 C 
ATOM     10  C   UNL     1      25.596  34.232  13.097  1.00  0.00     0.282 C 
ATOM     11  O   UNL     1      24.875  35.066  12.212  1.00  0.00    -0.341 OA
ATOM     12  C   UNL     1      24.864  33.966  14.367  1.00  0.00     0.202 C 
ATOM     13  C   UNL     1      23.596  34.712  14.573  1.00  0.00     0.179 C 
ATOM     14  C   UNL     1      22.869  35.126  13.326  1.00  0.00     0.177 C 
BRANCH  10  15
ATOM     15  O   UNL     1      26.836  34.790  13.279  1.00  0.00    -0.341 OA
BRANCH  15  16
ATOM     16  C   UNL     1      26.922  36.130  12.867  1.00  0.00     0.184 C 
ATOM     17  C   UNL     1      28.161  36.398  12.090  1.00  0.00     0.178 C 
ATOM     18  O   UNL     1      29.228  36.907  12.763  1.00  0.00    -0.341 OA
ATOM     19  C   UNL     1      29.050  37.031  14.152  1.00  0.00     0.281 C 
ATOM     20  C   UNL     1      26.639  37.080  13.988  1.00  0.00     0.180 C 
ATOM     21  C   UNL     1      27.865  37.941  14.327  1.00  0.00     0.202 C 
BRANCH  17  22
ATOM     22  C   UNL     1      27.908  37.266  10.868  1.00  0.00     0.191 C 
BRANCH  22  23
ATOM     23  O   UNL     1      26.525  37.332  10.701  1.00  0.00    -0.394 OA
ATOM     24  H   UNL     1      26.239  38.224  10.342  1.00  0.00     0.210 HD
ENDBRANCH  22  23
ENDBRANCH  17  22
BRANCH  19  25
ATOM     25  O   UNL     1      30.228  37.490  14.675  1.00  0.00    -0.350 OA
BRANCH  25  26
ATOM     26  C   UNL     1      31.248  36.559  14.675  1.00  0.00     0.169 C 
BRANCH  26  27
ATOM     27  C   UNL     1      30.936  35.254  15.331  1.00  0.00     0.119 C 
BRANCH  27  28
ATOM     28  N   UNL     1      32.116  34.443  15.463  1.00  0.00    -0.092 NA
ATOM     29  N   UNL     1      33.023  34.588  14.628  1.00  0.00     0.001 N 
ATOM     30  N   UNL     1      34.096  34.586  14.026  1.00  0.00    -0.003 NA
ENDBRANCH  27  28
ENDBRANCH  26  27
ENDBRANCH  25  26
ENDBRANCH  19  25
BRANCH  20  31
ATOM     31  O   UNL     1      25.523  37.867  13.801  1.00  0.00    -0.387 OA
ATOM     32  H   UNL     1      25.728  38.816  13.927  1.00  0.00     0.211 HD
ENDBRANCH  20  31
BRANCH  21  33
ATOM     33  O   UNL     1      27.794  38.486  15.582  1.00  0.00    -0.385 OA
ATOM     34  H   UNL     1      27.579  39.459  15.566  1.00  0.00     0.211 HD
ENDBRANCH  21  33
ENDBRANCH  15  16
ENDBRANCH  10  15
BRANCH  12  35
ATOM     35  O   UNL     1      24.692  32.573  14.583  1.00  0.00    -0.385 OA
ATOM     36  H   UNL     1      24.080  32.429  15.351  1.00  0.00     0.211 HD
ENDBRANCH  12  35
BRANCH  13  37
ATOM     37  O   UNL     1      23.877  35.891  15.292  1.00  0.00    -0.387 OA
ATOM     38  H   UNL     1      23.063  36.446  15.303  1.00  0.00     0.211 HD
ENDBRANCH  13  37
BRANCH  14  39
ATOM     39  O   UNL     1      23.008  36.520  13.114  1.00  0.00    -0.387 OA
ATOM     40  H   UNL     1      23.737  36.595  12.424  1.00  0.00     0.211 HD
ENDBRANCH  14  39
ENDBRANCH   8   9
ENDBRANCH   7   8
ENDBRANCH   1   7
BRANCH   1  41
ATOM     41  C   UNL     1      19.960  36.479   9.536  1.00  0.00     0.364 C 
ATOM     42  O   UNL     1      19.435  36.359   8.412  1.00  0.00    -0.246 OA
BRANCH  41  43
ATOM     43  O   UNL     1      19.072  36.844  10.565  1.00  0.00    -0.477 OA
ATOM     44  H   UNL     1      19.281  37.616  11.183  1.00  0.00     0.296 HD
ENDBRANCH  41  43
ENDBRANCH   1  41
BRANCH   3  45
ATOM     45  O   UNL     1      23.340  37.654   7.010  1.00  0.00    -0.391 OA
ATOM     46  H   UNL     1      24.116  37.832   7.612  1.00  0.00     0.211 HD
ENDBRANCH   3  45
BRANCH   5  47
ATOM     47  C   UNL     1      22.142  39.654  10.944  1.00  0.00     0.176 C 
BRANCH  47  48
ATOM     48  O   UNL     1      21.617  40.907  10.632  1.00  0.00    -0.388 OA
ATOM     49  H   UNL     1      20.797  40.805  10.099  1.00  0.00     0.211 HD
ENDBRANCH  47  48
BRANCH  47  50
ATOM     50  C   UNL     1      23.605  39.681  10.683  1.00  0.00     0.165 C 
BRANCH  50  51
ATOM     51  O   UNL     1      24.256  38.935  11.664  1.00  0.00    -0.388 OA
ATOM     52  H   UNL     1      23.634  38.309  12.105  1.00  0.00     0.211 HD
ENDBRANCH  50  51
BRANCH  50  53
ATOM     53  C   UNL     1      24.216  41.058  10.671  1.00  0.00     0.154 C 
BRANCH  53  54
ATOM     54  N   UNL     1      25.295  41.192   9.740  1.00  0.00    -0.319 N 
ATOM     55  C   UNL     1      26.632  40.861   9.993  1.00  0.00     0.407 C 
ATOM     56  H   UNL     1      25.061  41.576   8.776  1.00  0.00     0.167 HD
ATOM     57  O   UNL     1      26.945  40.407  11.115  1.00  0.00    -0.225 OA
BRANCH  55  58
ATOM     58  O   UNL     1      27.575  41.042   9.004  1.00  0.00    -0.443 OA
BRANCH  58  59
ATOM     59  C   UNL     1      27.361  40.760   7.651  1.00  0.00     0.294 C 
BRANCH  59  60
ATOM     60  C   UNL     1      27.081  39.318   7.493  1.00  0.00     0.120 A 
ATOM     61  C   UNL     1      27.896  38.385   6.934  1.00  0.00     0.138 A 
ATOM     62  N   UNL     1      25.957  38.703   7.888  1.00  0.00    -0.132 NA
ATOM     63  N   UNL     1      27.247  37.209   6.999  1.00  0.00    -0.248 N 
ATOM     64  N   UNL     1      26.080  37.410   7.576  1.00  0.00    -0.067 NA
BRANCH  63  65
ATOM     65  C   UNL     1      27.759  35.951   6.516  1.00  0.00     0.182 C 
BRANCH  65  66
ATOM     66  C   UNL     1      28.278  35.146   7.715  1.00  0.00    -0.016 A 
ATOM     67  C   UNL     1      27.501  34.461   8.528  1.00  0.00     0.017 A 
ATOM     68  C   UNL     1      29.654  35.153   7.939  1.00  0.00     0.070 A 
ATOM     69  C   UNL     1      28.022  33.751   9.594  1.00  0.00     0.065 A 
ATOM     70  S   UNL     1      29.808  34.112   9.403  1.00  0.00    -0.152 S 
ENDBRANCH  65  66
ENDBRANCH  63  65
ENDBRANCH  59  60
ENDBRANCH  58  59
ENDBRANCH  55  58
ENDBRANCH  53  54
ENDBRANCH  50  53
ENDBRANCH  47  50
ENDBRANCH   5  47
BRANCH   4  71
ATOM     71  N   UNL     1      21.393  39.926   8.032  1.00  0.00    -0.348 N 
ATOM     72  C   UNL     1      22.058  40.964   7.329  1.00  0.00     0.217 C 
ATOM     73  H   UNL     1      20.355  39.995   8.114  1.00  0.00     0.163 HD
ATOM     74  C   UNL     1      21.345  42.126   6.715  1.00  0.00     0.114 C 
ATOM     75  O   UNL     1      23.316  40.848   7.249  1.00  0.00    -0.275 OA
ENDBRANCH   4  71
TORSDOF 31
BEGIN_RES LYS A 131
REMARK  4 active torsions:
REMARK  status: ('A' for Active; 'I' for Inactive)
REMARK    1  A    between atoms: CA   and  CB  
REMARK    2  A    between atoms: CB   and  CG  
REMARK    3  A    between atoms: CG   and  CD  
REMARK    4  A    between atoms: CD   and  CE  
ROOT
ATOM      1  CA  LYS A 131      29.867  25.555  16.977  1.00 20.52     0.186 C 
ENDROOT
BRANCH   1   2
ATOM      2  CB  LYS A 131      28.345  25.722  17.026  1.00 20.94     0.034 C 
BRANCH   2   3
ATOM      3  CG  LYS A 131      27.601  24.403  16.888  1.00 22.96     0.005 C 
BRANCH   3   4
ATOM      4  CD  LYS A 131      26.147  24.531  17.250  1.00 24.33     0.041 C 
BRANCH   4   5
ATOM      5  CE  LYS A 131      25.616  23.178  17.712  1.00 26.91     0.338 C 
ATOM      6  NZ  LYS A 131      24.266  22.933  17.152  1.00 27.40     0.618 N 
ENDBRANCH   4   5
ENDBRANCH   3   4
ENDBRANCH   2   3
ENDBRANCH   1   2
END_RES LYS A 131
BEGIN_RES LYS A 135
REMARK  4 active torsions:
REMARK  status: ('A' for Active; 'I' for Inactive)
REMARK    5  A    between atoms: CA   and  CB  
REMARK    6  A    between atoms: CB   and  CG  
REMARK    7  A    between atoms: CG   and  CD  
REMARK    8  A    between atoms: CD   and  CE  
ROOT
ATOM      7  CA  LYS A 135      33.193  34.663   9.290  1.00 25.02     0.186 C 
ENDROOT
BRANCH   7   8
ATOM      8  CB  LYS A 135      32.060  35.360  10.034  1.00 26.63     0.034 C 
BRANCH   8   9
ATOM      9  CG  LYS A 135      32.527  36.187  11.204  1.00 29.45     0.005 C 
BRANCH   9  10
ATOM     10  CD  LYS A 135      31.879  37.562  11.182  1.00 32.00     0.041 C 
BRANCH  10  11
ATOM     11  CE  LYS A 135      31.445  37.924   9.774  1.00 34.25     0.338 C 
ATOM     12  NZ  LYS A 135      32.180  39.120   9.277  1.00 35.99     0.618 N 
ENDBRANCH  10  11
ENDBRANCH   9  10
ENDBRANCH   8   9
ENDBRANCH   7   8
END_RES LYS A 135
