REMARK VINA RESULT:    -4.511      5.209     12.499
REMARK INTER + INTRA:         -22.345
REMARK INTER:                 -10.426
REMARK INTRA:                 -11.919
REMARK UNBOUND:               -11.242
REMARK SMILES CC(=O)N[C@@H]1[C@@H](O)C[C@](OC[C@H]2O[C@@H](O[C@H]3[C@H](O)[C@@H](O)[C@H](OCCN=[N+]=[N-])O[C@@H]3CO)[C@H](O)[C@@H](O)[C@H]2O)(C(=O)O)O[C@H]1C(O)[C@H](O)CNC(=O)OCc1cn(-c2c(C)cc(C)cc2C)nn1
REMARK SMILES IDX 9 1 8 2 6 3 5 4 42 5 41 6 10 7 11 8 12 9 14 10 13 11 32 12
REMARK SMILES IDX 34 13 36 14 15 15 16 16 29 17 28 18 21 19 17 20 19 21 30 22
REMARK SMILES IDX 31 23 22 25 23 26 24 27 25 28 26 29 27 30 18 31 20 33 33 35
REMARK SMILES IDX 35 37 37 39 38 41 39 42 40 43 7 45 43 47 44 48 45 50 46 51
REMARK SMILES IDX 47 53 48 54 49 55 50 57 51 58 52 59 53 60 54 61 66 62 55 63
REMARK SMILES IDX 65 64 56 65 57 66 63 67 58 68 59 69 62 70 64 71 60 72 61 73
REMARK SMILES IDX 4 74 2 75 1 77 3 78
REMARK H PARENT 31 24 18 32 20 34 33 36 35 38 37 40 40 44 7 46 44 49 46 52
REMARK H PARENT 48 56 4 76
REMARK Flexibility Score: inf
ROOT
ATOM      1  C   UNL     1      31.303  35.120  15.009  1.00  0.00     0.272 C 
ATOM      2  C   UNL     1      31.913  33.823  15.374  1.00  0.00     0.113 C 
ATOM      3  C   UNL     1      31.657  33.329  16.777  1.00  0.00     0.145 C 
ATOM      4  C   UNL     1      31.580  34.488  17.720  1.00  0.00     0.142 C 
ATOM      5  C   UNL     1      32.369  35.617  17.043  1.00  0.00     0.178 C 
ATOM      6  O   UNL     1      31.538  36.092  15.992  1.00  0.00    -0.332 OA
ENDROOT
BRANCH   1   7
ATOM      7  O   UNL     1      29.987  35.127  14.659  1.00  0.00    -0.338 OA
BRANCH   7   8
ATOM      8  C   UNL     1      29.508  34.231  13.775  1.00  0.00     0.199 C 
BRANCH   8   9
ATOM      9  C   UNL     1      28.049  33.940  14.157  1.00  0.00     0.179 C 
ATOM     10  C   UNL     1      26.842  33.648  16.096  1.00  0.00     0.282 C 
ATOM     11  O   UNL     1      27.984  33.309  15.385  1.00  0.00    -0.341 OA
ATOM     12  C   UNL     1      27.018  35.087  16.505  1.00  0.00     0.202 C 
ATOM     13  C   UNL     1      26.972  35.899  15.219  1.00  0.00     0.179 C 
ATOM     14  C   UNL     1      27.140  35.098  13.976  1.00  0.00     0.177 C 
BRANCH  10  15
ATOM     15  O   UNL     1      26.526  32.786  17.076  1.00  0.00    -0.341 OA
BRANCH  15  16
ATOM     16  C   UNL     1      27.423  31.855  17.458  1.00  0.00     0.184 C 
ATOM     17  C   UNL     1      26.787  30.479  17.383  1.00  0.00     0.178 C 
ATOM     18  O   UNL     1      26.425  29.988  18.602  1.00  0.00    -0.341 OA
ATOM     19  C   UNL     1      27.477  29.783  19.481  1.00  0.00     0.281 C 
ATOM     20  C   UNL     1      27.839  32.138  18.905  1.00  0.00     0.180 C 
ATOM     21  C   UNL     1      28.460  30.896  19.519  1.00  0.00     0.202 C 
BRANCH  17  22
ATOM     22  C   UNL     1      27.654  29.521  16.583  1.00  0.00     0.191 C 
BRANCH  22  23
ATOM     23  O   UNL     1      28.908  30.078  16.344  1.00  0.00    -0.394 OA
ATOM     24  H   UNL     1      28.902  30.785  15.659  1.00  0.00     0.210 HD
ENDBRANCH  22  23
ENDBRANCH  17  22
BRANCH  19  25
ATOM     25  O   UNL     1      28.145  28.583  19.198  1.00  0.00    -0.350 OA
BRANCH  25  26
ATOM     26  C   UNL     1      28.198  27.717  20.260  1.00  0.00     0.169 C 
BRANCH  26  27
ATOM     27  C   UNL     1      29.573  27.398  20.758  1.00  0.00     0.119 C 
BRANCH  27  28
ATOM     28  N   UNL     1      30.050  28.376  21.720  1.00  0.00    -0.092 NA
ATOM     29  N   UNL     1      30.947  29.187  21.415  1.00  0.00     0.001 N 
ATOM     30  N   UNL     1      31.788  29.935  20.902  1.00  0.00    -0.003 NA
ENDBRANCH  27  28
ENDBRANCH  26  27
ENDBRANCH  25  26
ENDBRANCH  19  25
BRANCH  20  31
ATOM     31  O   UNL     1      28.744  33.164  19.016  1.00  0.00    -0.387 OA
ATOM     32  H   UNL     1      28.399  34.055  18.753  1.00  0.00     0.211 HD
ENDBRANCH  20  31
BRANCH  21  33
ATOM     33  O   UNL     1      28.748  31.203  20.847  1.00  0.00    -0.385 OA
ATOM     34  H   UNL     1      28.126  30.730  21.468  1.00  0.00     0.211 HD
ENDBRANCH  21  33
ENDBRANCH  15  16
ENDBRANCH  10  15
BRANCH  12  35
ATOM     35  O   UNL     1      25.984  35.544  17.317  1.00  0.00    -0.385 OA
ATOM     36  H   UNL     1      25.257  34.851  17.277  1.00  0.00     0.211 HD
ENDBRANCH  12  35
BRANCH  13  37
ATOM     37  O   UNL     1      27.922  36.918  15.230  1.00  0.00    -0.387 OA
ATOM     38  H   UNL     1      28.844  36.597  15.054  1.00  0.00     0.211 HD
ENDBRANCH  13  37
BRANCH  14  39
ATOM     39  O   UNL     1      27.663  35.964  12.985  1.00  0.00    -0.387 OA
ATOM     40  H   UNL     1      27.603  36.902  13.278  1.00  0.00     0.211 HD
ENDBRANCH  14  39
ENDBRANCH   8   9
ENDBRANCH   7   8
ENDBRANCH   1   7
BRANCH   1  41
ATOM     41  C   UNL     1      32.106  35.644  13.839  1.00  0.00     0.364 C 
ATOM     42  O   UNL     1      32.909  34.889  13.282  1.00  0.00    -0.246 OA
BRANCH  41  43
ATOM     43  O   UNL     1      31.959  36.941  13.386  1.00  0.00    -0.477 OA
ATOM     44  H   UNL     1      31.415  37.651  13.843  1.00  0.00     0.296 HD
ENDBRANCH  41  43
ENDBRANCH   1  41
BRANCH   3  45
ATOM     45  O   UNL     1      30.496  32.558  16.734  1.00  0.00    -0.391 OA
ATOM     46  H   UNL     1      30.660  31.770  16.122  1.00  0.00     0.211 HD
ENDBRANCH   3  45
BRANCH   5  47
ATOM     47  C   UNL     1      32.606  36.805  17.888  1.00  0.00     0.176 C 
BRANCH  47  48
ATOM     48  O   UNL     1      31.305  37.353  18.187  1.00  0.00    -0.388 OA
ATOM     49  H   UNL     1      31.365  38.342  18.146  1.00  0.00     0.211 HD
ENDBRANCH  47  48
BRANCH  47  50
ATOM     50  C   UNL     1      33.298  37.994  17.249  1.00  0.00     0.165 C 
BRANCH  50  51
ATOM     51  O   UNL     1      34.405  38.208  18.157  1.00  0.00    -0.388 OA
ATOM     52  H   UNL     1      34.218  37.750  18.999  1.00  0.00     0.211 HD
ENDBRANCH  50  51
BRANCH  50  53
ATOM     53  C   UNL     1      32.493  39.261  17.408  1.00  0.00     0.154 C 
BRANCH  53  54
ATOM     54  N   UNL     1      32.195  39.975  16.205  1.00  0.00    -0.319 N 
ATOM     55  C   UNL     1      30.915  39.818  15.591  1.00  0.00     0.407 C 
ATOM     56  H   UNL     1      32.912  40.616  15.760  1.00  0.00     0.167 HD
ATOM     57  O   UNL     1      30.110  39.029  16.159  1.00  0.00    -0.225 OA
BRANCH  55  58
ATOM     58  O   UNL     1      30.555  40.490  14.429  1.00  0.00    -0.443 OA
BRANCH  58  59
ATOM     59  C   UNL     1      29.282  40.350  13.845  1.00  0.00     0.294 C 
BRANCH  59  60
ATOM     60  C   UNL     1      29.247  39.393  12.706  1.00  0.00     0.121 A 
ATOM     61  C   UNL     1      28.939  39.642  11.388  1.00  0.00     0.144 A 
ATOM     62  N   UNL     1      29.518  38.056  12.761  1.00  0.00    -0.131 NA
ATOM     63  N   UNL     1      29.026  38.495  10.694  1.00  0.00    -0.220 N 
ATOM     64  N   UNL     1      29.381  37.560  11.573  1.00  0.00    -0.062 NA
BRANCH  63  65
ATOM     65  C   UNL     1      28.785  38.272   9.291  1.00  0.00     0.072 A 
ATOM     66  C   UNL     1      27.494  37.989   8.920  1.00  0.00    -0.025 A 
ATOM     67  C   UNL     1      29.806  38.341   8.408  1.00  0.00    -0.025 A 
ATOM     68  C   UNL     1      26.387  37.919   9.935  1.00  0.00     0.047 C 
ATOM     69  C   UNL     1      27.244  37.768   7.581  1.00  0.00     0.009 A 
ATOM     70  C   UNL     1      29.504  38.109   7.062  1.00  0.00     0.009 A 
ATOM     71  C   UNL     1      31.214  38.647   8.772  1.00  0.00     0.047 C 
ATOM     72  C   UNL     1      28.232  37.822   6.631  1.00  0.00    -0.050 A 
ATOM     73  C   UNL     1      27.897  37.577   5.206  1.00  0.00     0.044 C 
ENDBRANCH  63  65
ENDBRANCH  59  60
ENDBRANCH  58  59
ENDBRANCH  55  58
ENDBRANCH  53  54
ENDBRANCH  50  53
ENDBRANCH  47  50
ENDBRANCH   5  47
BRANCH   4  74
ATOM     74  N   UNL     1      31.958  34.248  19.045  1.00  0.00    -0.348 N 
ATOM     75  C   UNL     1      31.199  34.682  20.169  1.00  0.00     0.217 C 
ATOM     76  H   UNL     1      32.819  33.710  19.250  1.00  0.00     0.163 HD
ATOM     77  C   UNL     1      31.630  34.406  21.574  1.00  0.00     0.114 C 
ATOM     78  O   UNL     1      30.148  35.305  19.945  1.00  0.00    -0.275 OA
ENDBRANCH   4  74
TORSDOF 30
BEGIN_RES LYS A 131
REMARK  4 active torsions:
REMARK  status: ('A' for Active; 'I' for Inactive)
REMARK    1  A    between atoms: CA   and  CB  
REMARK    2  A    between atoms: CB   and  CG  
REMARK    3  A    between atoms: CG   and  CD  
REMARK    4  A    between atoms: CD   and  CE  
ROOT
ATOM      1  CA  LYS A 131      29.867  25.555  16.977  1.00 20.52     0.186 C 
ENDROOT
BRANCH   1   2
ATOM      2  CB  LYS A 131      28.345  25.722  17.026  1.00 20.94     0.034 C 
BRANCH   2   3
ATOM      3  CG  LYS A 131      27.601  24.402  16.890  1.00 22.96     0.005 C 
BRANCH   3   4
ATOM      4  CD  LYS A 131      26.319  24.392  17.675  1.00 24.33     0.041 C 
BRANCH   4   5
ATOM      5  CE  LYS A 131      25.662  23.020  17.558  1.00 26.91     0.338 C 
ATOM      6  NZ  LYS A 131      24.246  23.156  17.144  1.00 27.40     0.618 N 
ENDBRANCH   4   5
ENDBRANCH   3   4
ENDBRANCH   2   3
ENDBRANCH   1   2
END_RES LYS A 131
BEGIN_RES LYS A 135
REMARK  4 active torsions:
REMARK  status: ('A' for Active; 'I' for Inactive)
REMARK    5  A    between atoms: CA   and  CB  
REMARK    6  A    between atoms: CB   and  CG  
REMARK    7  A    between atoms: CG   and  CD  
REMARK    8  A    between atoms: CD   and  CE  
ROOT
ATOM      7  CA  LYS A 135      33.193  34.663   9.290  1.00 25.02     0.186 C 
ENDROOT
BRANCH   7   8
ATOM      8  CB  LYS A 135      32.060  35.360  10.034  1.00 26.63     0.034 C 
BRANCH   8   9
ATOM      9  CG  LYS A 135      30.732  34.660   9.902  1.00 29.45     0.005 C 
BRANCH   9  10
ATOM     10  CD  LYS A 135      30.323  34.557   8.441  1.00 32.00     0.041 C 
BRANCH  10  11
ATOM     11  CE  LYS A 135      28.812  34.531   8.312  1.00 34.25     0.338 C 
ATOM     12  NZ  LYS A 135      28.188  33.803   9.451  1.00 35.99     0.618 N 
ENDBRANCH  10  11
ENDBRANCH   9  10
ENDBRANCH   8   9
ENDBRANCH   7   8
END_RES LYS A 135
