REMARK VINA RESULT:    -3.907      2.736      7.160
REMARK INTER + INTRA:         -22.616
REMARK INTER:                 -10.450
REMARK INTRA:                 -12.166
REMARK UNBOUND:               -11.857
REMARK SMILES CC[N+](C)(CC)CCCn1cc(COC(=O)NC[C@@H](O)C(O)[C@@H]2O[C@@](OC[C@H]3O[C@@H](O[C@H]4[C@H](O)[C@@H](O)[C@H](OCCN=[N+]=[N-])O[C@@H]4CO)[C@H](O)[C@@H](O)[C@H]3O)(C(=O)O)C[C@H](O)[C@H]2NC(C)=O)nn1
REMARK SMILES IDX 21 1 23 2 25 3 57 4 24 5 58 6 60 7 26 8 27 9 28 10 30 11
REMARK SMILES IDX 29 12 48 13 50 14 52 15 31 16 32 17 45 18 44 19 37 20 33 21
REMARK SMILES IDX 35 22 46 23 47 24 38 26 39 27 40 28 41 29 42 30 43 31 34 32
REMARK SMILES IDX 36 34 49 36 51 38 53 40 54 42 55 43 56 44 59 46 61 48 62 49
REMARK SMILES IDX 63 51 64 52 22 53 19 55 20 56 18 58 17 59 15 60 16 62 14 63
REMARK SMILES IDX 13 64 12 65 11 66 65 67 10 68 66 69 9 70 8 71 7 72 3 73 4 74
REMARK SMILES IDX 2 75 1 76 5 77 6 78
REMARK H PARENT 47 25 34 33 36 35 49 37 51 39 53 41 56 45 59 47 61 50 22 54
REMARK H PARENT 20 57 17 61
REMARK Flexibility Score: inf
ROOT
ATOM      1  C   UNL     1      25.243  31.247  18.684  1.00  0.00     0.176 C 
ENDROOT
BRANCH   1   2
ATOM      2  C   UNL     1      25.635  29.777  18.794  1.00  0.00     0.178 C 
ATOM      3  C   UNL     1      27.256  28.423  19.844  1.00  0.00     0.272 C 
ATOM      4  C   UNL     1      27.095  27.572  18.628  1.00  0.00     0.113 C 
ATOM      5  O   UNL     1      26.842  29.727  19.455  1.00  0.00    -0.332 OA
ATOM      6  C   UNL     1      26.993  28.383  17.363  1.00  0.00     0.145 C 
ATOM      7  C   UNL     1      25.694  29.183  17.423  1.00  0.00     0.142 C 
BRANCH   3   8
ATOM      8  O   UNL     1      28.567  28.619  20.224  1.00  0.00    -0.338 OA
BRANCH   8   9
ATOM      9  C   UNL     1      29.281  27.610  20.749  1.00  0.00     0.199 C 
BRANCH   9  10
ATOM     10  C   UNL     1      30.802  27.908  20.680  1.00  0.00     0.179 C 
ATOM     11  C   UNL     1      31.036  29.616  22.290  1.00  0.00     0.282 C 
ATOM     12  O   UNL     1      31.108  29.179  20.973  1.00  0.00    -0.341 OA
ATOM     13  C   UNL     1      31.358  28.572  23.291  1.00  0.00     0.202 C 
ATOM     14  C   UNL     1      32.365  27.639  22.583  1.00  0.00     0.179 C 
ATOM     15  C   UNL     1      31.531  26.895  21.564  1.00  0.00     0.177 C 
BRANCH  11  16
ATOM     16  O   UNL     1      29.850  30.333  22.503  1.00  0.00    -0.341 OA
BRANCH  16  17
ATOM     17  C   UNL     1      30.024  31.682  22.405  1.00  0.00     0.184 C 
ATOM     18  C   UNL     1      29.722  32.551  23.547  1.00  0.00     0.178 C 
ATOM     19  O   UNL     1      30.235  33.814  23.315  1.00  0.00    -0.341 OA
ATOM     20  C   UNL     1      30.513  34.199  22.053  1.00  0.00     0.281 C 
ATOM     21  C   UNL     1      29.192  32.246  21.230  1.00  0.00     0.180 C 
ATOM     22  C   UNL     1      29.638  33.657  20.951  1.00  0.00     0.202 C 
BRANCH  18  23
ATOM     23  C   UNL     1      30.234  32.092  24.898  1.00  0.00     0.191 C 
BRANCH  23  24
ATOM     24  O   UNL     1      29.680  30.890  25.319  1.00  0.00    -0.394 OA
ATOM     25  H   UNL     1      30.164  30.644  26.172  1.00  0.00     0.210 HD
ENDBRANCH  23  24
ENDBRANCH  18  23
BRANCH  20  26
ATOM     26  O   UNL     1      31.861  34.067  21.772  1.00  0.00    -0.350 OA
BRANCH  26  27
ATOM     27  C   UNL     1      32.207  34.125  20.463  1.00  0.00     0.169 C 
BRANCH  27  28
ATOM     28  C   UNL     1      33.109  35.292  20.117  1.00  0.00     0.119 C 
BRANCH  28  29
ATOM     29  N   UNL     1      32.306  36.494  19.969  1.00  0.00    -0.092 NA
ATOM     30  N   UNL     1      31.221  36.509  19.393  1.00  0.00     0.001 N 
ATOM     31  N   UNL     1      30.120  36.541  18.840  1.00  0.00    -0.003 NA
ENDBRANCH  28  29
ENDBRANCH  27  28
ENDBRANCH  26  27
ENDBRANCH  20  26
BRANCH  21  32
ATOM     32  O   UNL     1      29.335  31.365  20.184  1.00  0.00    -0.387 OA
ATOM     33  H   UNL     1      29.007  30.465  20.341  1.00  0.00     0.211 HD
ENDBRANCH  21  32
BRANCH  22  34
ATOM     34  O   UNL     1      28.520  34.440  20.712  1.00  0.00    -0.385 OA
ATOM     35  H   UNL     1      27.660  33.981  20.896  1.00  0.00     0.211 HD
ENDBRANCH  22  34
ENDBRANCH  16  17
ENDBRANCH  11  16
BRANCH  13  36
ATOM     36  O   UNL     1      32.027  29.061  24.424  1.00  0.00    -0.385 OA
ATOM     37  H   UNL     1      32.578  28.327  24.771  1.00  0.00     0.211 HD
ENDBRANCH  13  36
BRANCH  14  38
ATOM     38  O   UNL     1      32.907  26.752  23.513  1.00  0.00    -0.387 OA
ATOM     39  H   UNL     1      32.822  27.175  24.392  1.00  0.00     0.211 HD
ENDBRANCH  14  38
BRANCH  15  40
ATOM     40  O   UNL     1      30.554  26.216  22.289  1.00  0.00    -0.387 OA
ATOM     41  H   UNL     1      29.846  25.816  21.763  1.00  0.00     0.211 HD
ENDBRANCH  15  40
ENDBRANCH   9  10
ENDBRANCH   8   9
ENDBRANCH   3   8
BRANCH   3  42
ATOM     42  C   UNL     1      26.462  27.993  21.007  1.00  0.00     0.364 C 
ATOM     43  O   UNL     1      26.342  28.708  22.026  1.00  0.00    -0.246 OA
BRANCH  42  44
ATOM     44  O   UNL     1      25.821  26.778  21.014  1.00  0.00    -0.477 OA
ATOM     45  H   UNL     1      26.207  25.938  20.587  1.00  0.00     0.296 HD
ENDBRANCH  42  44
ENDBRANCH   3  42
BRANCH   6  46
ATOM     46  O   UNL     1      28.050  29.241  17.173  1.00  0.00    -0.391 OA
ATOM     47  H   UNL     1      27.922  29.821  16.361  1.00  0.00     0.211 HD
ENDBRANCH   6  46
BRANCH   7  48
ATOM     48  N   UNL     1      24.631  28.171  17.301  1.00  0.00    -0.348 N 
ATOM     49  C   UNL     1      23.519  28.365  16.435  1.00  0.00     0.217 C 
ATOM     50  H   UNL     1      24.629  27.278  17.835  1.00  0.00     0.163 HD
ATOM     51  C   UNL     1      22.427  27.372  16.278  1.00  0.00     0.114 C 
ATOM     52  O   UNL     1      23.464  29.417  15.775  1.00  0.00    -0.275 OA
ENDBRANCH   7  48
ENDBRANCH   1   2
BRANCH   1  53
ATOM     53  O   UNL     1      24.980  31.539  17.302  1.00  0.00    -0.388 OA
ATOM     54  H   UNL     1      24.278  30.898  17.014  1.00  0.00     0.211 HD
ENDBRANCH   1  53
BRANCH   1  55
ATOM     55  C   UNL     1      26.373  32.136  19.091  1.00  0.00     0.165 C 
BRANCH  55  56
ATOM     56  O   UNL     1      25.737  33.060  20.021  1.00  0.00    -0.388 OA
ATOM     57  H   UNL     1      24.989  32.552  20.463  1.00  0.00     0.211 HD
ENDBRANCH  55  56
BRANCH  55  58
ATOM     58  C   UNL     1      27.026  32.952  18.038  1.00  0.00     0.154 C 
BRANCH  58  59
ATOM     59  N   UNL     1      28.132  32.509  17.316  1.00  0.00    -0.319 N 
ATOM     60  C   UNL     1      28.163  31.874  16.053  1.00  0.00     0.407 C 
ATOM     61  H   UNL     1      29.121  32.663  17.776  1.00  0.00     0.167 HD
ATOM     62  O   UNL     1      27.150  31.616  15.385  1.00  0.00    -0.225 OA
BRANCH  60  63
ATOM     63  O   UNL     1      29.404  31.486  15.491  1.00  0.00    -0.443 OA
BRANCH  63  64
ATOM     64  C   UNL     1      30.513  31.355  16.401  1.00  0.00     0.294 C 
BRANCH  64  65
ATOM     65  C   UNL     1      31.258  32.656  16.213  1.00  0.00     0.120 A 
ATOM     66  C   UNL     1      31.891  33.084  15.071  1.00  0.00     0.138 A 
ATOM     67  N   UNL     1      31.408  33.661  17.083  1.00  0.00    -0.132 NA
ATOM     68  N   UNL     1      32.402  34.339  15.292  1.00  0.00    -0.252 N 
ATOM     69  N   UNL     1      32.084  34.649  16.535  1.00  0.00    -0.067 NA
BRANCH  68  70
ATOM     70  C   UNL     1      33.102  35.152  14.314  1.00  0.00     0.152 C 
BRANCH  70  71
ATOM     71  C   UNL     1      32.316  35.382  13.096  1.00  0.00     0.085 C 
BRANCH  71  72
ATOM     72  C   UNL     1      31.386  36.520  13.006  1.00  0.00     0.265 C 
BRANCH  72  73
ATOM     73  N   UNL     1      29.984  36.271  13.041  1.00  0.00    -0.326 N 
ATOM     74  C   UNL     1      29.715  34.889  12.746  1.00  0.00     0.334 C 
BRANCH  73  75
ATOM     75  C   UNL     1      29.177  37.138  12.230  1.00  0.00     0.260 C 
ATOM     76  C   UNL     1      28.032  36.421  11.555  1.00  0.00     0.071 C 
ENDBRANCH  73  75
BRANCH  73  77
ATOM     77  C   UNL     1      29.575  36.453  14.443  1.00  0.00     0.260 C 
ATOM     78  C   UNL     1      28.813  35.306  15.006  1.00  0.00     0.071 C 
ENDBRANCH  73  77
ENDBRANCH  72  73
ENDBRANCH  71  72
ENDBRANCH  70  71
ENDBRANCH  68  70
ENDBRANCH  64  65
ENDBRANCH  63  64
ENDBRANCH  60  63
ENDBRANCH  58  59
ENDBRANCH  55  58
ENDBRANCH   1  55
TORSDOF 35
BEGIN_RES LYS A 131
REMARK  4 active torsions:
REMARK  status: ('A' for Active; 'I' for Inactive)
REMARK    1  A    between atoms: CA   and  CB  
REMARK    2  A    between atoms: CB   and  CG  
REMARK    3  A    between atoms: CG   and  CD  
REMARK    4  A    between atoms: CD   and  CE  
ROOT
ATOM      1  CA  LYS A 131      29.867  25.555  16.977  1.00 20.52     0.186 C 
ENDROOT
BRANCH   1   2
ATOM      2  CB  LYS A 131      28.345  25.722  17.026  1.00 20.94     0.034 C 
BRANCH   2   3
ATOM      3  CG  LYS A 131      27.599  24.479  16.565  1.00 22.96     0.005 C 
BRANCH   3   4
ATOM      4  CD  LYS A 131      26.930  23.764  17.706  1.00 24.33     0.041 C 
BRANCH   4   5
ATOM      5  CE  LYS A 131      25.422  23.745  17.480  1.00 26.91     0.338 C 
ATOM      6  NZ  LYS A 131      24.757  24.765  18.327  1.00 27.40     0.618 N 
ENDBRANCH   4   5
ENDBRANCH   3   4
ENDBRANCH   2   3
ENDBRANCH   1   2
END_RES LYS A 131
BEGIN_RES LYS A 135
REMARK  4 active torsions:
REMARK  status: ('A' for Active; 'I' for Inactive)
REMARK    5  A    between atoms: CA   and  CB  
REMARK    6  A    between atoms: CB   and  CG  
REMARK    7  A    between atoms: CG   and  CD  
REMARK    8  A    between atoms: CD   and  CE  
ROOT
ATOM      7  CA  LYS A 135      33.193  34.663   9.290  1.00 25.02     0.186 C 
ENDROOT
BRANCH   7   8
ATOM      8  CB  LYS A 135      32.060  35.360  10.034  1.00 26.63     0.034 C 
BRANCH   8   9
ATOM      9  CG  LYS A 135      30.817  35.545   9.202  1.00 29.45     0.005 C 
BRANCH   9  10
ATOM     10  CD  LYS A 135      30.066  34.230   9.060  1.00 32.00     0.041 C 
BRANCH  10  11
ATOM     11  CE  LYS A 135      28.733  34.450   8.372  1.00 34.25     0.338 C 
ATOM     12  NZ  LYS A 135      28.886  35.317   7.171  1.00 35.99     0.618 N 
ENDBRANCH  10  11
ENDBRANCH   9  10
ENDBRANCH   8   9
ENDBRANCH   7   8
END_RES LYS A 135
