REMARK VINA RESULT:    -4.699      3.827     10.050
REMARK INTER + INTRA:         -25.210
REMARK INTER:                 -12.649
REMARK INTRA:                 -12.561
REMARK UNBOUND:               -12.132
REMARK SMILES CCOCCc1c(-c2ccccc2)nc(N)nc1-n1cc(COC(=O)NC[C@@H](O)C(O)[C@@H]2O[C@@](OC[C@H]3O[C@@H](O[C@H]4[C@H](O)[C@@H](O)[C@H](OCCN=[N+]=[N-])O[C@@H]4CO)[C@H](O)[C@@H](O)[C@H]3O)(C(=O)O)C[C@H](O)[C@H]2NC(C)=O)nn1
REMARK SMILES IDX 30 1 32 2 34 3 66 4 33 5 67 6 69 7 35 8 36 9 37 10 39 11
REMARK SMILES IDX 38 12 57 13 59 14 61 15 40 16 41 17 54 18 53 19 46 20 42 21
REMARK SMILES IDX 44 22 55 23 56 24 47 26 48 27 49 28 50 29 51 30 52 31 43 32
REMARK SMILES IDX 45 34 58 36 60 38 62 40 63 42 64 43 65 44 68 46 70 48 71 49
REMARK SMILES IDX 72 51 73 52 31 53 28 55 29 56 27 58 26 59 24 60 25 62 23 63
REMARK SMILES IDX 22 64 21 65 20 66 74 67 19 68 75 69 18 70 17 71 6 72 15 73
REMARK SMILES IDX 7 74 14 75 5 76 4 77 3 78 2 79 1 80 16 81 8 84 9 85 13 86
REMARK SMILES IDX 10 87 12 88 11 89
REMARK H PARENT 56 25 43 33 45 35 58 37 60 39 62 41 65 45 68 47 70 50 31 54
REMARK H PARENT 29 57 26 61 16 82 16 83
REMARK Flexibility Score: inf
ROOT
ATOM      1  C   UNL     1      22.625  36.759   9.703  1.00  0.00     0.176 C 
ENDROOT
BRANCH   1   2
ATOM      2  C   UNL     1      23.885  36.627   8.902  1.00  0.00     0.178 C 
ATOM      3  C   UNL     1      26.138  36.194   9.365  1.00  0.00     0.272 C 
ATOM      4  C   UNL     1      26.229  36.289   7.841  1.00  0.00     0.113 C 
ATOM      5  O   UNL     1      24.869  36.140   9.815  1.00  0.00    -0.332 OA
ATOM      6  C   UNL     1      25.501  37.481   7.297  1.00  0.00     0.145 C 
ATOM      7  C   UNL     1      24.444  37.876   8.312  1.00  0.00     0.142 C 
BRANCH   3   8
ATOM      8  O   UNL     1      26.900  37.221   9.878  1.00  0.00    -0.338 OA
BRANCH   8   9
ATOM      9  C   UNL     1      26.517  37.699  11.103  1.00  0.00     0.199 C 
BRANCH   9  10
ATOM     10  C   UNL     1      27.671  38.341  11.860  1.00  0.00     0.179 C 
ATOM     11  C   UNL     1      29.946  37.859  12.050  1.00  0.00     0.282 C 
ATOM     12  O   UNL     1      28.657  37.409  11.998  1.00  0.00    -0.341 OA
ATOM     13  C   UNL     1      30.185  38.628  10.745  1.00  0.00     0.202 C 
ATOM     14  C   UNL     1      29.416  39.934  10.940  1.00  0.00     0.179 C 
ATOM     15  C   UNL     1      28.029  39.704  11.429  1.00  0.00     0.177 C 
BRANCH  11  16
ATOM     16  O   UNL     1      30.813  36.802  12.204  1.00  0.00    -0.341 OA
BRANCH  16  17
ATOM     17  C   UNL     1      30.697  36.200  13.446  1.00  0.00     0.184 C 
ATOM     18  C   UNL     1      31.871  36.509  14.312  1.00  0.00     0.178 C 
ATOM     19  O   UNL     1      32.717  35.481  14.589  1.00  0.00    -0.341 OA
ATOM     20  C   UNL     1      32.196  34.269  14.916  1.00  0.00     0.281 C 
ATOM     21  C   UNL     1      30.402  34.735  13.324  1.00  0.00     0.180 C 
ATOM     22  C   UNL     1      30.751  34.045  14.616  1.00  0.00     0.202 C 
BRANCH  18  23
ATOM     23  C   UNL     1      31.460  37.279  15.568  1.00  0.00     0.191 C 
BRANCH  23  24
ATOM     24  O   UNL     1      31.847  38.606  15.495  1.00  0.00    -0.394 OA
ATOM     25  H   UNL     1      32.817  38.620  15.293  1.00  0.00     0.210 HD
ENDBRANCH  23  24
ENDBRANCH  18  23
BRANCH  20  26
ATOM     26  O   UNL     1      32.414  34.068  16.275  1.00  0.00    -0.350 OA
BRANCH  26  27
ATOM     27  C   UNL     1      31.267  33.972  17.024  1.00  0.00     0.169 C 
BRANCH  27  28
ATOM     28  C   UNL     1      31.337  34.679  18.355  1.00  0.00     0.119 C 
BRANCH  28  29
ATOM     29  N   UNL     1      31.551  33.685  19.405  1.00  0.00    -0.092 NA
ATOM     30  N   UNL     1      30.816  32.696  19.518  1.00  0.00     0.001 N 
ATOM     31  N   UNL     1      29.931  31.844  19.580  1.00  0.00    -0.003 NA
ENDBRANCH  28  29
ENDBRANCH  27  28
ENDBRANCH  26  27
ENDBRANCH  20  26
BRANCH  21  32
ATOM     32  O   UNL     1      29.054  34.484  13.051  1.00  0.00    -0.387 OA
ATOM     33  H   UNL     1      28.461  34.846  13.764  1.00  0.00     0.211 HD
ENDBRANCH  21  32
BRANCH  22  34
ATOM     34  O   UNL     1      30.545  32.679  14.433  1.00  0.00    -0.385 OA
ATOM     35  H   UNL     1      30.242  32.464  13.515  1.00  0.00     0.211 HD
ENDBRANCH  22  34
ENDBRANCH  16  17
ENDBRANCH  11  16
BRANCH  13  36
ATOM     36  O   UNL     1      31.514  38.896  10.522  1.00  0.00    -0.385 OA
ATOM     37  H   UNL     1      32.057  38.792  11.351  1.00  0.00     0.211 HD
ENDBRANCH  13  36
BRANCH  14  38
ATOM     38  O   UNL     1      29.526  40.792   9.869  1.00  0.00    -0.387 OA
ATOM     39  H   UNL     1      28.655  40.884   9.375  1.00  0.00     0.211 HD
ENDBRANCH  14  38
BRANCH  15  40
ATOM     40  O   UNL     1      27.148  40.101  10.400  1.00  0.00    -0.387 OA
ATOM     41  H   UNL     1      26.845  39.297   9.906  1.00  0.00     0.211 HD
ENDBRANCH  15  40
ENDBRANCH   9  10
ENDBRANCH   8   9
ENDBRANCH   3   8
BRANCH   3  42
ATOM     42  C   UNL     1      26.808  34.889   9.667  1.00  0.00     0.364 C 
ATOM     43  O   UNL     1      26.763  34.032   8.716  1.00  0.00    -0.246 OA
BRANCH  42  44
ATOM     44  O   UNL     1      27.437  34.569  10.836  1.00  0.00    -0.477 OA
ATOM     45  H   UNL     1      26.979  33.948  11.496  1.00  0.00     0.296 HD
ENDBRANCH  42  44
ENDBRANCH   3  42
BRANCH   6  46
ATOM     46  O   UNL     1      26.453  38.496   7.119  1.00  0.00    -0.391 OA
ATOM     47  H   UNL     1      26.084  39.260   6.632  1.00  0.00     0.211 HD
ENDBRANCH   6  46
BRANCH   7  48
ATOM     48  N   UNL     1      23.510  38.809   7.764  1.00  0.00    -0.348 N 
ATOM     49  C   UNL     1      23.667  40.218   7.834  1.00  0.00     0.217 C 
ATOM     50  H   UNL     1      22.681  38.410   7.273  1.00  0.00     0.163 HD
ATOM     51  C   UNL     1      22.638  41.088   7.229  1.00  0.00     0.114 C 
ATOM     52  O   UNL     1      24.667  40.707   8.400  1.00  0.00    -0.275 OA
ENDBRANCH   7  48
ENDBRANCH   1   2
BRANCH   1  53
ATOM     53  O   UNL     1      22.728  38.037  10.353  1.00  0.00    -0.388 OA
ATOM     54  H   UNL     1      23.339  38.564   9.797  1.00  0.00     0.211 HD
ENDBRANCH   1  53
BRANCH   1  55
ATOM     55  C   UNL     1      22.346  35.769  10.761  1.00  0.00     0.165 C 
BRANCH  55  56
ATOM     56  O   UNL     1      21.425  34.853  10.175  1.00  0.00    -0.388 OA
ATOM     57  H   UNL     1      20.787  34.583  10.866  1.00  0.00     0.211 HD
ENDBRANCH  55  56
BRANCH  55  58
ATOM     58  C   UNL     1      21.778  36.251  12.029  1.00  0.00     0.154 C 
BRANCH  58  59
ATOM     59  N   UNL     1      22.652  36.281  13.137  1.00  0.00    -0.319 N 
ATOM     60  C   UNL     1      23.262  37.426  13.681  1.00  0.00     0.407 C 
ATOM     61  H   UNL     1      22.922  35.369  13.664  1.00  0.00     0.167 HD
ATOM     62  O   UNL     1      23.080  38.571  13.210  1.00  0.00    -0.225 OA
BRANCH  60  63
ATOM     63  O   UNL     1      24.114  37.365  14.789  1.00  0.00    -0.443 OA
BRANCH  63  64
ATOM     64  C   UNL     1      25.496  37.109  14.659  1.00  0.00     0.294 C 
BRANCH  64  65
ATOM     65  C   UNL     1      25.764  35.673  14.405  1.00  0.00     0.121 A 
ATOM     66  C   UNL     1      26.009  34.700  15.339  1.00  0.00     0.146 A 
ATOM     67  N   UNL     1      25.845  35.045  13.210  1.00  0.00    -0.131 NA
ATOM     68  N   UNL     1      26.237  33.494  14.693  1.00  0.00    -0.202 N 
ATOM     69  N   UNL     1      26.124  33.773  13.429  1.00  0.00    -0.060 NA
BRANCH  68  70
ATOM     70  C   UNL     1      26.533  32.356  15.463  1.00  0.00     0.164 A 
ATOM     71  N   UNL     1      27.834  32.042  15.683  1.00  0.00    -0.193 NA
ATOM     72  C   UNL     1      25.569  31.555  16.093  1.00  0.00     0.026 A 
ATOM     73  C   UNL     1      28.228  31.030  16.458  1.00  0.00     0.222 A 
ATOM     74  C   UNL     1      25.949  30.519  16.893  1.00  0.00     0.081 A 
ATOM     75  N   UNL     1      27.294  30.284  17.051  1.00  0.00    -0.213 NA
BRANCH  72  76
ATOM     76  C   UNL     1      24.174  31.840  15.739  1.00  0.00     0.070 C 
BRANCH  76  77
ATOM     77  C   UNL     1      23.764  31.338  14.372  1.00  0.00     0.165 C 
BRANCH  77  78
ATOM     78  O   UNL     1      24.342  30.185  13.935  1.00  0.00    -0.381 OA
BRANCH  78  79
ATOM     79  C   UNL     1      23.528  29.179  13.507  1.00  0.00     0.156 C 
ATOM     80  C   UNL     1      22.469  29.700  12.521  1.00  0.00     0.035 C 
ENDBRANCH  78  79
ENDBRANCH  77  78
ENDBRANCH  76  77
ENDBRANCH  72  76
BRANCH  73  81
ATOM     81  N   UNL     1      29.615  30.738  16.656  1.00  0.00    -0.368 N 
ATOM     82  H   UNL     1      29.935  30.297  17.542  1.00  0.00     0.159 HD
ATOM     83  H   UNL     1      30.338  30.945  15.948  1.00  0.00     0.159 HD
ENDBRANCH  73  81
BRANCH  74  84
ATOM     84  C   UNL     1      25.020  29.663  17.597  1.00  0.00     0.001 A 
ATOM     85  C   UNL     1      24.610  28.489  16.969  1.00  0.00     0.010 A 
ATOM     86  C   UNL     1      24.554  29.956  18.866  1.00  0.00     0.010 A 
ATOM     87  C   UNL     1      23.742  27.603  17.593  1.00  0.00     0.001 A 
ATOM     88  C   UNL     1      23.695  29.065  19.465  1.00  0.00     0.001 A 
ATOM     89  C   UNL     1      23.287  27.906  18.855  1.00  0.00     0.000 A 
ENDBRANCH  74  84
ENDBRANCH  68  70
ENDBRANCH  64  65
ENDBRANCH  63  64
ENDBRANCH  60  63
ENDBRANCH  58  59
ENDBRANCH  55  58
ENDBRANCH   1  55
TORSDOF 36
BEGIN_RES LYS A 131
REMARK  4 active torsions:
REMARK  status: ('A' for Active; 'I' for Inactive)
REMARK    1  A    between atoms: CA   and  CB  
REMARK    2  A    between atoms: CB   and  CG  
REMARK    3  A    between atoms: CG   and  CD  
REMARK    4  A    between atoms: CD   and  CE  
ROOT
ATOM      1  CA  LYS A 131      29.867  25.555  16.977  1.00 20.52     0.186 C 
ENDROOT
BRANCH   1   2
ATOM      2  CB  LYS A 131      28.345  25.722  17.026  1.00 20.94     0.034 C 
BRANCH   2   3
ATOM      3  CG  LYS A 131      27.599  24.425  16.752  1.00 22.96     0.005 C 
BRANCH   3   4
ATOM      4  CD  LYS A 131      26.990  23.848  17.999  1.00 24.33     0.041 C 
BRANCH   4   5
ATOM      5  CE  LYS A 131      25.569  24.377  18.163  1.00 26.91     0.338 C 
ATOM      6  NZ  LYS A 131      24.817  24.248  16.893  1.00 27.40     0.618 N 
ENDBRANCH   4   5
ENDBRANCH   3   4
ENDBRANCH   2   3
ENDBRANCH   1   2
END_RES LYS A 131
BEGIN_RES LYS A 135
REMARK  4 active torsions:
REMARK  status: ('A' for Active; 'I' for Inactive)
REMARK    5  A    between atoms: CA   and  CB  
REMARK    6  A    between atoms: CB   and  CG  
REMARK    7  A    between atoms: CG   and  CD  
REMARK    8  A    between atoms: CD   and  CE  
ROOT
ATOM      7  CA  LYS A 135      33.193  34.663   9.290  1.00 25.02     0.186 C 
ENDROOT
BRANCH   7   8
ATOM      8  CB  LYS A 135      32.060  35.360  10.034  1.00 26.63     0.034 C 
BRANCH   8   9
ATOM      9  CG  LYS A 135      30.688  34.910   9.601  1.00 29.45     0.005 C 
BRANCH   9  10
ATOM     10  CD  LYS A 135      30.702  34.473   8.145  1.00 32.00     0.041 C 
BRANCH  10  11
ATOM     11  CE  LYS A 135      29.653  35.228   7.351  1.00 34.25     0.338 C 
ATOM     12  NZ  LYS A 135      29.581  36.653   7.778  1.00 35.99     0.618 N 
ENDBRANCH  10  11
ENDBRANCH   9  10
ENDBRANCH   8   9
ENDBRANCH   7   8
END_RES LYS A 135
