REMARK VINA RESULT:    -5.298      0.000      0.000
REMARK INTER + INTRA:         -25.158
REMARK INTER:                 -12.246
REMARK INTRA:                 -12.912
REMARK UNBOUND:               -11.187
REMARK SMILES CC(=O)N[C@@H]1[C@@H](O)C[C@](OC[C@H]2O[C@@H](O[C@H]3[C@H](O)[C@@H](O)[C@H](OCCN=[N+]=[N-])O[C@@H]3CO)[C@H](O)[C@@H](O)[C@H]2O)(C(=O)O)O[C@H]1C(O)[C@H](O)CNC(=O)OCc1cn(-c2ccc(S(=O)(=O)Nc3nccs3)cc2)nn1
REMARK SMILES IDX 43 1 42 2 9 3 8 4 41 5 6 6 5 7 10 8 11 9 12 10 14 11 13 12
REMARK SMILES IDX 32 13 34 14 36 15 15 16 16 17 29 18 28 19 21 20 17 21 19 22
REMARK SMILES IDX 30 23 31 24 22 26 23 27 24 28 25 29 26 30 27 31 18 32 20 34
REMARK SMILES IDX 33 36 35 38 37 40 38 42 39 43 40 44 7 46 4 48 2 49 1 51 3 52
REMARK SMILES IDX 44 53 45 55 46 56 47 58 48 59 49 60 50 62 51 63 52 64 53 65
REMARK SMILES IDX 54 66 72 67 55 68 71 69 56 70 57 71 70 72 58 73 69 74 59 75
REMARK SMILES IDX 60 76 61 77 62 78 63 79 64 81 65 82 68 83 66 84 67 85
REMARK H PARENT 31 25 18 33 20 35 33 37 35 39 37 41 40 45 7 47 4 50 44 54
REMARK H PARENT 46 57 48 61 63 80
REMARK Flexibility Score: inf
ROOT
ATOM      1  C   UNL     1      24.948  29.521  19.616  1.00  0.00     0.176 C 
ENDROOT
BRANCH   1   2
ATOM      2  C   UNL     1      23.759  29.905  18.801  1.00  0.00     0.178 C 
ATOM      3  C   UNL     1      23.064  29.491  16.608  1.00  0.00     0.272 C 
ATOM      4  C   UNL     1      21.884  30.300  17.189  1.00  0.00     0.113 C 
ATOM      5  O   UNL     1      24.121  29.515  17.474  1.00  0.00    -0.332 OA
ATOM      6  C   UNL     1      22.298  31.586  17.796  1.00  0.00     0.145 C 
ATOM      7  C   UNL     1      23.532  31.392  18.680  1.00  0.00     0.142 C 
BRANCH   3   8
ATOM      8  O   UNL     1      23.466  30.039  15.416  1.00  0.00    -0.338 OA
BRANCH   8   9
ATOM      9  C   UNL     1      24.804  29.917  15.141  1.00  0.00     0.199 C 
BRANCH   9  10
ATOM     10  C   UNL     1      25.488  31.241  14.893  1.00  0.00     0.179 C 
ATOM     11  C   UNL     1      25.364  33.470  14.891  1.00  0.00     0.282 C 
ATOM     12  O   UNL     1      24.831  32.308  15.497  1.00  0.00    -0.341 OA
ATOM     13  C   UNL     1      26.694  33.722  15.559  1.00  0.00     0.202 C 
ATOM     14  C   UNL     1      27.143  32.467  16.315  1.00  0.00     0.179 C 
ATOM     15  C   UNL     1      26.900  31.240  15.457  1.00  0.00     0.177 C 
BRANCH  11  16
ATOM     16  O   UNL     1      24.552  34.546  15.011  1.00  0.00    -0.341 OA
BRANCH  16  17
ATOM     17  C   UNL     1      23.803  34.865  13.893  1.00  0.00     0.184 C 
ATOM     18  C   UNL     1      23.762  33.882  12.794  1.00  0.00     0.178 C 
ATOM     19  O   UNL     1      23.557  34.595  11.580  1.00  0.00    -0.341 OA
ATOM     20  C   UNL     1      24.742  35.222  11.169  1.00  0.00     0.281 C 
ATOM     21  C   UNL     1      24.170  36.245  13.365  1.00  0.00     0.180 C 
ATOM     22  C   UNL     1      25.219  36.169  12.254  1.00  0.00     0.202 C 
BRANCH  18  23
ATOM     23  C   UNL     1      22.571  32.925  12.831  1.00  0.00     0.191 C 
BRANCH  23  24
ATOM     24  O   UNL     1      22.261  32.456  14.072  1.00  0.00    -0.394 OA
ATOM     25  H   UNL     1      22.429  33.150  14.749  1.00  0.00     0.210 HD
ENDBRANCH  23  24
ENDBRANCH  18  23
BRANCH  20  26
ATOM     26  O   UNL     1      24.476  35.909  10.006  1.00  0.00    -0.350 OA
BRANCH  26  27
ATOM     27  C   UNL     1      25.513  36.656   9.509  1.00  0.00     0.169 C 
BRANCH  27  28
ATOM     28  C   UNL     1      25.533  36.738   8.001  1.00  0.00     0.119 C 
BRANCH  28  29
ATOM     29  N   UNL     1      26.864  37.124   7.610  1.00  0.00    -0.092 NA
ATOM     30  N   UNL     1      27.509  36.397   6.859  1.00  0.00     0.001 N 
ATOM     31  N   UNL     1      28.354  35.587   6.473  1.00  0.00    -0.003 NA
ENDBRANCH  28  29
ENDBRANCH  27  28
ENDBRANCH  26  27
ENDBRANCH  20  26
BRANCH  21  32
ATOM     32  O   UNL     1      23.057  36.881  12.816  1.00  0.00    -0.387 OA
ATOM     33  H   UNL     1      23.289  37.358  11.987  1.00  0.00     0.211 HD
ENDBRANCH  21  32
BRANCH  22  34
ATOM     34  O   UNL     1      26.468  35.835  12.759  1.00  0.00    -0.385 OA
ATOM     35  H   UNL     1      26.402  34.919  13.108  1.00  0.00     0.211 HD
ENDBRANCH  22  34
ENDBRANCH  16  17
ENDBRANCH  11  16
BRANCH  13  36
ATOM     36  O   UNL     1      27.733  33.926  14.616  1.00  0.00    -0.385 OA
ATOM     37  H   UNL     1      28.593  34.038  15.046  1.00  0.00     0.211 HD
ENDBRANCH  13  36
BRANCH  14  38
ATOM     38  O   UNL     1      26.521  32.392  17.553  1.00  0.00    -0.387 OA
ATOM     39  H   UNL     1      25.851  31.660  17.590  1.00  0.00     0.211 HD
ENDBRANCH  14  38
BRANCH  15  40
ATOM     40  O   UNL     1      27.140  30.121  16.238  1.00  0.00    -0.387 OA
ATOM     41  H   UNL     1      27.491  29.355  15.756  1.00  0.00     0.211 HD
ENDBRANCH  15  40
ENDBRANCH   9  10
ENDBRANCH   8   9
ENDBRANCH   3   8
BRANCH   3  42
ATOM     42  C   UNL     1      22.550  28.131  16.433  1.00  0.00     0.364 C 
ATOM     43  O   UNL     1      21.425  27.899  15.884  1.00  0.00    -0.246 OA
BRANCH  42  44
ATOM     44  O   UNL     1      23.245  27.007  16.846  1.00  0.00    -0.477 OA
ATOM     45  H   UNL     1      24.232  27.092  17.121  1.00  0.00     0.296 HD
ENDBRANCH  42  44
ENDBRANCH   3  42
BRANCH   6  46
ATOM     46  O   UNL     1      22.517  32.593  16.856  1.00  0.00    -0.391 OA
ATOM     47  H   UNL     1      23.275  33.155  17.146  1.00  0.00     0.211 HD
ENDBRANCH   6  46
BRANCH   7  48
ATOM     48  N   UNL     1      23.376  32.101  19.900  1.00  0.00    -0.348 N 
ATOM     49  C   UNL     1      23.896  33.420  20.031  1.00  0.00     0.217 C 
ATOM     50  H   UNL     1      22.887  31.693  20.719  1.00  0.00     0.163 HD
ATOM     51  C   UNL     1      23.776  34.224  21.259  1.00  0.00     0.114 C 
ATOM     52  O   UNL     1      24.501  33.948  19.036  1.00  0.00    -0.275 OA
ENDBRANCH   7  48
ENDBRANCH   1   2
BRANCH   1  53
ATOM     53  O   UNL     1      26.092  30.193  19.080  1.00  0.00    -0.388 OA
ATOM     54  H   UNL     1      26.143  31.108  19.414  1.00  0.00     0.211 HD
ENDBRANCH   1  53
BRANCH   1  55
ATOM     55  C   UNL     1      25.256  28.054  19.714  1.00  0.00     0.165 C 
BRANCH  55  56
ATOM     56  O   UNL     1      23.965  27.432  19.625  1.00  0.00    -0.388 OA
ATOM     57  H   UNL     1      23.985  26.583  20.138  1.00  0.00     0.211 HD
ENDBRANCH  55  56
BRANCH  55  58
ATOM     58  C   UNL     1      25.725  27.668  21.111  1.00  0.00     0.154 C 
BRANCH  58  59
ATOM     59  N   UNL     1      26.745  28.612  21.486  1.00  0.00    -0.319 N 
ATOM     60  C   UNL     1      27.962  28.242  22.117  1.00  0.00     0.407 C 
ATOM     61  H   UNL     1      26.617  29.659  21.294  1.00  0.00     0.167 HD
ATOM     62  O   UNL     1      28.213  27.056  22.361  1.00  0.00    -0.225 OA
BRANCH  60  63
ATOM     63  O   UNL     1      28.906  29.194  22.481  1.00  0.00    -0.443 OA
BRANCH  63  64
ATOM     64  C   UNL     1      30.056  29.536  21.758  1.00  0.00     0.294 C 
BRANCH  64  65
ATOM     65  C   UNL     1      29.812  30.041  20.397  1.00  0.00     0.121 A 
ATOM     66  C   UNL     1      30.616  30.944  19.693  1.00  0.00     0.144 A 
ATOM     67  N   UNL     1      28.816  29.762  19.558  1.00  0.00    -0.131 NA
ATOM     68  N   UNL     1      30.085  31.177  18.466  1.00  0.00    -0.220 N 
ATOM     69  N   UNL     1      28.989  30.443  18.414  1.00  0.00    -0.062 NA
BRANCH  68  70
ATOM     70  C   UNL     1      30.650  32.049  17.471  1.00  0.00     0.066 A 
ATOM     71  C   UNL     1      30.726  31.703  16.152  1.00  0.00     0.030 A 
ATOM     72  C   UNL     1      31.141  33.275  17.880  1.00  0.00     0.030 A 
ATOM     73  C   UNL     1      31.295  32.579  15.229  1.00  0.00     0.024 A 
ATOM     74  C   UNL     1      31.710  34.173  17.009  1.00  0.00     0.024 A 
ATOM     75  C   UNL     1      31.772  33.789  15.676  1.00  0.00     0.088 A 
BRANCH  75  76
ATOM     76  S   UNL     1      32.496  34.906  14.545  1.00  0.00     0.263 S 
ATOM     77  O   UNL     1      33.913  34.436  14.280  1.00  0.00    -0.201 OA
ATOM     78  O   UNL     1      32.583  36.236  15.240  1.00  0.00    -0.201 OA
BRANCH  76  79
ATOM     79  N   UNL     1      31.564  34.984  13.123  1.00  0.00    -0.255 N 
ATOM     80  H   UNL     1      31.587  34.177  12.475  1.00  0.00     0.182 HD
BRANCH  79  81
ATOM     81  C   UNL     1      30.802  36.110  12.858  1.00  0.00     0.196 A 
ATOM     82  N   UNL     1      29.600  36.524  12.968  1.00  0.00    -0.228 NA
ATOM     83  S   UNL     1      31.566  37.619  12.092  1.00  0.00    -0.105 S 
ATOM     84  C   UNL     1      29.159  37.675  12.616  1.00  0.00     0.125 A 
ATOM     85  C   UNL     1      30.018  38.587  12.064  1.00  0.00     0.089 A 
ENDBRANCH  79  81
ENDBRANCH  76  79
ENDBRANCH  75  76
ENDBRANCH  68  70
ENDBRANCH  64  65
ENDBRANCH  63  64
ENDBRANCH  60  63
ENDBRANCH  58  59
ENDBRANCH  55  58
ENDBRANCH   1  55
TORSDOF 33
BEGIN_RES LYS A 131
REMARK  4 active torsions:
REMARK  status: ('A' for Active; 'I' for Inactive)
REMARK    1  A    between atoms: CA   and  CB  
REMARK    2  A    between atoms: CB   and  CG  
REMARK    3  A    between atoms: CG   and  CD  
REMARK    4  A    between atoms: CD   and  CE  
ROOT
ATOM      1  CA  LYS A 131      29.867  25.555  16.977  1.00 20.52     0.186 C 
ENDROOT
BRANCH   1   2
ATOM      2  CB  LYS A 131      28.345  25.722  17.026  1.00 20.94     0.034 C 
BRANCH   2   3
ATOM      3  CG  LYS A 131      27.602  24.399  16.924  1.00 22.96     0.005 C 
BRANCH   3   4
ATOM      4  CD  LYS A 131      26.168  24.520  17.358  1.00 24.33     0.041 C 
BRANCH   4   5
ATOM      5  CE  LYS A 131      25.895  23.538  18.494  1.00 26.91     0.338 C 
ATOM      6  NZ  LYS A 131      25.469  24.262  19.715  1.00 27.40     0.618 N 
ENDBRANCH   4   5
ENDBRANCH   3   4
ENDBRANCH   2   3
ENDBRANCH   1   2
END_RES LYS A 131
BEGIN_RES LYS A 135
REMARK  4 active torsions:
REMARK  status: ('A' for Active; 'I' for Inactive)
REMARK    5  A    between atoms: CA   and  CB  
REMARK    6  A    between atoms: CB   and  CG  
REMARK    7  A    between atoms: CG   and  CD  
REMARK    8  A    between atoms: CD   and  CE  
ROOT
ATOM      7  CA  LYS A 135      33.193  34.663   9.290  1.00 25.02     0.186 C 
ENDROOT
BRANCH   7   8
ATOM      8  CB  LYS A 135      32.060  35.360  10.034  1.00 26.63     0.034 C 
BRANCH   8   9
ATOM      9  CG  LYS A 135      30.778  35.434   9.246  1.00 29.45     0.005 C 
BRANCH   9  10
ATOM     10  CD  LYS A 135      29.958  34.167   9.434  1.00 32.00     0.041 C 
BRANCH  10  11
ATOM     11  CE  LYS A 135      28.627  34.485  10.088  1.00 34.25     0.338 C 
ATOM     12  NZ  LYS A 135      27.518  33.731   9.440  1.00 35.99     0.618 N 
ENDBRANCH  10  11
ENDBRANCH   9  10
ENDBRANCH   8   9
ENDBRANCH   7   8
END_RES LYS A 135
