REMARK VINA RESULT:    -5.693      3.115      9.616
REMARK INTER + INTRA:         -24.332
REMARK INTER:                 -10.710
REMARK INTRA:                 -13.622
REMARK UNBOUND:                -9.487
REMARK SMILES CC(=O)N[C@@H]1[C@@H](O)C[C@](OC[C@H]2O[C@@H](O[C@H]3[C@H](O)[C@@H](O)[C@H](OCCN=[N+]=[N-])O[C@@H]3CO)[C@H](O)[C@@H](O)[C@H]2O)(C(=O)O)O[C@H]1C(O)[C@H](O)CNC(=O)OCc1cn(Cc2ccc(C(=O)O)cc2)nn1
REMARK SMILES IDX 43 1 42 2 9 3 8 4 41 5 6 6 5 7 10 8 11 9 12 10 14 11 13 12
REMARK SMILES IDX 32 13 34 14 36 15 15 16 16 17 29 18 28 19 21 20 17 21 19 22
REMARK SMILES IDX 30 23 31 24 22 26 23 27 24 28 25 29 26 30 27 31 18 32 20 34
REMARK SMILES IDX 33 36 35 38 37 40 38 42 39 43 40 44 7 46 4 48 2 49 1 51 3 52
REMARK SMILES IDX 44 53 45 55 46 56 47 58 48 59 49 60 50 62 51 63 52 64 53 65
REMARK SMILES IDX 54 66 67 67 55 68 66 69 56 70 57 71 58 72 65 73 59 74 64 75
REMARK SMILES IDX 60 76 61 77 62 78 63 79
REMARK H PARENT 31 25 18 33 20 35 33 37 35 39 37 41 40 45 7 47 4 50 44 54
REMARK H PARENT 46 57 48 61 63 80
REMARK Flexibility Score: inf
ROOT
ATOM      1  C   UNL     1      30.232  34.239  15.269  1.00  0.00     0.176 C 
ENDROOT
BRANCH   1   2
ATOM      2  C   UNL     1      29.741  33.208  16.308  1.00  0.00     0.178 C 
ATOM      3  C   UNL     1      27.808  31.843  16.353  1.00  0.00     0.272 C 
ATOM      4  C   UNL     1      27.448  32.463  17.644  1.00  0.00     0.113 C 
ATOM      5  O   UNL     1      28.819  32.470  15.672  1.00  0.00    -0.332 OA
ATOM      6  C   UNL     1      27.867  33.914  17.750  1.00  0.00     0.145 C 
ATOM      7  C   UNL     1      29.349  33.953  17.518  1.00  0.00     0.142 C 
BRANCH   3   8
ATOM      8  O   UNL     1      26.745  31.821  15.490  1.00  0.00    -0.338 OA
BRANCH   8   9
ATOM      9  C   UNL     1      25.572  31.272  15.872  1.00  0.00     0.199 C 
BRANCH   9  10
ATOM     10  C   UNL     1      24.398  32.200  15.480  1.00  0.00     0.179 C 
ATOM     11  C   UNL     1      23.966  34.411  14.884  1.00  0.00     0.282 C 
ATOM     12  O   UNL     1      24.858  33.483  15.418  1.00  0.00    -0.341 OA
ATOM     13  C   UNL     1      22.588  33.888  14.684  1.00  0.00     0.202 C 
ATOM     14  C   UNL     1      22.670  32.655  13.810  1.00  0.00     0.179 C 
ATOM     15  C   UNL     1      23.787  31.731  14.185  1.00  0.00     0.177 C 
BRANCH  11  16
ATOM     16  O   UNL     1      24.502  34.878  13.685  1.00  0.00    -0.341 OA
BRANCH  16  17
ATOM     17  C   UNL     1      25.600  35.663  13.886  1.00  0.00     0.184 C 
ATOM     18  C   UNL     1      25.429  37.042  13.366  1.00  0.00     0.178 C 
ATOM     19  O   UNL     1      26.453  37.884  13.824  1.00  0.00    -0.341 OA
ATOM     20  C   UNL     1      27.691  37.241  13.768  1.00  0.00     0.281 C 
ATOM     21  C   UNL     1      26.764  34.980  13.141  1.00  0.00     0.180 C 
ATOM     22  C   UNL     1      27.738  36.090  12.807  1.00  0.00     0.202 C 
BRANCH  18  23
ATOM     23  C   UNL     1      24.120  37.624  13.819  1.00  0.00     0.191 C 
BRANCH  23  24
ATOM     24  O   UNL     1      23.180  37.275  12.822  1.00  0.00    -0.394 OA
ATOM     25  H   UNL     1      23.499  36.508  12.309  1.00  0.00     0.210 HD
ENDBRANCH  23  24
ENDBRANCH  18  23
BRANCH  20  26
ATOM     26  O   UNL     1      28.066  36.876  15.040  1.00  0.00    -0.350 OA
BRANCH  26  27
ATOM     27  C   UNL     1      27.986  37.875  15.983  1.00  0.00     0.169 C 
BRANCH  27  28
ATOM     28  C   UNL     1      29.156  38.799  16.045  1.00  0.00     0.119 C 
BRANCH  28  29
ATOM     29  N   UNL     1      30.185  38.117  16.847  1.00  0.00    -0.092 NA
ATOM     30  N   UNL     1      30.074  37.948  18.057  1.00  0.00     0.001 N 
ATOM     31  N   UNL     1      29.799  38.014  19.250  1.00  0.00    -0.003 NA
ENDBRANCH  28  29
ENDBRANCH  27  28
ENDBRANCH  26  27
ENDBRANCH  20  26
BRANCH  21  32
ATOM     32  O   UNL     1      27.341  34.014  13.935  1.00  0.00    -0.387 OA
ATOM     33  H   UNL     1      27.377  34.304  14.904  1.00  0.00     0.211 HD
ENDBRANCH  21  32
BRANCH  22  34
ATOM     34  O   UNL     1      27.553  36.493  11.504  1.00  0.00    -0.385 OA
ATOM     35  H   UNL     1      27.871  35.839  10.857  1.00  0.00     0.211 HD
ENDBRANCH  22  34
ENDBRANCH  16  17
ENDBRANCH  11  16
BRANCH  13  36
ATOM     36  O   UNL     1      21.966  33.574  15.902  1.00  0.00    -0.385 OA
ATOM     37  H   UNL     1      22.126  32.602  16.048  1.00  0.00     0.211 HD
ENDBRANCH  13  36
BRANCH  14  38
ATOM     38  O   UNL     1      22.785  32.995  12.461  1.00  0.00    -0.387 OA
ATOM     39  H   UNL     1      22.200  32.379  11.939  1.00  0.00     0.211 HD
ENDBRANCH  14  38
BRANCH  15  40
ATOM     40  O   UNL     1      24.748  31.623  13.170  1.00  0.00    -0.387 OA
ATOM     41  H   UNL     1      24.316  31.150  12.412  1.00  0.00     0.211 HD
ENDBRANCH  15  40
ENDBRANCH   9  10
ENDBRANCH   8   9
ENDBRANCH   3   8
BRANCH   3  42
ATOM     42  C   UNL     1      28.309  30.445  16.623  1.00  0.00     0.364 C 
ATOM     43  O   UNL     1      28.544  29.654  15.676  1.00  0.00    -0.246 OA
BRANCH  42  44
ATOM     44  O   UNL     1      28.527  29.986  17.912  1.00  0.00    -0.477 OA
ATOM     45  H   UNL     1      28.897  30.666  18.594  1.00  0.00     0.296 HD
ENDBRANCH  42  44
ENDBRANCH   3  42
BRANCH   6  46
ATOM     46  O   UNL     1      27.130  34.629  16.831  1.00  0.00    -0.391 OA
ATOM     47  H   UNL     1      27.740  35.102  16.206  1.00  0.00     0.211 HD
ENDBRANCH   6  46
BRANCH   7  48
ATOM     48  N   UNL     1      30.009  33.374  18.681  1.00  0.00    -0.348 N 
ATOM     49  C   UNL     1      31.225  33.934  19.205  1.00  0.00     0.217 C 
ATOM     50  H   UNL     1      29.660  32.539  19.199  1.00  0.00     0.163 HD
ATOM     51  C   UNL     1      31.872  33.310  20.402  1.00  0.00     0.114 C 
ATOM     52  O   UNL     1      31.711  34.931  18.645  1.00  0.00    -0.275 OA
ENDBRANCH   7  48
ENDBRANCH   1   2
BRANCH   1  53
ATOM     53  O   UNL     1      30.567  35.441  15.801  1.00  0.00    -0.388 OA
ATOM     54  H   UNL     1      30.972  35.431  16.696  1.00  0.00     0.211 HD
ENDBRANCH   1  53
BRANCH   1  55
ATOM     55  C   UNL     1      31.298  33.651  14.377  1.00  0.00     0.165 C 
BRANCH  55  56
ATOM     56  O   UNL     1      31.499  32.349  14.710  1.00  0.00    -0.388 OA
ATOM     57  H   UNL     1      31.953  32.182  15.558  1.00  0.00     0.211 HD
ENDBRANCH  55  56
BRANCH  55  58
ATOM     58  C   UNL     1      32.467  34.555  14.313  1.00  0.00     0.154 C 
BRANCH  58  59
ATOM     59  N   UNL     1      32.540  35.271  13.070  1.00  0.00    -0.319 N 
ATOM     60  C   UNL     1      32.062  36.587  12.880  1.00  0.00     0.407 C 
ATOM     61  H   UNL     1      32.974  34.807  12.225  1.00  0.00     0.167 HD
ATOM     62  O   UNL     1      31.533  37.235  13.796  1.00  0.00    -0.225 OA
BRANCH  60  63
ATOM     63  O   UNL     1      32.152  37.258  11.645  1.00  0.00    -0.443 OA
BRANCH  63  64
ATOM     64  C   UNL     1      31.509  38.508  11.475  1.00  0.00     0.294 C 
BRANCH  64  65
ATOM     65  C   UNL     1      30.681  38.563  10.257  1.00  0.00     0.120 A 
ATOM     66  C   UNL     1      29.450  39.125  10.061  1.00  0.00     0.138 A 
ATOM     67  N   UNL     1      31.038  38.010   9.083  1.00  0.00    -0.132 NA
ATOM     68  N   UNL     1      29.094  38.897   8.778  1.00  0.00    -0.248 N 
ATOM     69  N   UNL     1      30.073  38.219   8.207  1.00  0.00    -0.067 NA
BRANCH  68  70
ATOM     70  C   UNL     1      27.857  39.327   8.177  1.00  0.00     0.181 C 
BRANCH  70  71
ATOM     71  C   UNL     1      26.752  38.424   8.555  1.00  0.00    -0.026 A 
ATOM     72  C   UNL     1      25.815  38.832   9.479  1.00  0.00     0.006 A 
ATOM     73  C   UNL     1      26.661  37.152   7.996  1.00  0.00     0.006 A 
ATOM     74  C   UNL     1      24.817  37.930   9.802  1.00  0.00     0.016 A 
ATOM     75  C   UNL     1      25.666  36.258   8.323  1.00  0.00     0.016 A 
ATOM     76  C   UNL     1      24.732  36.670   9.245  1.00  0.00     0.059 A 
BRANCH  76  77
ATOM     77  C   UNL     1      23.660  35.767   9.632  1.00  0.00     0.335 C 
ATOM     78  O   UNL     1      22.729  35.530   8.849  1.00  0.00    -0.246 OA
BRANCH  77  79
ATOM     79  O   UNL     1      23.680  35.174  10.875  1.00  0.00    -0.478 OA
ATOM     80  H   UNL     1      23.338  34.228  11.031  1.00  0.00     0.297 HD
ENDBRANCH  77  79
ENDBRANCH  76  77
ENDBRANCH  70  71
ENDBRANCH  68  70
ENDBRANCH  64  65
ENDBRANCH  63  64
ENDBRANCH  60  63
ENDBRANCH  58  59
ENDBRANCH  55  58
ENDBRANCH   1  55
TORSDOF 33
BEGIN_RES LYS A 131
REMARK  4 active torsions:
REMARK  status: ('A' for Active; 'I' for Inactive)
REMARK    1  A    between atoms: CA   and  CB  
REMARK    2  A    between atoms: CB   and  CG  
REMARK    3  A    between atoms: CG   and  CD  
REMARK    4  A    between atoms: CD   and  CE  
ROOT
ATOM      1  CA  LYS A 131      29.867  25.555  16.977  1.00 20.52     0.186 C 
ENDROOT
BRANCH   1   2
ATOM      2  CB  LYS A 131      28.345  25.722  17.026  1.00 20.94     0.034 C 
BRANCH   2   3
ATOM      3  CG  LYS A 131      27.599  24.442  16.683  1.00 22.96     0.005 C 
BRANCH   3   4
ATOM      4  CD  LYS A 131      27.006  23.788  17.900  1.00 24.33     0.041 C 
BRANCH   4   5
ATOM      5  CE  LYS A 131      25.625  24.376  18.172  1.00 26.91     0.338 C 
ATOM      6  NZ  LYS A 131      24.808  24.373  16.936  1.00 27.40     0.618 N 
ENDBRANCH   4   5
ENDBRANCH   3   4
ENDBRANCH   2   3
ENDBRANCH   1   2
END_RES LYS A 131
BEGIN_RES LYS A 135
REMARK  4 active torsions:
REMARK  status: ('A' for Active; 'I' for Inactive)
REMARK    5  A    between atoms: CA   and  CB  
REMARK    6  A    between atoms: CB   and  CG  
REMARK    7  A    between atoms: CG   and  CD  
REMARK    8  A    between atoms: CD   and  CE  
ROOT
ATOM      7  CA  LYS A 135      33.193  34.663   9.290  1.00 25.02     0.186 C 
ENDROOT
BRANCH   7   8
ATOM      8  CB  LYS A 135      32.060  35.360  10.034  1.00 26.63     0.034 C 
BRANCH   8   9
ATOM      9  CG  LYS A 135      30.743  34.634   9.942  1.00 29.45     0.005 C 
BRANCH   9  10
ATOM     10  CD  LYS A 135      30.340  34.435   8.489  1.00 32.00     0.041 C 
BRANCH  10  11
ATOM     11  CE  LYS A 135      28.829  34.421   8.352  1.00 34.25     0.338 C 
ATOM     12  NZ  LYS A 135      28.192  33.733   9.509  1.00 35.99     0.618 N 
ENDBRANCH  10  11
ENDBRANCH   9  10
ENDBRANCH   8   9
ENDBRANCH   7   8
END_RES LYS A 135
