REMARK VINA RESULT:    -4.753      5.380     10.900
REMARK INTER + INTRA:         -22.904
REMARK INTER:                  -9.784
REMARK INTRA:                 -13.120
REMARK UNBOUND:               -10.372
REMARK SMILES CC(=O)N[C@@H]1[C@@H](O)C[C@](OC[C@H]2O[C@@H](O[C@H]3[C@H](O)[C@@H](O)[C@H](OCCN=[N+]=[N-])O[C@@H]3CO)[C@H](O)[C@@H](O)[C@H]2O)(C(=O)O)O[C@H]1C(O)[C@H](O)CNC(=O)OCc1cn(CC(=O)NCc2cccs2)nn1
REMARK SMILES IDX 43 1 42 2 9 3 8 4 41 5 6 6 5 7 10 8 11 9 12 10 14 11 13 12
REMARK SMILES IDX 32 13 34 14 36 15 15 16 16 17 29 18 28 19 21 20 17 21 19 22
REMARK SMILES IDX 30 23 31 24 22 26 23 27 24 28 25 29 26 30 27 31 18 32 20 34
REMARK SMILES IDX 33 36 35 38 37 40 38 42 39 43 40 44 7 46 4 48 2 49 1 51 3 52
REMARK SMILES IDX 44 53 45 55 46 56 47 58 48 59 49 60 50 62 51 63 52 64 53 65
REMARK SMILES IDX 54 66 67 67 55 68 66 69 56 70 57 71 58 72 59 73 60 75 61 76
REMARK SMILES IDX 62 77 65 78 63 79 64 80
REMARK H PARENT 31 25 18 33 20 35 33 37 35 39 37 41 40 45 7 47 4 50 44 54
REMARK H PARENT 46 57 48 61 59 74
REMARK Flexibility Score: inf
ROOT
ATOM      1  C   UNL     1      29.227  31.712  17.406  1.00  0.00     0.176 C 
ENDROOT
BRANCH   1   2
ATOM      2  C   UNL     1      30.026  32.983  17.285  1.00  0.00     0.178 C 
ATOM      3  C   UNL     1      31.065  33.674  19.294  1.00  0.00     0.272 C 
ATOM      4  C   UNL     1      29.742  34.371  19.651  1.00  0.00     0.113 C 
ATOM      5  O   UNL     1      31.037  32.936  18.180  1.00  0.00    -0.332 OA
ATOM      6  C   UNL     1      29.239  35.067  18.452  1.00  0.00     0.145 C 
ATOM      7  C   UNL     1      29.245  34.236  17.197  1.00  0.00     0.142 C 
BRANCH   3   8
ATOM      8  O   UNL     1      31.342  32.904  20.399  1.00  0.00    -0.338 OA
BRANCH   8   9
ATOM      9  C   UNL     1      30.603  31.837  20.710  1.00  0.00     0.199 C 
BRANCH   9  10
ATOM     10  C   UNL     1      31.275  30.556  21.112  1.00  0.00     0.179 C 
ATOM     11  C   UNL     1      31.187  29.130  22.909  1.00  0.00     0.282 C 
ATOM     12  O   UNL     1      30.436  30.004  22.111  1.00  0.00    -0.341 OA
ATOM     13  C   UNL     1      32.055  28.238  22.087  1.00  0.00     0.202 C 
ATOM     14  C   UNL     1      31.744  28.208  20.628  1.00  0.00     0.179 C 
ATOM     15  C   UNL     1      31.295  29.501  20.027  1.00  0.00     0.177 C 
BRANCH  11  16
ATOM     16  O   UNL     1      30.412  28.401  23.767  1.00  0.00    -0.341 OA
BRANCH  16  17
ATOM     17  C   UNL     1      29.045  28.583  23.573  1.00  0.00     0.184 C 
ATOM     18  C   UNL     1      28.328  29.058  24.760  1.00  0.00     0.178 C 
ATOM     19  O   UNL     1      27.461  28.204  25.388  1.00  0.00    -0.341 OA
ATOM     20  C   UNL     1      27.469  26.897  25.020  1.00  0.00     0.281 C 
ATOM     21  C   UNL     1      28.519  27.346  22.902  1.00  0.00     0.180 C 
ATOM     22  C   UNL     1      27.225  26.856  23.501  1.00  0.00     0.202 C 
BRANCH  18  23
ATOM     23  C   UNL     1      27.476  30.293  24.405  1.00  0.00     0.191 C 
BRANCH  23  24
ATOM     24  O   UNL     1      27.859  30.869  23.213  1.00  0.00    -0.394 OA
ATOM     25  H   UNL     1      28.567  30.297  22.810  1.00  0.00     0.210 HD
ENDBRANCH  23  24
ENDBRANCH  18  23
BRANCH  20  26
ATOM     26  O   UNL     1      26.333  26.274  25.563  1.00  0.00    -0.350 OA
BRANCH  26  27
ATOM     27  C   UNL     1      26.603  25.684  26.782  1.00  0.00     0.169 C 
BRANCH  27  28
ATOM     28  C   UNL     1      25.905  24.321  26.788  1.00  0.00     0.119 C 
BRANCH  28  29
ATOM     29  N   UNL     1      26.058  23.700  25.480  1.00  0.00    -0.092 NA
ATOM     30  N   UNL     1      25.065  23.283  24.887  1.00  0.00     0.001 N 
ATOM     31  N   UNL     1      24.090  23.026  24.156  1.00  0.00    -0.003 NA
ENDBRANCH  28  29
ENDBRANCH  27  28
ENDBRANCH  26  27
ENDBRANCH  20  26
BRANCH  21  32
ATOM     32  O   UNL     1      28.411  27.481  21.515  1.00  0.00    -0.387 OA
ATOM     33  H   UNL     1      28.194  28.430  21.262  1.00  0.00     0.211 HD
ENDBRANCH  21  32
BRANCH  22  34
ATOM     34  O   UNL     1      27.011  25.561  23.073  1.00  0.00    -0.385 OA
ATOM     35  H   UNL     1      27.633  24.934  23.522  1.00  0.00     0.211 HD
ENDBRANCH  22  34
ENDBRANCH  16  17
ENDBRANCH  11  16
BRANCH  13  36
ATOM     36  O   UNL     1      33.426  28.523  22.281  1.00  0.00    -0.385 OA
ATOM     37  H   UNL     1      33.919  27.796  22.693  1.00  0.00     0.211 HD
ENDBRANCH  13  36
BRANCH  14  38
ATOM     38  O   UNL     1      30.845  27.156  20.333  1.00  0.00    -0.387 OA
ATOM     39  H   UNL     1      30.979  26.857  19.400  1.00  0.00     0.211 HD
ENDBRANCH  14  38
BRANCH  15  40
ATOM     40  O   UNL     1      29.969  29.292  19.579  1.00  0.00    -0.387 OA
ATOM     41  H   UNL     1      29.693  29.958  18.909  1.00  0.00     0.211 HD
ENDBRANCH  15  40
ENDBRANCH   9  10
ENDBRANCH   8   9
ENDBRANCH   3   8
BRANCH   3  42
ATOM     42  C   UNL     1      32.043  34.797  19.151  1.00  0.00     0.364 C 
ATOM     43  O   UNL     1      32.361  35.584  20.071  1.00  0.00    -0.246 OA
BRANCH  42  44
ATOM     44  O   UNL     1      32.658  35.004  17.923  1.00  0.00    -0.477 OA
ATOM     45  H   UNL     1      32.444  35.827  17.373  1.00  0.00     0.296 HD
ENDBRANCH  42  44
ENDBRANCH   3  42
BRANCH   6  46
ATOM     46  O   UNL     1      27.934  35.575  18.719  1.00  0.00    -0.391 OA
ATOM     47  H   UNL     1      27.655  36.218  18.032  1.00  0.00     0.211 HD
ENDBRANCH   6  46
BRANCH   7  48
ATOM     48  N   UNL     1      29.630  35.036  16.051  1.00  0.00    -0.348 N 
ATOM     49  C   UNL     1      29.043  34.799  14.790  1.00  0.00     0.217 C 
ATOM     50  H   UNL     1      30.352  35.801  16.121  1.00  0.00     0.163 HD
ATOM     51  C   UNL     1      29.453  35.632  13.622  1.00  0.00     0.114 C 
ATOM     52  O   UNL     1      28.181  33.915  14.576  1.00  0.00    -0.275 OA
ENDBRANCH   7  48
ENDBRANCH   1   2
BRANCH   1  53
ATOM     53  O   UNL     1      27.931  31.863  17.807  1.00  0.00    -0.388 OA
ATOM     54  H   UNL     1      27.706  32.703  18.261  1.00  0.00     0.211 HD
ENDBRANCH   1  53
BRANCH   1  55
ATOM     55  C   UNL     1      29.389  30.741  16.256  1.00  0.00     0.165 C 
BRANCH  55  56
ATOM     56  O   UNL     1      29.673  31.346  15.069  1.00  0.00    -0.388 OA
ATOM     57  H   UNL     1      30.619  31.329  14.806  1.00  0.00     0.211 HD
ENDBRANCH  55  56
BRANCH  55  58
ATOM     58  C   UNL     1      28.159  29.857  16.143  1.00  0.00     0.154 C 
BRANCH  58  59
ATOM     59  N   UNL     1      27.903  29.100  17.333  1.00  0.00    -0.319 N 
ATOM     60  C   UNL     1      26.709  28.415  17.666  1.00  0.00     0.407 C 
ATOM     61  H   UNL     1      28.666  29.004  18.095  1.00  0.00     0.167 HD
ATOM     62  O   UNL     1      25.732  28.401  16.919  1.00  0.00    -0.225 OA
BRANCH  60  63
ATOM     63  O   UNL     1      26.585  27.712  18.881  1.00  0.00    -0.443 OA
BRANCH  63  64
ATOM     64  C   UNL     1      25.936  28.185  20.016  1.00  0.00     0.294 C 
BRANCH  64  65
ATOM     65  C   UNL     1      26.031  29.637  20.221  1.00  0.00     0.120 A 
ATOM     66  C   UNL     1      24.989  30.536  20.292  1.00  0.00     0.138 A 
ATOM     67  N   UNL     1      27.165  30.368  20.385  1.00  0.00    -0.132 NA
ATOM     68  N   UNL     1      25.495  31.760  20.491  1.00  0.00    -0.243 N 
ATOM     69  N   UNL     1      26.799  31.622  20.542  1.00  0.00    -0.067 NA
BRANCH  68  70
ATOM     70  C   UNL     1      24.833  33.037  20.639  1.00  0.00     0.245 C 
BRANCH  70  71
ATOM     71  C   UNL     1      25.059  33.826  19.414  1.00  0.00     0.242 C 
ATOM     72  O   UNL     1      25.162  35.064  19.474  1.00  0.00    -0.273 OA
ATOM     73  N   UNL     1      25.160  33.184  18.156  1.00  0.00    -0.350 N 
ATOM     74  H   UNL     1      25.077  32.132  18.061  1.00  0.00     0.163 HD
BRANCH  73  75
ATOM     75  C   UNL     1      25.380  33.911  16.944  1.00  0.00     0.162 C 
BRANCH  75  76
ATOM     76  C   UNL     1      25.051  33.054  15.797  1.00  0.00     0.024 A 
ATOM     77  C   UNL     1      25.154  31.713  15.615  1.00  0.00     0.017 A 
ATOM     78  S   UNL     1      24.384  33.623  14.273  1.00  0.00    -0.147 S 
ATOM     79  C   UNL     1      24.769  31.175  14.447  1.00  0.00     0.012 A 
ATOM     80  C   UNL     1      24.287  31.961  13.468  1.00  0.00     0.065 A 
ENDBRANCH  75  76
ENDBRANCH  73  75
ENDBRANCH  70  71
ENDBRANCH  68  70
ENDBRANCH  64  65
ENDBRANCH  63  64
ENDBRANCH  60  63
ENDBRANCH  58  59
ENDBRANCH  55  58
ENDBRANCH   1  55
TORSDOF 33
BEGIN_RES LYS A 131
REMARK  4 active torsions:
REMARK  status: ('A' for Active; 'I' for Inactive)
REMARK    1  A    between atoms: CA   and  CB  
REMARK    2  A    between atoms: CB   and  CG  
REMARK    3  A    between atoms: CG   and  CD  
REMARK    4  A    between atoms: CD   and  CE  
ROOT
ATOM      1  CA  LYS A 131      29.867  25.555  16.977  1.00 20.52     0.186 C 
ENDROOT
BRANCH   1   2
ATOM      2  CB  LYS A 131      28.345  25.722  17.026  1.00 20.94     0.034 C 
BRANCH   2   3
ATOM      3  CG  LYS A 131      27.602  24.400  16.913  1.00 22.96     0.005 C 
BRANCH   3   4
ATOM      4  CD  LYS A 131      26.534  24.259  17.962  1.00 24.33     0.041 C 
BRANCH   4   5
ATOM      5  CE  LYS A 131      25.213  24.796  17.419  1.00 26.91     0.338 C 
ATOM      6  NZ  LYS A 131      24.374  23.688  16.907  1.00 27.40     0.618 N 
ENDBRANCH   4   5
ENDBRANCH   3   4
ENDBRANCH   2   3
ENDBRANCH   1   2
END_RES LYS A 131
BEGIN_RES LYS A 135
REMARK  4 active torsions:
REMARK  status: ('A' for Active; 'I' for Inactive)
REMARK    5  A    between atoms: CA   and  CB  
REMARK    6  A    between atoms: CB   and  CG  
REMARK    7  A    between atoms: CG   and  CD  
REMARK    8  A    between atoms: CD   and  CE  
ROOT
ATOM      7  CA  LYS A 135      33.193  34.663   9.290  1.00 25.02     0.186 C 
ENDROOT
BRANCH   7   8
ATOM      8  CB  LYS A 135      32.060  35.360  10.034  1.00 26.63     0.034 C 
BRANCH   8   9
ATOM      9  CG  LYS A 135      30.767  35.402   9.260  1.00 29.45     0.005 C 
BRANCH   9  10
ATOM     10  CD  LYS A 135      29.661  34.691  10.024  1.00 32.00     0.041 C 
BRANCH  10  11
ATOM     11  CE  LYS A 135      28.622  34.140   9.067  1.00 34.25     0.338 C 
ATOM     12  NZ  LYS A 135      27.369  33.777   9.785  1.00 35.99     0.618 N 
ENDBRANCH  10  11
ENDBRANCH   9  10
ENDBRANCH   8   9
ENDBRANCH   7   8
END_RES LYS A 135
