REMARK VINA RESULT:    -5.019      2.861      6.556
REMARK INTER + INTRA:         -22.825
REMARK INTER:                 -12.775
REMARK INTRA:                 -10.049
REMARK UNBOUND:                -9.883
REMARK SMILES CC(=O)N[C@@H]1[C@@H](O)C[C@](OC[C@H]2O[C@@H](O[C@H]3[C@H](O)[C@@H](O)[C@H](OCCN=[N+]=[N-])O[C@@H]3CO)[C@H](O)[C@@H](O)[C@H]2O)(C(=O)O)O[C@H]1C(O)[C@H](O)CNC(=O)OCc1cn(C(c2ccccc2)c2ccccc2)nn1
REMARK SMILES IDX 9 1 8 2 6 3 5 4 42 5 41 6 10 7 11 8 12 9 14 10 13 11 32 12
REMARK SMILES IDX 34 13 36 14 15 15 16 16 29 17 28 18 21 19 17 20 19 21 30 22
REMARK SMILES IDX 31 23 22 25 23 26 24 27 25 28 26 29 27 30 18 31 20 33 33 35
REMARK SMILES IDX 35 37 37 39 38 41 39 42 40 43 7 45 43 47 44 48 45 50 46 51
REMARK SMILES IDX 47 53 48 54 49 55 50 57 51 58 52 59 53 60 54 61 70 62 55 63
REMARK SMILES IDX 69 64 56 65 57 66 58 67 62 68 59 69 61 70 60 71 63 72 64 73
REMARK SMILES IDX 68 74 65 75 67 76 66 77 4 78 2 79 1 81 3 82
REMARK H PARENT 31 24 18 32 20 34 33 36 35 38 37 40 40 44 7 46 44 49 46 52
REMARK H PARENT 48 56 4 80
REMARK Flexibility Score: inf
ROOT
ATOM      1  C   UNL     1      29.323  31.441  16.961  1.00  0.00     0.272 C 
ATOM      2  C   UNL     1      30.705  31.603  16.294  1.00  0.00     0.113 C 
ATOM      3  C   UNL     1      30.651  32.670  15.279  1.00  0.00     0.145 C 
ATOM      4  C   UNL     1      30.223  33.966  15.919  1.00  0.00     0.142 C 
ATOM      5  C   UNL     1      29.488  33.780  17.196  1.00  0.00     0.178 C 
ATOM      6  O   UNL     1      28.795  32.620  17.327  1.00  0.00    -0.332 OA
ENDROOT
BRANCH   1   7
ATOM      7  O   UNL     1      29.498  30.635  18.097  1.00  0.00    -0.338 OA
BRANCH   7   8
ATOM      8  C   UNL     1      28.340  30.520  18.819  1.00  0.00     0.199 C 
BRANCH   8   9
ATOM      9  C   UNL     1      27.699  29.141  18.679  1.00  0.00     0.179 C 
ATOM     10  C   UNL     1      27.385  27.985  20.742  1.00  0.00     0.282 C 
ATOM     11  O   UNL     1      28.068  28.327  19.631  1.00  0.00    -0.341 OA
ATOM     12  C   UNL     1      26.117  28.668  20.935  1.00  0.00     0.202 C 
ATOM     13  C   UNL     1      25.397  29.033  19.684  1.00  0.00     0.179 C 
ATOM     14  C   UNL     1      26.206  29.245  18.464  1.00  0.00     0.177 C 
BRANCH  10  15
ATOM     15  O   UNL     1      28.342  28.181  21.785  1.00  0.00    -0.341 OA
BRANCH  15  16
ATOM     16  C   UNL     1      29.176  29.224  21.520  1.00  0.00     0.184 C 
ATOM     17  C   UNL     1      30.608  28.830  21.584  1.00  0.00     0.178 C 
ATOM     18  O   UNL     1      31.420  29.863  21.096  1.00  0.00    -0.341 OA
ATOM     19  C   UNL     1      31.440  30.899  21.990  1.00  0.00     0.281 C 
ATOM     20  C   UNL     1      28.999  30.351  22.531  1.00  0.00     0.180 C 
ATOM     21  C   UNL     1      30.303  30.924  22.928  1.00  0.00     0.202 C 
BRANCH  17  22
ATOM     22  C   UNL     1      30.940  27.517  20.904  1.00  0.00     0.191 C 
BRANCH  22  23
ATOM     23  O   UNL     1      30.465  26.467  21.684  1.00  0.00    -0.394 OA
ATOM     24  H   UNL     1      29.566  26.613  22.043  1.00  0.00     0.210 HD
ENDBRANCH  22  23
ENDBRANCH  17  22
BRANCH  19  25
ATOM     25  O   UNL     1      31.633  32.134  21.350  1.00  0.00    -0.350 OA
BRANCH  25  26
ATOM     26  C   UNL     1      32.541  32.959  21.947  1.00  0.00     0.169 C 
BRANCH  26  27
ATOM     27  C   UNL     1      33.650  32.133  22.556  1.00  0.00     0.119 C 
BRANCH  27  28
ATOM     28  N   UNL     1      34.842  32.121  21.712  1.00  0.00    -0.092 NA
ATOM     29  N   UNL     1      35.453  33.143  21.429  1.00  0.00     0.001 N 
ATOM     30  N   UNL     1      35.785  34.229  20.937  1.00  0.00    -0.003 NA
ENDBRANCH  27  28
ENDBRANCH  26  27
ENDBRANCH  25  26
ENDBRANCH  19  25
BRANCH  20  31
ATOM     31  O   UNL     1      28.106  31.266  21.969  1.00  0.00    -0.387 OA
ATOM     32  H   UNL     1      27.577  30.856  21.233  1.00  0.00     0.211 HD
ENDBRANCH  20  31
BRANCH  21  33
ATOM     33  O   UNL     1      30.685  30.311  24.157  1.00  0.00    -0.385 OA
ATOM     34  H   UNL     1      31.435  30.870  24.503  1.00  0.00     0.211 HD
ENDBRANCH  21  33
ENDBRANCH  15  16
ENDBRANCH  10  15
BRANCH  12  35
ATOM     35  O   UNL     1      25.185  27.918  21.697  1.00  0.00    -0.385 OA
ATOM     36  H   UNL     1      24.603  28.587  22.132  1.00  0.00     0.211 HD
ENDBRANCH  12  35
BRANCH  13  37
ATOM     37  O   UNL     1      24.580  30.176  19.880  1.00  0.00    -0.387 OA
ATOM     38  H   UNL     1      24.435  30.627  19.008  1.00  0.00     0.211 HD
ENDBRANCH  13  37
BRANCH  14  39
ATOM     39  O   UNL     1      25.984  30.546  17.983  1.00  0.00    -0.387 OA
ATOM     40  H   UNL     1      26.144  31.228  18.676  1.00  0.00     0.211 HD
ENDBRANCH  14  39
ENDBRANCH   8   9
ENDBRANCH   7   8
ENDBRANCH   1   7
BRANCH   1  41
ATOM     41  C   UNL     1      28.504  30.723  15.984  1.00  0.00     0.364 C 
ATOM     42  O   UNL     1      27.401  31.170  15.615  1.00  0.00    -0.246 OA
BRANCH  41  43
ATOM     43  O   UNL     1      28.905  29.509  15.420  1.00  0.00    -0.477 OA
ATOM     44  H   UNL     1      29.318  29.476  14.499  1.00  0.00     0.296 HD
ENDBRANCH  41  43
ENDBRANCH   1  41
BRANCH   3  45
ATOM     45  O   UNL     1      31.954  32.811  14.754  1.00  0.00    -0.391 OA
ATOM     46  H   UNL     1      32.632  32.524  15.416  1.00  0.00     0.211 HD
ENDBRANCH   3  45
BRANCH   5  47
ATOM     47  C   UNL     1      30.246  34.068  18.460  1.00  0.00     0.176 C 
BRANCH  47  48
ATOM     48  O   UNL     1      31.063  32.942  18.690  1.00  0.00    -0.388 OA
ATOM     49  H   UNL     1      31.649  32.734  17.942  1.00  0.00     0.211 HD
ENDBRANCH  47  48
BRANCH  47  50
ATOM     50  C   UNL     1      29.429  34.298  19.679  1.00  0.00     0.165 C 
BRANCH  50  51
ATOM     51  O   UNL     1      29.127  33.049  20.211  1.00  0.00    -0.388 OA
ATOM     52  H   UNL     1      28.155  32.851  20.209  1.00  0.00     0.211 HD
ENDBRANCH  50  51
BRANCH  50  53
ATOM     53  C   UNL     1      28.175  35.079  19.495  1.00  0.00     0.154 C 
BRANCH  53  54
ATOM     54  N   UNL     1      27.007  34.333  19.151  1.00  0.00    -0.319 N 
ATOM     55  C   UNL     1      26.131  33.664  20.011  1.00  0.00     0.407 C 
ATOM     56  H   UNL     1      26.763  34.274  18.110  1.00  0.00     0.167 HD
ATOM     57  O   UNL     1      26.334  33.661  21.231  1.00  0.00    -0.225 OA
BRANCH  55  58
ATOM     58  O   UNL     1      25.015  32.988  19.524  1.00  0.00    -0.443 OA
BRANCH  58  59
ATOM     59  C   UNL     1      24.100  33.663  18.647  1.00  0.00     0.294 C 
BRANCH  59  60
ATOM     60  C   UNL     1      23.963  32.859  17.405  1.00  0.00     0.120 A 
ATOM     61  C   UNL     1      24.477  33.243  16.200  1.00  0.00     0.139 A 
ATOM     62  N   UNL     1      23.345  31.688  17.291  1.00  0.00    -0.132 NA
ATOM     63  N   UNL     1      24.151  32.262  15.341  1.00  0.00    -0.240 N 
ATOM     64  N   UNL     1      23.468  31.328  16.014  1.00  0.00    -0.066 NA
BRANCH  63  65
ATOM     65  C   UNL     1      24.452  32.138  13.930  1.00  0.00     0.169 C 
BRANCH  65  66
ATOM     66  C   UNL     1      24.318  33.466  13.319  1.00  0.00    -0.019 A 
ATOM     67  C   UNL     1      25.267  33.929  12.430  1.00  0.00     0.006 A 
ATOM     68  C   UNL     1      23.273  34.319  13.603  1.00  0.00     0.006 A 
ATOM     69  C   UNL     1      25.168  35.188  11.853  1.00  0.00     0.000 A 
ATOM     70  C   UNL     1      23.163  35.584  13.031  1.00  0.00     0.000 A 
ATOM     71  C   UNL     1      24.122  36.029  12.143  1.00  0.00     0.000 A 
ENDBRANCH  65  66
BRANCH  65  72
ATOM     72  C   UNL     1      23.623  31.082  13.315  1.00  0.00    -0.019 A 
ATOM     73  C   UNL     1      22.319  31.422  12.972  1.00  0.00     0.006 A 
ATOM     74  C   UNL     1      24.033  29.801  13.086  1.00  0.00     0.006 A 
ATOM     75  C   UNL     1      21.478  30.492  12.421  1.00  0.00     0.000 A 
ATOM     76  C   UNL     1      23.189  28.856  12.529  1.00  0.00     0.000 A 
ATOM     77  C   UNL     1      21.905  29.199  12.194  1.00  0.00     0.000 A 
ENDBRANCH  65  72
ENDBRANCH  63  65
ENDBRANCH  59  60
ENDBRANCH  58  59
ENDBRANCH  55  58
ENDBRANCH  53  54
ENDBRANCH  50  53
ENDBRANCH  47  50
ENDBRANCH   5  47
BRANCH   4  78
ATOM     78  N   UNL     1      29.342  34.604  14.921  1.00  0.00    -0.348 N 
ATOM     79  C   UNL     1      29.853  35.363  13.832  1.00  0.00     0.217 C 
ATOM     80  H   UNL     1      28.297  34.517  14.982  1.00  0.00     0.163 HD
ATOM     81  C   UNL     1      28.930  35.997  12.830  1.00  0.00     0.114 C 
ATOM     82  O   UNL     1      31.082  35.523  13.674  1.00  0.00    -0.275 OA
ENDBRANCH   4  78
TORSDOF 32
BEGIN_RES LYS A 131
REMARK  4 active torsions:
REMARK  status: ('A' for Active; 'I' for Inactive)
REMARK    1  A    between atoms: CA   and  CB  
REMARK    2  A    between atoms: CB   and  CG  
REMARK    3  A    between atoms: CG   and  CD  
REMARK    4  A    between atoms: CD   and  CE  
ROOT
ATOM      1  CA  LYS A 131      29.867  25.555  16.977  1.00 20.52     0.186 C 
ENDROOT
BRANCH   1   2
ATOM      2  CB  LYS A 131      28.345  25.722  17.026  1.00 20.94     0.034 C 
BRANCH   2   3
ATOM      3  CG  LYS A 131      27.600  24.408  16.848  1.00 22.96     0.005 C 
BRANCH   3   4
ATOM      4  CD  LYS A 131      26.662  24.129  17.990  1.00 24.33     0.041 C 
BRANCH   4   5
ATOM      5  CE  LYS A 131      26.081  25.443  18.503  1.00 26.91     0.338 C 
ATOM      6  NZ  LYS A 131      24.807  25.752  17.812  1.00 27.40     0.618 N 
ENDBRANCH   4   5
ENDBRANCH   3   4
ENDBRANCH   2   3
ENDBRANCH   1   2
END_RES LYS A 131
BEGIN_RES LYS A 135
REMARK  4 active torsions:
REMARK  status: ('A' for Active; 'I' for Inactive)
REMARK    5  A    between atoms: CA   and  CB  
REMARK    6  A    between atoms: CB   and  CG  
REMARK    7  A    between atoms: CG   and  CD  
REMARK    8  A    between atoms: CD   and  CE  
ROOT
ATOM      7  CA  LYS A 135      33.193  34.663   9.290  1.00 25.02     0.186 C 
ENDROOT
BRANCH   7   8
ATOM      8  CB  LYS A 135      32.060  35.360  10.034  1.00 26.63     0.034 C 
BRANCH   8   9
ATOM      9  CG  LYS A 135      30.707  34.747   9.781  1.00 29.45     0.005 C 
BRANCH   9  10
ATOM     10  CD  LYS A 135      30.526  34.435   8.304  1.00 32.00     0.041 C 
BRANCH  10  11
ATOM     11  CE  LYS A 135      29.250  35.064   7.778  1.00 34.25     0.338 C 
ATOM     12  NZ  LYS A 135      28.052  34.482   8.444  1.00 35.99     0.618 N 
ENDBRANCH  10  11
ENDBRANCH   9  10
ENDBRANCH   8   9
ENDBRANCH   7   8
END_RES LYS A 135
