REMARK VINA RESULT:    -5.362      2.735      5.949
REMARK INTER + INTRA:         -22.957
REMARK INTER:                 -12.666
REMARK INTRA:                 -10.291
REMARK UNBOUND:                -9.445
REMARK SMILES CC(=O)N[C@@H]1[C@@H](O)C[C@](OC[C@H]2O[C@@H](O[C@H]3[C@H](O)[C@@H](O)[C@H](OCCN=[N+]=[N-])O[C@@H]3CO)[C@H](O)[C@@H](O)[C@H]2O)(C(=O)O)O[C@H]1C(O)[C@H](O)CNC(=O)OCc1cn(Cc2cccc(Br)c2)nn1
REMARK SMILES IDX 9 1 8 2 6 3 5 4 42 5 41 6 10 7 11 8 12 9 14 10 13 11 32 12
REMARK SMILES IDX 34 13 36 14 15 15 16 16 29 17 28 18 21 19 17 20 19 21 30 22
REMARK SMILES IDX 31 23 22 25 23 26 24 27 25 28 26 29 27 30 18 31 20 33 33 35
REMARK SMILES IDX 35 37 37 39 38 41 39 42 40 43 7 45 43 47 44 48 45 50 46 51
REMARK SMILES IDX 47 53 48 54 49 55 50 57 51 58 52 59 53 60 54 61 65 62 55 63
REMARK SMILES IDX 64 64 56 65 57 66 58 67 63 68 59 69 61 70 60 71 62 72 4 73
REMARK SMILES IDX 2 74 1 76 3 77
REMARK H PARENT 31 24 18 32 20 34 33 36 35 38 37 40 40 44 7 46 44 49 46 52
REMARK H PARENT 48 56 4 75
REMARK Flexibility Score: inf
ROOT
ATOM      1  C   UNL     1      28.926  32.112  17.134  1.00  0.00     0.272 C 
ATOM      2  C   UNL     1      29.755  32.137  18.362  1.00  0.00     0.113 C 
ATOM      3  C   UNL     1      29.705  30.889  19.185  1.00  0.00     0.145 C 
ATOM      4  C   UNL     1      28.364  30.195  19.122  1.00  0.00     0.142 C 
ATOM      5  C   UNL     1      27.628  30.394  17.873  1.00  0.00     0.178 C 
ATOM      6  O   UNL     1      28.312  30.930  16.827  1.00  0.00    -0.332 OA
ENDROOT
BRANCH   1   7
ATOM      7  O   UNL     1      29.733  32.528  16.028  1.00  0.00    -0.338 OA
BRANCH   7   8
ATOM      8  C   UNL     1      31.067  32.354  16.256  1.00  0.00     0.199 C 
BRANCH   8   9
ATOM      9  C   UNL     1      31.891  33.393  15.467  1.00  0.00     0.179 C 
ATOM     10  C   UNL     1      31.500  34.919  13.733  1.00  0.00     0.282 C 
ATOM     11  O   UNL     1      31.140  33.716  14.385  1.00  0.00    -0.341 OA
ATOM     12  C   UNL     1      32.822  35.416  14.166  1.00  0.00     0.202 C 
ATOM     13  C   UNL     1      32.935  35.579  15.671  1.00  0.00     0.179 C 
ATOM     14  C   UNL     1      32.018  34.596  16.377  1.00  0.00     0.177 C 
BRANCH  10  15
ATOM     15  O   UNL     1      30.414  35.738  13.924  1.00  0.00    -0.341 OA
BRANCH  15  16
ATOM     16  C   UNL     1      29.447  35.713  12.985  1.00  0.00     0.184 C 
ATOM     17  C   UNL     1      29.163  37.122  12.531  1.00  0.00     0.178 C 
ATOM     18  O   UNL     1      28.294  37.074  11.444  1.00  0.00    -0.341 OA
ATOM     19  C   UNL     1      27.029  36.578  11.768  1.00  0.00     0.281 C 
ATOM     20  C   UNL     1      28.100  35.210  13.495  1.00  0.00     0.180 C 
ATOM     21  C   UNL     1      27.216  35.156  12.240  1.00  0.00     0.202 C 
BRANCH  17  22
ATOM     22  C   UNL     1      30.431  37.760  12.074  1.00  0.00     0.191 C 
BRANCH  22  23
ATOM     23  O   UNL     1      31.058  38.420  13.116  1.00  0.00    -0.394 OA
ATOM     24  H   UNL     1      31.247  37.752  13.825  1.00  0.00     0.210 HD
ENDBRANCH  22  23
ENDBRANCH  17  22
BRANCH  19  25
ATOM     25  O   UNL     1      26.274  36.672  10.618  1.00  0.00    -0.350 OA
BRANCH  25  26
ATOM     26  C   UNL     1      26.119  37.936  10.119  1.00  0.00     0.169 C 
BRANCH  26  27
ATOM     27  C   UNL     1      26.280  38.041   8.620  1.00  0.00     0.119 C 
BRANCH  27  28
ATOM     28  N   UNL     1      25.405  37.056   8.026  1.00  0.00    -0.092 NA
ATOM     29  N   UNL     1      24.211  37.226   7.826  1.00  0.00     0.001 N 
ATOM     30  N   UNL     1      23.059  37.544   7.540  1.00  0.00    -0.003 NA
ENDBRANCH  27  28
ENDBRANCH  26  27
ENDBRANCH  25  26
ENDBRANCH  19  25
BRANCH  20  31
ATOM     31  O   UNL     1      28.141  33.952  14.024  1.00  0.00    -0.387 OA
ATOM     32  H   UNL     1      27.499  33.313  13.642  1.00  0.00     0.211 HD
ENDBRANCH  20  31
BRANCH  21  33
ATOM     33  O   UNL     1      26.056  34.519  12.594  1.00  0.00    -0.385 OA
ATOM     34  H   UNL     1      25.890  33.683  12.051  1.00  0.00     0.211 HD
ENDBRANCH  21  33
ENDBRANCH  15  16
ENDBRANCH  10  15
BRANCH  12  35
ATOM     35  O   UNL     1      33.786  34.457  13.760  1.00  0.00    -0.385 OA
ATOM     36  H   UNL     1      34.459  34.349  14.480  1.00  0.00     0.211 HD
ENDBRANCH  12  35
BRANCH  13  37
ATOM     37  O   UNL     1      32.734  36.893  16.081  1.00  0.00    -0.387 OA
ATOM     38  H   UNL     1      33.477  37.143  16.721  1.00  0.00     0.211 HD
ENDBRANCH  13  37
BRANCH  14  39
ATOM     39  O   UNL     1      30.758  35.091  16.623  1.00  0.00    -0.387 OA
ATOM     40  H   UNL     1      30.059  34.467  16.257  1.00  0.00     0.211 HD
ENDBRANCH  14  39
ENDBRANCH   8   9
ENDBRANCH   7   8
ENDBRANCH   1   7
BRANCH   1  41
ATOM     41  C   UNL     1      27.888  33.182  17.227  1.00  0.00     0.364 C 
ATOM     42  O   UNL     1      28.077  34.162  18.031  1.00  0.00    -0.246 OA
BRANCH  41  43
ATOM     43  O   UNL     1      26.716  33.226  16.524  1.00  0.00    -0.477 OA
ATOM     44  H   UNL     1      25.854  32.950  17.013  1.00  0.00     0.296 HD
ENDBRANCH  41  43
ENDBRANCH   1  41
BRANCH   3  45
ATOM     45  O   UNL     1      30.768  30.045  18.901  1.00  0.00    -0.391 OA
ATOM     46  H   UNL     1      31.010  29.445  19.640  1.00  0.00     0.211 HD
ENDBRANCH   3  45
BRANCH   5  47
ATOM     47  C   UNL     1      26.907  29.120  17.400  1.00  0.00     0.176 C 
BRANCH  47  48
ATOM     48  O   UNL     1      27.545  28.040  18.133  1.00  0.00    -0.388 OA
ATOM     49  H   UNL     1      27.975  27.466  17.449  1.00  0.00     0.211 HD
ENDBRANCH  47  48
BRANCH  47  50
ATOM     50  C   UNL     1      25.463  29.053  17.736  1.00  0.00     0.165 C 
BRANCH  50  51
ATOM     51  O   UNL     1      25.069  27.714  17.360  1.00  0.00    -0.388 OA
ATOM     52  H   UNL     1      24.064  27.699  17.330  1.00  0.00     0.211 HD
ENDBRANCH  50  51
BRANCH  50  53
ATOM     53  C   UNL     1      24.524  29.919  16.966  1.00  0.00     0.154 C 
BRANCH  53  54
ATOM     54  N   UNL     1      24.497  31.303  17.413  1.00  0.00    -0.319 N 
ATOM     55  C   UNL     1      23.375  31.768  18.143  1.00  0.00     0.407 C 
ATOM     56  H   UNL     1      25.276  31.955  17.215  1.00  0.00     0.167 HD
ATOM     57  O   UNL     1      22.413  30.989  18.392  1.00  0.00    -0.225 OA
BRANCH  55  58
ATOM     58  O   UNL     1      23.305  33.084  18.600  1.00  0.00    -0.443 OA
BRANCH  58  59
ATOM     59  C   UNL     1      22.538  34.026  17.838  1.00  0.00     0.294 C 
BRANCH  59  60
ATOM     60  C   UNL     1      22.973  33.943  16.425  1.00  0.00     0.120 A 
ATOM     61  C   UNL     1      22.278  33.462  15.343  1.00  0.00     0.138 A 
ATOM     62  N   UNL     1      24.169  34.347  15.975  1.00  0.00    -0.132 NA
ATOM     63  N   UNL     1      23.079  33.591  14.269  1.00  0.00    -0.248 N 
ATOM     64  N   UNL     1      24.219  34.128  14.676  1.00  0.00    -0.067 NA
BRANCH  63  65
ATOM     65  C   UNL     1      22.724  33.198  12.908  1.00  0.00     0.181 C 
BRANCH  65  66
ATOM     66  C   UNL     1      22.634  31.721  12.779  1.00  0.00    -0.025 A 
ATOM     67  C   UNL     1      23.754  30.932  12.945  1.00  0.00     0.006 A 
ATOM     68  C   UNL     1      21.460  31.069  12.491  1.00  0.00     0.021 A 
ATOM     69  C   UNL     1      23.737  29.559  12.836  1.00  0.00     0.002 A 
ATOM     70  C   UNL     1      21.408  29.699  12.375  1.00  0.00     0.018 A 
ATOM     71  C   UNL     1      22.524  28.921  12.541  1.00  0.00     0.016 A 
ATOM     72  Br  UNL     1      19.773  28.786  11.975  1.00  0.00    -0.051 Br
ENDBRANCH  65  66
ENDBRANCH  63  65
ENDBRANCH  59  60
ENDBRANCH  58  59
ENDBRANCH  55  58
ENDBRANCH  53  54
ENDBRANCH  50  53
ENDBRANCH  47  50
ENDBRANCH   5  47
BRANCH   4  73
ATOM     73  N   UNL     1      27.541  30.625  20.282  1.00  0.00    -0.348 N 
ATOM     74  C   UNL     1      27.043  29.671  21.203  1.00  0.00     0.217 C 
ATOM     75  H   UNL     1      27.314  31.640  20.438  1.00  0.00     0.163 HD
ATOM     76  C   UNL     1      26.207  30.083  22.385  1.00  0.00     0.114 C 
ATOM     77  O   UNL     1      27.313  28.455  21.018  1.00  0.00    -0.275 OA
ENDBRANCH   4  73
TORSDOF 31
BEGIN_RES LYS A 131
REMARK  4 active torsions:
REMARK  status: ('A' for Active; 'I' for Inactive)
REMARK    1  A    between atoms: CA   and  CB  
REMARK    2  A    between atoms: CB   and  CG  
REMARK    3  A    between atoms: CG   and  CD  
REMARK    4  A    between atoms: CD   and  CE  
ROOT
ATOM      1  CA  LYS A 131      29.867  25.555  16.977  1.00 20.52     0.186 C 
ENDROOT
BRANCH   1   2
ATOM      2  CB  LYS A 131      28.345  25.722  17.026  1.00 20.94     0.034 C 
BRANCH   2   3
ATOM      3  CG  LYS A 131      27.601  24.401  16.906  1.00 22.96     0.005 C 
BRANCH   3   4
ATOM      4  CD  LYS A 131      26.154  24.528  17.291  1.00 24.33     0.041 C 
BRANCH   4   5
ATOM      5  CE  LYS A 131      25.640  23.182  17.791  1.00 26.91     0.338 C 
ATOM      6  NZ  LYS A 131      25.525  23.186  19.268  1.00 27.40     0.618 N 
ENDBRANCH   4   5
ENDBRANCH   3   4
ENDBRANCH   2   3
ENDBRANCH   1   2
END_RES LYS A 131
BEGIN_RES LYS A 135
REMARK  4 active torsions:
REMARK  status: ('A' for Active; 'I' for Inactive)
REMARK    5  A    between atoms: CA   and  CB  
REMARK    6  A    between atoms: CB   and  CG  
REMARK    7  A    between atoms: CG   and  CD  
REMARK    8  A    between atoms: CD   and  CE  
ROOT
ATOM      7  CA  LYS A 135      33.193  34.663   9.290  1.00 25.02     0.186 C 
ENDROOT
BRANCH   7   8
ATOM      8  CB  LYS A 135      32.060  35.360  10.034  1.00 26.63     0.034 C 
BRANCH   8   9
ATOM      9  CG  LYS A 135      30.809  35.524   9.210  1.00 29.45     0.005 C 
BRANCH   9  10
ATOM     10  CD  LYS A 135      29.928  34.290   9.319  1.00 32.00     0.041 C 
BRANCH  10  11
ATOM     11  CE  LYS A 135      28.611  34.510   8.601  1.00 34.25     0.338 C 
ATOM     12  NZ  LYS A 135      27.508  33.758   9.260  1.00 35.99     0.618 N 
ENDBRANCH  10  11
ENDBRANCH   9  10
ENDBRANCH   8   9
ENDBRANCH   7   8
END_RES LYS A 135
