REMARK VINA RESULT:    -4.351      3.702      6.661
REMARK INTER + INTRA:         -24.800
REMARK INTER:                 -14.305
REMARK INTRA:                 -10.495
REMARK UNBOUND:               -13.073
REMARK SMILES CC(=O)N[C@@H]1[C@@H](O)C[C@](OC[C@H]2O[C@@H](O[C@H]3[C@H](O)[C@@H](O)[C@H](OCCN=[N+]=[N-])O[C@@H]3CO)[C@H](O)[C@@H](O)[C@H]2O)(C(=O)O)O[C@H]1C(O)[C@H](O)CNC(=O)OCc1cn(C[C@@H](C)CN2CCN(c3ccc(Cl)cc3)CC2)nn1
REMARK SMILES IDX 43 1 42 2 9 3 8 4 41 5 6 6 5 7 10 8 11 9 12 10 14 11 13 12
REMARK SMILES IDX 32 13 34 14 36 15 15 16 16 17 29 18 28 19 21 20 17 21 19 22
REMARK SMILES IDX 30 23 31 24 22 26 23 27 24 28 25 29 26 30 27 31 18 32 20 34
REMARK SMILES IDX 33 36 35 38 37 40 38 42 39 43 40 44 7 46 4 48 2 49 1 51 3 52
REMARK SMILES IDX 44 53 45 55 46 56 47 58 48 59 49 60 50 62 51 63 52 64 53 65
REMARK SMILES IDX 54 66 74 67 55 68 73 69 56 70 57 71 58 72 59 73 60 74 61 75
REMARK SMILES IDX 72 76 62 77 71 78 63 79 64 80 65 81 70 82 66 83 69 84 67 85
REMARK SMILES IDX 68 86
REMARK H PARENT 31 25 18 33 20 35 33 37 35 39 37 41 40 45 7 47 4 50 44 54
REMARK H PARENT 46 57 48 61
REMARK Flexibility Score: inf
ROOT
ATOM      1  C   UNL     1      27.208  37.433   6.180  1.00  0.00     0.176 C 
ENDROOT
BRANCH   1   2
ATOM      2  C   UNL     1      26.620  38.485   7.110  1.00  0.00     0.178 C 
ATOM      3  C   UNL     1      24.821  38.951   8.568  1.00  0.00     0.272 C 
ATOM      4  C   UNL     1      25.138  40.342   8.318  1.00  0.00     0.113 C 
ATOM      5  O   UNL     1      25.386  38.130   7.543  1.00  0.00    -0.332 OA
ATOM      6  C   UNL     1      25.480  40.627   6.867  1.00  0.00     0.145 C 
ATOM      7  C   UNL     1      26.776  39.863   6.562  1.00  0.00     0.142 C 
BRANCH   3   8
ATOM      8  O   UNL     1      23.565  38.524   8.659  1.00  0.00    -0.338 OA
BRANCH   8   9
ATOM      9  C   UNL     1      22.974  37.539   8.033  1.00  0.00     0.199 C 
BRANCH   9  10
ATOM     10  C   UNL     1      22.647  36.227   8.685  1.00  0.00     0.179 C 
ATOM     11  C   UNL     1      21.967  35.626  10.834  1.00  0.00     0.282 C 
ATOM     12  O   UNL     1      22.919  36.181  10.022  1.00  0.00    -0.341 OA
ATOM     13  C   UNL     1      20.716  36.483  10.788  1.00  0.00     0.202 C 
ATOM     14  C   UNL     1      20.243  36.545   9.372  1.00  0.00     0.179 C 
ATOM     15  C   UNL     1      21.173  35.905   8.399  1.00  0.00     0.177 C 
BRANCH  11  16
ATOM     16  O   UNL     1      22.483  35.707  12.150  1.00  0.00    -0.341 OA
BRANCH  16  17
ATOM     17  C   UNL     1      23.138  34.542  12.459  1.00  0.00     0.184 C 
ATOM     18  C   UNL     1      22.372  33.685  13.447  1.00  0.00     0.178 C 
ATOM     19  O   UNL     1      22.939  33.590  14.681  1.00  0.00    -0.341 OA
ATOM     20  C   UNL     1      24.250  33.150  14.726  1.00  0.00     0.281 C 
ATOM     21  C   UNL     1      24.556  34.802  12.955  1.00  0.00     0.180 C 
ATOM     22  C   UNL     1      25.068  33.493  13.511  1.00  0.00     0.202 C 
BRANCH  18  23
ATOM     23  C   UNL     1      21.986  32.339  12.854  1.00  0.00     0.191 C 
BRANCH  23  24
ATOM     24  O   UNL     1      21.512  31.468  13.803  1.00  0.00    -0.394 OA
ATOM     25  H   UNL     1      22.307  30.960  14.155  1.00  0.00     0.210 HD
ENDBRANCH  23  24
ENDBRANCH  18  23
BRANCH  20  26
ATOM     26  O   UNL     1      24.344  31.788  14.986  1.00  0.00    -0.350 OA
BRANCH  26  27
ATOM     27  C   UNL     1      24.446  31.440  16.302  1.00  0.00     0.169 C 
BRANCH  27  28
ATOM     28  C   UNL     1      25.697  30.656  16.581  1.00  0.00     0.119 C 
BRANCH  28  29
ATOM     29  N   UNL     1      26.849  31.418  16.128  1.00  0.00    -0.092 NA
ATOM     30  N   UNL     1      27.884  30.816  15.787  1.00  0.00     0.001 N 
ATOM     31  N   UNL     1      28.834  30.106  15.484  1.00  0.00    -0.003 NA
ENDBRANCH  28  29
ENDBRANCH  27  28
ENDBRANCH  26  27
ENDBRANCH  20  26
BRANCH  21  32
ATOM     32  O   UNL     1      25.389  35.163  11.898  1.00  0.00    -0.387 OA
ATOM     33  H   UNL     1      24.810  35.682  11.267  1.00  0.00     0.211 HD
ENDBRANCH  21  32
BRANCH  22  34
ATOM     34  O   UNL     1      26.405  33.691  13.934  1.00  0.00    -0.385 OA
ATOM     35  H   UNL     1      27.060  33.371  13.294  1.00  0.00     0.211 HD
ENDBRANCH  22  34
ENDBRANCH  16  17
ENDBRANCH  11  16
BRANCH  13  36
ATOM     36  O   UNL     1      19.788  35.936  11.657  1.00  0.00    -0.385 OA
ATOM     37  H   UNL     1      20.299  35.358  12.297  1.00  0.00     0.211 HD
ENDBRANCH  13  36
BRANCH  14  38
ATOM     38  O   UNL     1      19.909  37.843   8.962  1.00  0.00    -0.387 OA
ATOM     39  H   UNL     1      19.853  38.455   9.731  1.00  0.00     0.211 HD
ENDBRANCH  14  38
BRANCH  15  40
ATOM     40  O   UNL     1      20.881  36.281   7.111  1.00  0.00    -0.387 OA
ATOM     41  H   UNL     1      20.536  37.201   7.055  1.00  0.00     0.211 HD
ENDBRANCH  15  40
ENDBRANCH   9  10
ENDBRANCH   8   9
ENDBRANCH   3   8
BRANCH   3  42
ATOM     42  C   UNL     1      25.599  38.449   9.769  1.00  0.00     0.364 C 
ATOM     43  O   UNL     1      26.161  39.277  10.567  1.00  0.00    -0.246 OA
BRANCH  42  44
ATOM     44  O   UNL     1      25.764  37.124  10.083  1.00  0.00    -0.477 OA
ATOM     45  H   UNL     1      26.673  36.741  10.310  1.00  0.00     0.296 HD
ENDBRANCH  42  44
ENDBRANCH   3  42
BRANCH   6  46
ATOM     46  O   UNL     1      24.432  40.125   6.095  1.00  0.00    -0.391 OA
ATOM     47  H   UNL     1      24.231  40.714   5.328  1.00  0.00     0.211 HD
ENDBRANCH   6  46
BRANCH   7  48
ATOM     48  N   UNL     1      27.858  40.595   7.189  1.00  0.00    -0.348 N 
ATOM     49  C   UNL     1      29.087  40.772   6.504  1.00  0.00     0.217 C 
ATOM     50  H   UNL     1      27.777  41.013   8.156  1.00  0.00     0.163 HD
ATOM     51  C   UNL     1      30.187  41.539   7.190  1.00  0.00     0.114 C 
ATOM     52  O   UNL     1      29.305  40.317   5.345  1.00  0.00    -0.275 OA
ENDBRANCH   7  48
ENDBRANCH   1   2
BRANCH   1  53
ATOM     53  O   UNL     1      27.384  38.034   4.935  1.00  0.00    -0.388 OA
ATOM     54  H   UNL     1      26.630  37.838   4.332  1.00  0.00     0.211 HD
ENDBRANCH   1  53
BRANCH   1  55
ATOM     55  C   UNL     1      28.558  36.928   6.605  1.00  0.00     0.165 C 
BRANCH  55  56
ATOM     56  O   UNL     1      29.627  37.489   5.958  1.00  0.00    -0.388 OA
ATOM     57  H   UNL     1      29.760  38.426   6.182  1.00  0.00     0.211 HD
ENDBRANCH  55  56
BRANCH  55  58
ATOM     58  C   UNL     1      28.678  35.443   6.657  1.00  0.00     0.154 C 
BRANCH  58  59
ATOM     59  N   UNL     1      28.769  35.034   8.060  1.00  0.00    -0.319 N 
ATOM     60  C   UNL     1      27.624  34.630   8.786  1.00  0.00     0.407 C 
ATOM     61  H   UNL     1      29.698  35.044   8.527  1.00  0.00     0.167 HD
ATOM     62  O   UNL     1      26.517  34.635   8.193  1.00  0.00    -0.225 OA
BRANCH  60  63
ATOM     63  O   UNL     1      27.734  34.240  10.114  1.00  0.00    -0.443 OA
BRANCH  63  64
ATOM     64  C   UNL     1      28.966  34.502  10.786  1.00  0.00     0.294 C 
BRANCH  64  65
ATOM     65  C   UNL     1      28.831  35.554  11.818  1.00  0.00     0.120 A 
ATOM     66  C   UNL     1      29.541  35.663  12.993  1.00  0.00     0.138 A 
ATOM     67  N   UNL     1      27.984  36.610  11.813  1.00  0.00    -0.132 NA
ATOM     68  N   UNL     1      29.103  36.748  13.624  1.00  0.00    -0.252 N 
ATOM     69  N   UNL     1      28.160  37.318  12.908  1.00  0.00    -0.067 NA
BRANCH  68  70
ATOM     70  C   UNL     1      29.600  37.206  14.922  1.00  0.00     0.150 C 
BRANCH  70  71
ATOM     71  C   UNL     1      30.832  36.399  15.343  1.00  0.00     0.022 C 
ATOM     72  C   UNL     1      32.012  37.332  15.180  1.00  0.00     0.011 C 
BRANCH  71  73
ATOM     73  C   UNL     1      30.666  35.960  16.764  1.00  0.00     0.089 C 
BRANCH  73  74
ATOM     74  N   UNL     1      30.254  34.642  17.017  1.00  0.00    -0.299 NA
ATOM     75  C   UNL     1      28.956  34.357  17.462  1.00  0.00     0.106 C 
ATOM     76  C   UNL     1      31.290  33.751  17.430  1.00  0.00     0.106 C 
ATOM     77  C   UNL     1      28.943  33.485  18.717  1.00  0.00     0.132 C 
ATOM     78  C   UNL     1      30.755  32.330  17.450  1.00  0.00     0.132 C 
ATOM     79  N   UNL     1      29.741  32.285  18.471  1.00  0.00    -0.369 N 
BRANCH  79  80
ATOM     80  C   UNL     1      29.501  31.135  19.234  1.00  0.00     0.037 A 
ATOM     81  C   UNL     1      28.227  30.593  19.378  1.00  0.00     0.027 A 
ATOM     82  C   UNL     1      30.513  30.448  19.892  1.00  0.00     0.027 A 
ATOM     83  C   UNL     1      27.966  29.463  20.115  1.00  0.00     0.022 A 
ATOM     84  C   UNL     1      30.255  29.312  20.633  1.00  0.00     0.022 A 
ATOM     85  C   UNL     1      28.981  28.802  20.756  1.00  0.00     0.041 A 
ATOM     86  Cl  UNL     1      28.653  27.377  21.684  1.00  0.00    -0.084 Cl
ENDBRANCH  79  80
ENDBRANCH  73  74
ENDBRANCH  71  73
ENDBRANCH  70  71
ENDBRANCH  68  70
ENDBRANCH  64  65
ENDBRANCH  63  64
ENDBRANCH  60  63
ENDBRANCH  58  59
ENDBRANCH  55  58
ENDBRANCH   1  55
TORSDOF 34
BEGIN_RES LYS A 131
REMARK  4 active torsions:
REMARK  status: ('A' for Active; 'I' for Inactive)
REMARK    1  A    between atoms: CA   and  CB  
REMARK    2  A    between atoms: CB   and  CG  
REMARK    3  A    between atoms: CG   and  CD  
REMARK    4  A    between atoms: CD   and  CE  
ROOT
ATOM      1  CA  LYS A 131      29.867  25.555  16.977  1.00 20.52     0.186 C 
ENDROOT
BRANCH   1   2
ATOM      2  CB  LYS A 131      28.345  25.722  17.026  1.00 20.94     0.034 C 
BRANCH   2   3
ATOM      3  CG  LYS A 131      27.602  24.398  16.935  1.00 22.96     0.005 C 
BRANCH   3   4
ATOM      4  CD  LYS A 131      26.130  24.556  17.195  1.00 24.33     0.041 C 
BRANCH   4   5
ATOM      5  CE  LYS A 131      25.881  24.602  18.699  1.00 26.91     0.338 C 
ATOM      6  NZ  LYS A 131      25.549  23.252  19.213  1.00 27.40     0.618 N 
ENDBRANCH   4   5
ENDBRANCH   3   4
ENDBRANCH   2   3
ENDBRANCH   1   2
END_RES LYS A 131
BEGIN_RES LYS A 135
REMARK  4 active torsions:
REMARK  status: ('A' for Active; 'I' for Inactive)
REMARK    5  A    between atoms: CA   and  CB  
REMARK    6  A    between atoms: CB   and  CG  
REMARK    7  A    between atoms: CG   and  CD  
REMARK    8  A    between atoms: CD   and  CE  
ROOT
ATOM      7  CA  LYS A 135      33.193  34.663   9.290  1.00 25.02     0.186 C 
ENDROOT
BRANCH   7   8
ATOM      8  CB  LYS A 135      32.060  35.360  10.034  1.00 26.63     0.034 C 
BRANCH   8   9
ATOM      9  CG  LYS A 135      32.536  36.323  11.091  1.00 29.45     0.005 C 
BRANCH   9  10
ATOM     10  CD  LYS A 135      31.879  37.683  10.913  1.00 32.00     0.041 C 
BRANCH  10  11
ATOM     11  CE  LYS A 135      30.992  37.689   9.683  1.00 34.25     0.338 C 
ATOM     12  NZ  LYS A 135      29.930  38.727   9.793  1.00 35.99     0.618 N 
ENDBRANCH  10  11
ENDBRANCH   9  10
ENDBRANCH   8   9
ENDBRANCH   7   8
END_RES LYS A 135
