REMARK VINA RESULT:    -4.032      4.808     10.694
REMARK INTER + INTRA:         -21.099
REMARK INTER:                  -8.578
REMARK INTRA:                 -12.521
REMARK UNBOUND:               -10.939
REMARK SMILES CC(=O)N[C@@H]1[C@@H](O)C[C@](OC[C@H]2O[C@@H](O[C@H]3[C@H](O)[C@@H](O)[C@H](OCCN=[N+]=[N-])O[C@@H]3CO)[C@H](O)[C@@H](O)[C@H]2O)(C(=O)O)O[C@H]1C(O)[C@H](O)CNC(=O)OCc1cn(Cc2ccsc2)nn1
REMARK SMILES IDX 9 1 8 2 6 3 5 4 42 5 41 6 10 7 11 8 12 9 14 10 13 11 32 12
REMARK SMILES IDX 34 13 36 14 15 15 16 16 29 17 28 18 21 19 17 20 19 21 30 22
REMARK SMILES IDX 31 23 22 25 23 26 24 27 25 28 26 29 27 30 18 31 20 33 33 35
REMARK SMILES IDX 35 37 37 39 38 41 39 42 40 43 7 45 43 47 44 48 45 50 46 51
REMARK SMILES IDX 47 53 48 54 49 55 50 57 51 58 52 59 53 60 54 61 63 62 55 63
REMARK SMILES IDX 62 64 56 65 57 66 58 67 61 68 59 69 60 70 4 71 2 72 1 74
REMARK SMILES IDX 3 75
REMARK H PARENT 31 24 18 32 20 34 33 36 35 38 37 40 40 44 7 46 44 49 46 52
REMARK H PARENT 48 56 4 73
REMARK Flexibility Score: inf
ROOT
ATOM      1  C   UNL     1      28.113  33.134  19.401  1.00  0.00     0.272 C 
ATOM      2  C   UNL     1      26.942  32.433  18.780  1.00  0.00     0.113 C 
ATOM      3  C   UNL     1      26.289  33.173  17.645  1.00  0.00     0.145 C 
ATOM      4  C   UNL     1      27.260  33.789  16.714  1.00  0.00     0.142 C 
ATOM      5  C   UNL     1      28.594  34.152  17.338  1.00  0.00     0.178 C 
ATOM      6  O   UNL     1      29.044  33.326  18.305  1.00  0.00    -0.332 OA
ENDROOT
BRANCH   1   7
ATOM      7  O   UNL     1      28.797  32.276  20.187  1.00  0.00    -0.338 OA
BRANCH   7   8
ATOM      8  C   UNL     1      30.105  32.264  20.361  1.00  0.00     0.199 C 
BRANCH   8   9
ATOM      9  C   UNL     1      30.883  31.123  20.872  1.00  0.00     0.179 C 
ATOM     10  C   UNL     1      30.885  29.810  22.730  1.00  0.00     0.282 C 
ATOM     11  O   UNL     1      30.018  30.459  21.821  1.00  0.00    -0.341 OA
ATOM     12  C   UNL     1      31.936  29.002  22.050  1.00  0.00     0.202 C 
ATOM     13  C   UNL     1      31.829  28.878  20.573  1.00  0.00     0.179 C 
ATOM     14  C   UNL     1      31.138  30.011  19.869  1.00  0.00     0.177 C 
BRANCH  10  15
ATOM     15  O   UNL     1      30.112  29.089  23.604  1.00  0.00    -0.341 OA
BRANCH  15  16
ATOM     16  C   UNL     1      28.918  28.609  23.042  1.00  0.00     0.184 C 
ATOM     17  C   UNL     1      27.717  29.186  23.703  1.00  0.00     0.178 C 
ATOM     18  O   UNL     1      27.130  28.456  24.690  1.00  0.00    -0.341 OA
ATOM     19  C   UNL     1      27.801  27.268  25.029  1.00  0.00     0.281 C 
ATOM     20  C   UNL     1      28.926  27.120  22.895  1.00  0.00     0.180 C 
ATOM     21  C   UNL     1      27.848  26.456  23.763  1.00  0.00     0.202 C 
BRANCH  17  22
ATOM     22  C   UNL     1      26.642  29.595  22.708  1.00  0.00     0.191 C 
BRANCH  22  23
ATOM     23  O   UNL     1      27.290  29.847  21.499  1.00  0.00    -0.394 OA
ATOM     24  H   UNL     1      27.388  30.831  21.331  1.00  0.00     0.210 HD
ENDBRANCH  22  23
ENDBRANCH  17  22
BRANCH  19  25
ATOM     25  O   UNL     1      27.121  26.699  26.070  1.00  0.00    -0.350 OA
BRANCH  25  26
ATOM     26  C   UNL     1      27.857  26.584  27.233  1.00  0.00     0.169 C 
BRANCH  26  27
ATOM     27  C   UNL     1      29.332  26.770  27.089  1.00  0.00     0.119 C 
BRANCH  27  28
ATOM     28  N   UNL     1      30.055  25.931  28.006  1.00  0.00    -0.092 NA
ATOM     29  N   UNL     1      29.740  24.732  28.075  1.00  0.00     0.001 N 
ATOM     30  N   UNL     1      29.718  23.519  28.278  1.00  0.00    -0.003 NA
ENDBRANCH  27  28
ENDBRANCH  26  27
ENDBRANCH  25  26
ENDBRANCH  19  25
BRANCH  20  31
ATOM     31  O   UNL     1      28.851  26.675  21.593  1.00  0.00    -0.387 OA
ATOM     32  H   UNL     1      29.356  27.256  20.986  1.00  0.00     0.211 HD
ENDBRANCH  20  31
BRANCH  21  33
ATOM     33  O   UNL     1      28.101  25.129  23.993  1.00  0.00    -0.385 OA
ATOM     34  H   UNL     1      29.068  24.904  23.920  1.00  0.00     0.211 HD
ENDBRANCH  21  33
ENDBRANCH  15  16
ENDBRANCH  10  15
BRANCH  12  35
ATOM     35  O   UNL     1      33.238  29.405  22.447  1.00  0.00    -0.385 OA
ATOM     36  H   UNL     1      33.817  28.606  22.554  1.00  0.00     0.211 HD
ENDBRANCH  12  35
BRANCH  13  37
ATOM     37  O   UNL     1      31.105  27.707  20.269  1.00  0.00    -0.387 OA
ATOM     38  H   UNL     1      30.299  27.966  19.766  1.00  0.00     0.211 HD
ENDBRANCH  13  37
BRANCH  14  39
ATOM     39  O   UNL     1      29.848  29.611  19.440  1.00  0.00    -0.387 OA
ATOM     40  H   UNL     1      29.952  29.460  18.450  1.00  0.00     0.211 HD
ENDBRANCH  14  39
ENDBRANCH   8   9
ENDBRANCH   7   8
ENDBRANCH   1   7
BRANCH   1  41
ATOM     41  C   UNL     1      27.844  34.491  19.876  1.00  0.00     0.364 C 
ATOM     42  O   UNL     1      26.711  34.884  20.213  1.00  0.00    -0.246 OA
BRANCH  41  43
ATOM     43  O   UNL     1      28.861  35.458  19.987  1.00  0.00    -0.477 OA
ATOM     44  H   UNL     1      29.348  35.603  20.860  1.00  0.00     0.296 HD
ENDBRANCH  41  43
ENDBRANCH   1  41
BRANCH   3  45
ATOM     45  O   UNL     1      25.579  32.167  16.934  1.00  0.00    -0.391 OA
ATOM     46  H   UNL     1      25.121  31.558  17.578  1.00  0.00     0.211 HD
ENDBRANCH   3  45
BRANCH   5  47
ATOM     47  C   UNL     1      29.667  34.090  16.224  1.00  0.00     0.176 C 
BRANCH  47  48
ATOM     48  O   UNL     1      29.083  33.585  15.064  1.00  0.00    -0.388 OA
ATOM     49  H   UNL     1      28.898  32.624  15.172  1.00  0.00     0.211 HD
ENDBRANCH  47  48
BRANCH  47  50
ATOM     50  C   UNL     1      30.727  33.145  16.664  1.00  0.00     0.165 C 
BRANCH  50  51
ATOM     51  O   UNL     1      31.974  33.733  16.459  1.00  0.00    -0.388 OA
ATOM     52  H   UNL     1      32.452  33.301  15.711  1.00  0.00     0.211 HD
ENDBRANCH  50  51
BRANCH  50  53
ATOM     53  C   UNL     1      30.722  31.818  15.952  1.00  0.00     0.154 C 
BRANCH  53  54
ATOM     54  N   UNL     1      30.000  30.800  16.654  1.00  0.00    -0.319 N 
ATOM     55  C   UNL     1      28.698  30.379  16.360  1.00  0.00     0.407 C 
ATOM     56  H   UNL     1      30.496  30.326  17.467  1.00  0.00     0.167 HD
ATOM     57  O   UNL     1      28.084  30.913  15.412  1.00  0.00    -0.225 OA
BRANCH  55  58
ATOM     58  O   UNL     1      28.118  29.385  17.119  1.00  0.00    -0.443 OA
BRANCH  58  59
ATOM     59  C   UNL     1      26.785  28.980  17.002  1.00  0.00     0.294 C 
BRANCH  59  60
ATOM     60  C   UNL     1      26.407  28.197  18.195  1.00  0.00     0.120 A 
ATOM     61  C   UNL     1      25.182  27.680  18.479  1.00  0.00     0.138 A 
ATOM     62  N   UNL     1      27.236  27.871  19.198  1.00  0.00    -0.132 NA
ATOM     63  N   UNL     1      25.288  27.043  19.658  1.00  0.00    -0.248 N 
ATOM     64  N   UNL     1      26.529  27.164  20.084  1.00  0.00    -0.067 NA
BRANCH  63  65
ATOM     65  C   UNL     1      24.215  26.352  20.327  1.00  0.00     0.182 C 
BRANCH  65  66
ATOM     66  C   UNL     1      23.869  27.118  21.610  1.00  0.00    -0.016 A 
ATOM     67  C   UNL     1      23.264  28.288  21.623  1.00  0.00     0.017 A 
ATOM     68  C   UNL     1      24.225  26.525  22.820  1.00  0.00     0.070 A 
ATOM     69  C   UNL     1      22.975  28.935  22.810  1.00  0.00     0.065 A 
ATOM     70  S   UNL     1      23.646  27.737  24.023  1.00  0.00    -0.152 S 
ENDBRANCH  65  66
ENDBRANCH  63  65
ENDBRANCH  59  60
ENDBRANCH  58  59
ENDBRANCH  55  58
ENDBRANCH  53  54
ENDBRANCH  50  53
ENDBRANCH  47  50
ENDBRANCH   5  47
BRANCH   4  71
ATOM     71  N   UNL     1      26.779  34.947  16.022  1.00  0.00    -0.348 N 
ATOM     72  C   UNL     1      26.166  34.878  14.744  1.00  0.00     0.217 C 
ATOM     73  H   UNL     1      26.873  35.891  16.457  1.00  0.00     0.163 HD
ATOM     74  C   UNL     1      25.660  36.080  14.013  1.00  0.00     0.114 C 
ATOM     75  O   UNL     1      26.069  33.718  14.248  1.00  0.00    -0.275 OA
ENDBRANCH   4  71
TORSDOF 31
BEGIN_RES LYS A 131
REMARK  4 active torsions:
REMARK  status: ('A' for Active; 'I' for Inactive)
REMARK    1  A    between atoms: CA   and  CB  
REMARK    2  A    between atoms: CB   and  CG  
REMARK    3  A    between atoms: CG   and  CD  
REMARK    4  A    between atoms: CD   and  CE  
ROOT
ATOM      1  CA  LYS A 131      29.867  25.555  16.977  1.00 20.52     0.186 C 
ENDROOT
BRANCH   1   2
ATOM      2  CB  LYS A 131      28.345  25.722  17.026  1.00 20.94     0.034 C 
BRANCH   2   3
ATOM      3  CG  LYS A 131      27.600  24.408  16.849  1.00 22.96     0.005 C 
BRANCH   3   4
ATOM      4  CD  LYS A 131      26.442  24.281  17.799  1.00 24.33     0.041 C 
BRANCH   4   5
ATOM      5  CE  LYS A 131      25.733  22.951  17.563  1.00 26.91     0.338 C 
ATOM      6  NZ  LYS A 131      24.324  23.177  17.165  1.00 27.40     0.618 N 
ENDBRANCH   4   5
ENDBRANCH   3   4
ENDBRANCH   2   3
ENDBRANCH   1   2
END_RES LYS A 131
BEGIN_RES LYS A 135
REMARK  4 active torsions:
REMARK  status: ('A' for Active; 'I' for Inactive)
REMARK    5  A    between atoms: CA   and  CB  
REMARK    6  A    between atoms: CB   and  CG  
REMARK    7  A    between atoms: CG   and  CD  
REMARK    8  A    between atoms: CD   and  CE  
ROOT
ATOM      7  CA  LYS A 135      33.193  34.663   9.290  1.00 25.02     0.186 C 
ENDROOT
BRANCH   7   8
ATOM      8  CB  LYS A 135      32.060  35.360  10.034  1.00 26.63     0.034 C 
BRANCH   8   9
ATOM      9  CG  LYS A 135      30.782  35.446   9.241  1.00 29.45     0.005 C 
BRANCH   9  10
ATOM     10  CD  LYS A 135      30.215  34.059   8.983  1.00 32.00     0.041 C 
BRANCH  10  11
ATOM     11  CE  LYS A 135      28.718  34.042   9.220  1.00 34.25     0.338 C 
ATOM     12  NZ  LYS A 135      27.994  34.758   8.133  1.00 35.99     0.618 N 
ENDBRANCH  10  11
ENDBRANCH   9  10
ENDBRANCH   8   9
ENDBRANCH   7   8
END_RES LYS A 135
