REMARK VINA RESULT:    -4.722      3.540      8.776
REMARK INTER + INTRA:         -25.347
REMARK INTER:                 -12.500
REMARK INTRA:                 -12.847
REMARK UNBOUND:               -11.931
REMARK SMILES CC(=O)N[C@@H]1[C@@H](O)C[C@](OC[C@H]2O[C@@H](O[C@H]3[C@H](O)[C@@H](O)[C@H](OCCN=[N+]=[N-])O[C@@H]3CO)[C@H](O)[C@@H](O)[C@H]2O)(C(=O)O)O[C@H]1C(O)[C@H](O)CNC(=O)OCc1cn(CC(=O)NCC(O)Cn2ccnc2[N+](=O)[O-])nn1
REMARK SMILES IDX 47 1 45 2 43 3 42 4 9 5 8 6 41 7 6 8 5 9 10 10 11 11 12 12
REMARK SMILES IDX 14 13 13 14 32 15 34 16 36 17 15 18 16 19 29 20 28 21 21 22
REMARK SMILES IDX 17 23 19 24 30 25 31 26 22 28 23 29 24 30 25 31 26 32 27 33
REMARK SMILES IDX 18 34 20 36 33 38 35 40 37 42 38 44 39 45 40 46 7 48 4 50
REMARK SMILES IDX 2 51 1 53 3 54 44 55 46 57 48 59 49 60 50 62 51 63 52 64
REMARK SMILES IDX 53 65 54 66 73 67 55 68 72 69 56 70 57 71 58 72 59 73 60 75
REMARK SMILES IDX 61 76 62 77 63 79 64 80 65 81 68 82 66 83 67 84 69 85 70 86
REMARK SMILES IDX 71 87
REMARK H PARENT 31 27 18 35 20 37 33 39 35 41 37 43 40 47 7 49 4 52 44 56
REMARK H PARENT 46 58 48 61 59 74 62 78
REMARK Flexibility Score: inf
ROOT
ATOM      1  C   UNL     1      31.469  39.275  10.555  1.00  0.00     0.154 C 
ENDROOT
BRANCH   1   2
ATOM      2  C   UNL     1      31.458  38.044  11.398  1.00  0.00     0.165 C 
BRANCH   2   3
ATOM      3  C   UNL     1      30.884  38.183  12.758  1.00  0.00     0.176 C 
BRANCH   3   4
ATOM      4  C   UNL     1      31.502  37.454  13.878  1.00  0.00     0.178 C 
ATOM      5  C   UNL     1      32.502  35.479  14.588  1.00  0.00     0.272 C 
ATOM      6  C   UNL     1      33.034  36.403  15.626  1.00  0.00     0.113 C 
ATOM      7  O   UNL     1      31.781  36.138  13.575  1.00  0.00    -0.332 OA
ATOM      8  C   UNL     1      32.025  37.324  16.225  1.00  0.00     0.145 C 
ATOM      9  C   UNL     1      30.865  37.545  15.213  1.00  0.00     0.142 C 
BRANCH   5  10
ATOM     10  O   UNL     1      31.739  34.435  15.022  1.00  0.00    -0.338 OA
BRANCH  10  11
ATOM     11  C   UNL     1      32.005  33.920  16.252  1.00  0.00     0.199 C 
BRANCH  11  12
ATOM     12  C   UNL     1      30.809  33.231  16.879  1.00  0.00     0.179 C 
ATOM     13  C   UNL     1      28.479  33.290  16.921  1.00  0.00     0.282 C 
ATOM     14  O   UNL     1      29.686  33.980  16.894  1.00  0.00    -0.341 OA
ATOM     15  C   UNL     1      28.573  32.027  17.742  1.00  0.00     0.202 C 
ATOM     16  C   UNL     1      29.662  31.113  17.231  1.00  0.00     0.179 C 
ATOM     17  C   UNL     1      30.576  31.869  16.285  1.00  0.00     0.177 C 
BRANCH  13  18
ATOM     18  O   UNL     1      27.974  33.002  15.704  1.00  0.00    -0.341 OA
BRANCH  18  19
ATOM     19  C   UNL     1      27.164  33.847  15.047  1.00  0.00     0.184 C 
ATOM     20  C   UNL     1      25.880  33.289  14.494  1.00  0.00     0.178 C 
ATOM     21  O   UNL     1      25.041  34.384  14.275  1.00  0.00    -0.341 OA
ATOM     22  C   UNL     1      25.494  35.160  13.214  1.00  0.00     0.281 C 
ATOM     23  C   UNL     1      27.844  34.489  13.827  1.00  0.00     0.180 C 
ATOM     24  C   UNL     1      26.919  35.596  13.375  1.00  0.00     0.202 C 
BRANCH  20  25
ATOM     25  C   UNL     1      25.215  32.421  15.521  1.00  0.00     0.191 C 
BRANCH  25  26
ATOM     26  O   UNL     1      25.021  33.102  16.730  1.00  0.00    -0.394 OA
ATOM     27  H   UNL     1      25.246  34.061  16.513  1.00  0.00     0.210 HD
ENDBRANCH  25  26
ENDBRANCH  20  25
BRANCH  22  28
ATOM     28  O   UNL     1      24.705  36.307  13.177  1.00  0.00    -0.350 OA
BRANCH  28  29
ATOM     29  C   UNL     1      23.813  36.276  12.104  1.00  0.00     0.169 C 
BRANCH  29  30
ATOM     30  C   UNL     1      24.091  37.540  11.286  1.00  0.00     0.119 C 
BRANCH  30  31
ATOM     31  N   UNL     1      25.213  37.323  10.390  1.00  0.00    -0.092 NA
ATOM     32  N   UNL     1      25.232  36.240   9.768  1.00  0.00     0.001 N 
ATOM     33  N   UNL     1      25.162  35.351   8.929  1.00  0.00    -0.003 NA
ENDBRANCH  30  31
ENDBRANCH  29  30
ENDBRANCH  28  29
ENDBRANCH  22  28
BRANCH  23  34
ATOM     34  O   UNL     1      29.049  35.088  14.180  1.00  0.00    -0.387 OA
ATOM     35  H   UNL     1      28.931  36.060  13.934  1.00  0.00     0.211 HD
ENDBRANCH  23  34
BRANCH  24  36
ATOM     36  O   UNL     1      27.326  36.185  12.180  1.00  0.00    -0.385 OA
ATOM     37  H   UNL     1      26.825  35.744  11.432  1.00  0.00     0.211 HD
ENDBRANCH  24  36
ENDBRANCH  18  19
ENDBRANCH  13  18
BRANCH  15  38
ATOM     38  O   UNL     1      28.739  32.309  19.105  1.00  0.00    -0.385 OA
ATOM     39  H   UNL     1      29.153  33.228  19.129  1.00  0.00     0.211 HD
ENDBRANCH  15  38
BRANCH  16  40
ATOM     40  O   UNL     1      29.125  30.044  16.519  1.00  0.00    -0.387 OA
ATOM     41  H   UNL     1      28.768  29.328  17.123  1.00  0.00     0.211 HD
ENDBRANCH  16  40
BRANCH  17  42
ATOM     42  O   UNL     1      30.146  31.883  14.979  1.00  0.00    -0.387 OA
ATOM     43  H   UNL     1      29.168  31.717  14.890  1.00  0.00     0.211 HD
ENDBRANCH  17  42
ENDBRANCH  11  12
ENDBRANCH  10  11
ENDBRANCH   5  10
BRANCH   5  44
ATOM     44  C   UNL     1      33.698  34.937  13.842  1.00  0.00     0.364 C 
ATOM     45  O   UNL     1      34.705  34.662  14.519  1.00  0.00    -0.246 OA
BRANCH  44  46
ATOM     46  O   UNL     1      33.715  34.742  12.481  1.00  0.00    -0.477 OA
ATOM     47  H   UNL     1      32.910  35.033  11.897  1.00  0.00     0.296 HD
ENDBRANCH  44  46
ENDBRANCH   5  44
BRANCH   8  48
ATOM     48  O   UNL     1      31.534  37.002  17.449  1.00  0.00    -0.391 OA
ATOM     49  H   UNL     1      31.798  36.146  17.815  1.00  0.00     0.211 HD
ENDBRANCH   8  48
BRANCH   9  50
ATOM     50  N   UNL     1      30.243  38.764  15.571  1.00  0.00    -0.348 N 
ATOM     51  C   UNL     1      28.813  38.857  15.718  1.00  0.00     0.217 C 
ATOM     52  H   UNL     1      30.786  39.619  15.749  1.00  0.00     0.163 HD
ATOM     53  C   UNL     1      28.139  40.131  16.085  1.00  0.00     0.114 C 
ATOM     54  O   UNL     1      28.137  37.825  15.523  1.00  0.00    -0.275 OA
ENDBRANCH   9  50
ENDBRANCH   3   4
BRANCH   3  55
ATOM     55  O   UNL     1      29.498  37.905  12.651  1.00  0.00    -0.388 OA
ATOM     56  H   UNL     1      29.373  36.965  12.859  1.00  0.00     0.211 HD
ENDBRANCH   3  55
ENDBRANCH   2   3
BRANCH   2  57
ATOM     57  O   UNL     1      32.603  37.292  11.278  1.00  0.00    -0.388 OA
ATOM     58  H   UNL     1      33.285  37.441  11.959  1.00  0.00     0.211 HD
ENDBRANCH   2  57
ENDBRANCH   1   2
BRANCH   1  59
ATOM     59  N   UNL     1      30.633  39.104   9.398  1.00  0.00    -0.319 N 
ATOM     60  C   UNL     1      31.120  39.154   8.068  1.00  0.00     0.407 C 
ATOM     61  H   UNL     1      29.591  38.930   9.510  1.00  0.00     0.167 HD
ATOM     62  O   UNL     1      32.338  39.346   7.872  1.00  0.00    -0.225 OA
BRANCH  60  63
ATOM     63  O   UNL     1      30.331  39.007   6.947  1.00  0.00    -0.443 OA
BRANCH  63  64
ATOM     64  C   UNL     1      29.224  38.145   6.924  1.00  0.00     0.294 C 
BRANCH  64  65
ATOM     65  C   UNL     1      27.907  38.771   6.835  1.00  0.00     0.120 A 
ATOM     66  C   UNL     1      27.064  39.131   7.855  1.00  0.00     0.138 A 
ATOM     67  N   UNL     1      27.254  39.106   5.711  1.00  0.00    -0.132 NA
ATOM     68  N   UNL     1      25.938  39.667   7.328  1.00  0.00    -0.243 N 
ATOM     69  N   UNL     1      26.068  39.644   6.038  1.00  0.00    -0.067 NA
BRANCH  68  70
ATOM     70  C   UNL     1      24.805  40.197   8.077  1.00  0.00     0.245 C 
BRANCH  70  71
ATOM     71  C   UNL     1      23.618  39.358   7.811  1.00  0.00     0.241 C 
ATOM     72  O   UNL     1      22.446  39.866   7.764  1.00  0.00    -0.273 OA
ATOM     73  N   UNL     1      23.698  37.951   7.589  1.00  0.00    -0.352 N 
ATOM     74  H   UNL     1      24.624  37.492   7.617  1.00  0.00     0.163 HD
BRANCH  73  75
ATOM     75  C   UNL     1      22.475  37.213   7.333  1.00  0.00     0.151 C 
BRANCH  75  76
ATOM     76  C   UNL     1      21.945  36.544   8.563  1.00  0.00     0.168 C 
BRANCH  76  77
ATOM     77  O   UNL     1      21.873  35.168   8.429  1.00  0.00    -0.388 OA
ATOM     78  H   UNL     1      21.103  34.857   8.961  1.00  0.00     0.211 HD
ENDBRANCH  76  77
BRANCH  76  79
ATOM     79  C   UNL     1      20.568  37.128   8.840  1.00  0.00     0.239 C 
BRANCH  79  80
ATOM     80  N   UNL     1      20.428  37.537  10.207  1.00  0.00    -0.227 N 
ATOM     81  C   UNL     1      20.624  38.804  10.661  1.00  0.00     0.204 A 
ATOM     82  C   UNL     1      20.108  36.809  11.305  1.00  0.00     0.434 A 
ATOM     83  C   UNL     1      20.425  38.835  12.019  1.00  0.00     0.245 A 
ATOM     84  N   UNL     1      20.109  37.601  12.396  1.00  0.00    -0.074 NA
BRANCH  82  85
ATOM     85  N   UNL     1      19.802  35.416  11.306  1.00  0.00    -0.047 N 
ATOM     86  O   UNL     1      18.659  34.961  11.344  1.00  0.00    -0.390 OA
ATOM     87  O   UNL     1      20.857  34.515  11.272  1.00  0.00    -0.390 OA
ENDBRANCH  82  85
ENDBRANCH  79  80
ENDBRANCH  76  79
ENDBRANCH  75  76
ENDBRANCH  73  75
ENDBRANCH  70  71
ENDBRANCH  68  70
ENDBRANCH  64  65
ENDBRANCH  63  64
ENDBRANCH  60  63
ENDBRANCH   1  59
TORSDOF 37
BEGIN_RES LYS A 131
REMARK  4 active torsions:
REMARK  status: ('A' for Active; 'I' for Inactive)
REMARK    1  A    between atoms: CA   and  CB  
REMARK    2  A    between atoms: CB   and  CG  
REMARK    3  A    between atoms: CG   and  CD  
REMARK    4  A    between atoms: CD   and  CE  
ROOT
ATOM      1  CA  LYS A 131      29.867  25.555  16.977  1.00 20.52     0.186 C 
ENDROOT
BRANCH   1   2
ATOM      2  CB  LYS A 131      28.345  25.722  17.026  1.00 20.94     0.034 C 
BRANCH   2   3
ATOM      3  CG  LYS A 131      27.601  24.404  16.876  1.00 22.96     0.005 C 
BRANCH   3   4
ATOM      4  CD  LYS A 131      26.159  24.518  17.285  1.00 24.33     0.041 C 
BRANCH   4   5
ATOM      5  CE  LYS A 131      25.654  23.157  17.753  1.00 26.91     0.338 C 
ATOM      6  NZ  LYS A 131      25.499  23.139  19.227  1.00 27.40     0.618 N 
ENDBRANCH   4   5
ENDBRANCH   3   4
ENDBRANCH   2   3
ENDBRANCH   1   2
END_RES LYS A 131
BEGIN_RES LYS A 135
REMARK  4 active torsions:
REMARK  status: ('A' for Active; 'I' for Inactive)
REMARK    5  A    between atoms: CA   and  CB  
REMARK    6  A    between atoms: CB   and  CG  
REMARK    7  A    between atoms: CG   and  CD  
REMARK    8  A    between atoms: CD   and  CE  
ROOT
ATOM      7  CA  LYS A 135      33.193  34.663   9.290  1.00 25.02     0.186 C 
ENDROOT
BRANCH   7   8
ATOM      8  CB  LYS A 135      32.060  35.360  10.034  1.00 26.63     0.034 C 
BRANCH   8   9
ATOM      9  CG  LYS A 135      30.722  34.689   9.860  1.00 29.45     0.005 C 
BRANCH   9  10
ATOM     10  CD  LYS A 135      30.255  34.789   8.416  1.00 32.00     0.041 C 
BRANCH  10  11
ATOM     11  CE  LYS A 135      28.763  34.532   8.320  1.00 34.25     0.338 C 
ATOM     12  NZ  LYS A 135      28.262  33.821   9.529  1.00 35.99     0.618 N 
ENDBRANCH  10  11
ENDBRANCH   9  10
ENDBRANCH   8   9
ENDBRANCH   7   8
END_RES LYS A 135
