REMARK VINA RESULT:    -3.797      2.682      5.803
REMARK INTER + INTRA:         -22.383
REMARK INTER:                 -12.017
REMARK INTRA:                 -10.367
REMARK UNBOUND:               -13.037
REMARK SMILES CC(=O)N[C@@H]1[C@@H](O)C[C@](OC[C@H]2O[C@@H](O[C@H]3[C@H](O)[C@@H](O)[C@H](OCCN=[N+]=[N-])O[C@@H]3CO)[C@H](O)[C@@H](O)[C@H]2O)(C(=O)O)O[C@H]1C(O)[C@H](O)CNC(=O)OCc1cn([C@H]2C[C@H]3CC[C@@H](C2)N3C)nn1
REMARK SMILES IDX 9 1 8 2 6 3 5 4 42 5 41 6 10 7 11 8 12 9 14 10 13 11 32 12
REMARK SMILES IDX 34 13 36 14 15 15 16 16 29 17 28 18 21 19 17 20 19 21 30 22
REMARK SMILES IDX 31 23 22 25 23 26 24 27 25 28 26 29 27 30 18 31 20 33 33 35
REMARK SMILES IDX 35 37 37 39 38 41 39 42 40 43 7 45 43 47 44 48 45 50 46 51
REMARK SMILES IDX 47 53 48 54 49 55 50 57 51 58 52 59 53 60 54 61 66 62 55 63
REMARK SMILES IDX 65 64 56 65 62 66 57 67 61 68 58 69 63 70 60 71 59 72 64 73
REMARK SMILES IDX 4 74 2 75 1 77 3 78
REMARK H PARENT 31 24 18 32 20 34 33 36 35 38 37 40 40 44 7 46 44 49 46 52
REMARK H PARENT 48 56 4 76
REMARK Flexibility Score: inf
ROOT
ATOM      1  C   UNL     1      24.210  36.749   9.121  1.00  0.00     0.272 C 
ATOM      2  C   UNL     1      23.153  37.472   8.305  1.00  0.00     0.113 C 
ATOM      3  C   UNL     1      23.461  38.908   8.011  1.00  0.00     0.145 C 
ATOM      4  C   UNL     1      24.248  39.463   9.138  1.00  0.00     0.142 C 
ATOM      5  C   UNL     1      23.862  38.679  10.396  1.00  0.00     0.178 C 
ATOM      6  O   UNL     1      24.633  37.459  10.211  1.00  0.00    -0.332 OA
ENDROOT
BRANCH   1   7
ATOM      7  O   UNL     1      25.207  36.365   8.275  1.00  0.00    -0.338 OA
BRANCH   7   8
ATOM      8  C   UNL     1      25.757  35.140   8.385  1.00  0.00     0.199 C 
BRANCH   8   9
ATOM      9  C   UNL     1      27.115  35.005   8.965  1.00  0.00     0.179 C 
ATOM     10  C   UNL     1      29.168  35.903   8.685  1.00  0.00     0.282 C 
ATOM     11  O   UNL     1      27.812  36.241   8.775  1.00  0.00    -0.341 OA
ATOM     12  C   UNL     1      29.665  35.117   9.823  1.00  0.00     0.202 C 
ATOM     13  C   UNL     1      28.682  34.503  10.744  1.00  0.00     0.179 C 
ATOM     14  C   UNL     1      27.226  34.779  10.437  1.00  0.00     0.177 C 
BRANCH  10  15
ATOM     15  O   UNL     1      29.844  37.084   8.490  1.00  0.00    -0.341 OA
BRANCH  15  16
ATOM     16  C   UNL     1      29.034  38.080   7.937  1.00  0.00     0.184 C 
ATOM     17  C   UNL     1      28.926  38.043   6.449  1.00  0.00     0.178 C 
ATOM     18  O   UNL     1      29.975  38.526   5.735  1.00  0.00    -0.341 OA
ATOM     19  C   UNL     1      30.505  39.683   6.191  1.00  0.00     0.281 C 
ATOM     20  C   UNL     1      29.635  39.384   8.413  1.00  0.00     0.180 C 
ATOM     21  C   UNL     1      30.947  39.523   7.644  1.00  0.00     0.202 C 
BRANCH  17  22
ATOM     22  C   UNL     1      27.557  38.551   5.979  1.00  0.00     0.191 C 
BRANCH  22  23
ATOM     23  O   UNL     1      26.549  37.623   6.110  1.00  0.00    -0.394 OA
ATOM     24  H   UNL     1      26.881  36.706   6.202  1.00  0.00     0.210 HD
ENDBRANCH  22  23
ENDBRANCH  17  22
BRANCH  19  25
ATOM     25  O   UNL     1      29.807  40.835   5.983  1.00  0.00    -0.350 OA
BRANCH  25  26
ATOM     26  C   UNL     1      29.576  41.228   4.701  1.00  0.00     0.169 C 
BRANCH  26  27
ATOM     27  C   UNL     1      28.274  41.938   4.545  1.00  0.00     0.119 C 
BRANCH  27  28
ATOM     28  N   UNL     1      27.623  42.166   5.843  1.00  0.00    -0.092 NA
ATOM     29  N   UNL     1      26.389  42.052   5.946  1.00  0.00     0.001 N 
ATOM     30  N   UNL     1      25.314  41.424   6.013  1.00  0.00    -0.003 NA
ENDBRANCH  27  28
ENDBRANCH  26  27
ENDBRANCH  25  26
ENDBRANCH  19  25
BRANCH  20  31
ATOM     31  O   UNL     1      28.847  40.482   8.165  1.00  0.00    -0.387 OA
ATOM     32  H   UNL     1      28.052  40.280   7.647  1.00  0.00     0.211 HD
ENDBRANCH  20  31
BRANCH  21  33
ATOM     33  O   UNL     1      31.729  38.378   7.777  1.00  0.00    -0.385 OA
ATOM     34  H   UNL     1      32.316  38.522   8.566  1.00  0.00     0.211 HD
ENDBRANCH  21  33
ENDBRANCH  15  16
ENDBRANCH  10  15
BRANCH  12  35
ATOM     35  O   UNL     1      30.463  34.071   9.291  1.00  0.00    -0.385 OA
ATOM     36  H   UNL     1      31.421  34.284   9.315  1.00  0.00     0.211 HD
ENDBRANCH  12  35
BRANCH  13  37
ATOM     37  O   UNL     1      28.890  34.932  12.079  1.00  0.00    -0.387 OA
ATOM     38  H   UNL     1      29.256  35.873  12.028  1.00  0.00     0.211 HD
ENDBRANCH  13  37
BRANCH  14  39
ATOM     39  O   UNL     1      26.913  35.978  11.121  1.00  0.00    -0.387 OA
ATOM     40  H   UNL     1      26.350  36.482  10.454  1.00  0.00     0.211 HD
ENDBRANCH  14  39
ENDBRANCH   8   9
ENDBRANCH   7   8
ENDBRANCH   1   7
BRANCH   1  41
ATOM     41  C   UNL     1      23.493  35.545   9.647  1.00  0.00     0.364 C 
ATOM     42  O   UNL     1      23.800  35.019  10.713  1.00  0.00    -0.246 OA
BRANCH  41  43
ATOM     43  O   UNL     1      22.435  34.977   8.924  1.00  0.00    -0.477 OA
ATOM     44  H   UNL     1      21.867  35.622   8.357  1.00  0.00     0.296 HD
ENDBRANCH  41  43
ENDBRANCH   1  41
BRANCH   3  45
ATOM     45  O   UNL     1      24.182  38.919   6.793  1.00  0.00    -0.391 OA
ATOM     46  H   UNL     1      24.942  38.286   6.842  1.00  0.00     0.211 HD
ENDBRANCH   3  45
BRANCH   5  47
ATOM     47  C   UNL     1      24.325  39.277  11.664  1.00  0.00     0.176 C 
BRANCH  47  48
ATOM     48  O   UNL     1      25.717  38.860  11.819  1.00  0.00    -0.388 OA
ATOM     49  H   UNL     1      26.147  39.505  12.436  1.00  0.00     0.211 HD
ENDBRANCH  47  48
BRANCH  47  50
ATOM     50  C   UNL     1      23.764  38.654  12.934  1.00  0.00     0.165 C 
BRANCH  50  51
ATOM     51  O   UNL     1      23.285  39.739  13.709  1.00  0.00    -0.388 OA
ATOM     52  H   UNL     1      23.527  40.606  13.299  1.00  0.00     0.211 HD
ENDBRANCH  50  51
BRANCH  50  53
ATOM     53  C   UNL     1      24.666  37.811  13.741  1.00  0.00     0.154 C 
BRANCH  53  54
ATOM     54  N   UNL     1      24.449  36.417  13.301  1.00  0.00    -0.319 N 
ATOM     55  C   UNL     1      23.720  35.497  14.094  1.00  0.00     0.407 C 
ATOM     56  H   UNL     1      24.846  36.121  12.392  1.00  0.00     0.167 HD
ATOM     57  O   UNL     1      23.234  35.895  15.201  1.00  0.00    -0.225 OA
BRANCH  55  58
ATOM     58  O   UNL     1      23.538  34.191  13.672  1.00  0.00    -0.443 OA
BRANCH  58  59
ATOM     59  C   UNL     1      24.240  33.167  14.340  1.00  0.00     0.294 C 
BRANCH  59  60
ATOM     60  C   UNL     1      25.649  33.507  14.626  1.00  0.00     0.120 A 
ATOM     61  C   UNL     1      26.317  33.175  15.786  1.00  0.00     0.138 A 
ATOM     62  N   UNL     1      26.532  34.185  13.887  1.00  0.00    -0.132 NA
ATOM     63  N   UNL     1      27.567  33.650  15.732  1.00  0.00    -0.249 N 
ATOM     64  N   UNL     1      27.686  34.269  14.556  1.00  0.00    -0.067 NA
BRANCH  63  65
ATOM     65  C   UNL     1      28.552  33.494  16.792  1.00  0.00     0.112 C 
ATOM     66  C   UNL     1      29.559  34.581  16.622  1.00  0.00     0.046 C 
ATOM     67  C   UNL     1      29.082  32.098  16.738  1.00  0.00     0.046 C 
ATOM     68  C   UNL     1      30.982  34.153  16.783  1.00  0.00     0.058 C 
ATOM     69  C   UNL     1      30.555  31.960  16.968  1.00  0.00     0.058 C 
ATOM     70  N   UNL     1      31.122  33.069  17.706  1.00  0.00    -0.300 NA
ATOM     71  C   UNL     1      31.457  33.537  15.469  1.00  0.00     0.021 C 
ATOM     72  C   UNL     1      31.258  32.049  15.630  1.00  0.00     0.021 C 
ATOM     73  C   UNL     1      30.490  33.274  18.987  1.00  0.00     0.105 C 
ENDBRANCH  63  65
ENDBRANCH  59  60
ENDBRANCH  58  59
ENDBRANCH  55  58
ENDBRANCH  53  54
ENDBRANCH  50  53
ENDBRANCH  47  50
ENDBRANCH   5  47
BRANCH   4  74
ATOM     74  N   UNL     1      24.366  40.857   9.217  1.00  0.00    -0.348 N 
ATOM     75  C   UNL     1      25.612  41.516   9.494  1.00  0.00     0.217 C 
ATOM     76  H   UNL     1      23.550  41.484   9.040  1.00  0.00     0.163 HD
ATOM     77  C   UNL     1      25.641  43.016   9.543  1.00  0.00     0.114 C 
ATOM     78  O   UNL     1      26.652  40.877   9.689  1.00  0.00    -0.275 OA
ENDBRANCH   4  74
TORSDOF 30
BEGIN_RES LYS A 131
REMARK  4 active torsions:
REMARK  status: ('A' for Active; 'I' for Inactive)
REMARK    1  A    between atoms: CA   and  CB  
REMARK    2  A    between atoms: CB   and  CG  
REMARK    3  A    between atoms: CG   and  CD  
REMARK    4  A    between atoms: CD   and  CE  
ROOT
ATOM      1  CA  LYS A 131      29.867  25.555  16.977  1.00 20.52     0.186 C 
ENDROOT
BRANCH   1   2
ATOM      2  CB  LYS A 131      28.345  25.722  17.026  1.00 20.94     0.034 C 
BRANCH   2   3
ATOM      3  CG  LYS A 131      27.601  24.404  16.879  1.00 22.96     0.005 C 
BRANCH   3   4
ATOM      4  CD  LYS A 131      26.145  24.532  17.233  1.00 24.33     0.041 C 
BRANCH   4   5
ATOM      5  CE  LYS A 131      25.571  23.151  17.533  1.00 26.91     0.338 C 
ATOM      6  NZ  LYS A 131      24.154  23.075  17.104  1.00 27.40     0.618 N 
ENDBRANCH   4   5
ENDBRANCH   3   4
ENDBRANCH   2   3
ENDBRANCH   1   2
END_RES LYS A 131
BEGIN_RES LYS A 135
REMARK  4 active torsions:
REMARK  status: ('A' for Active; 'I' for Inactive)
REMARK    5  A    between atoms: CA   and  CB  
REMARK    6  A    between atoms: CB   and  CG  
REMARK    7  A    between atoms: CG   and  CD  
REMARK    8  A    between atoms: CD   and  CE  
ROOT
ATOM      7  CA  LYS A 135      33.193  34.663   9.290  1.00 25.02     0.186 C 
ENDROOT
BRANCH   7   8
ATOM      8  CB  LYS A 135      32.060  35.360  10.034  1.00 26.63     0.034 C 
BRANCH   8   9
ATOM      9  CG  LYS A 135      32.525  36.481  10.927  1.00 29.45     0.005 C 
BRANCH   9  10
ATOM     10  CD  LYS A 135      32.237  36.161  12.385  1.00 32.00     0.041 C 
BRANCH  10  11
ATOM     11  CE  LYS A 135      31.538  37.326  13.058  1.00 34.25     0.338 C 
ATOM     12  NZ  LYS A 135      30.738  36.869  14.228  1.00 35.99     0.618 N 
ENDBRANCH  10  11
ENDBRANCH   9  10
ENDBRANCH   8   9
ENDBRANCH   7   8
END_RES LYS A 135
