REMARK VINA RESULT:    -4.795      4.644     11.212
REMARK INTER + INTRA:         -25.392
REMARK INTER:                 -13.346
REMARK INTRA:                 -12.046
REMARK UNBOUND:               -12.046
REMARK SMILES CC(=O)N[C@@H]1[C@@H](O)C[C@](OC[C@H]2O[C@@H](O[C@H]3[C@H](O)[C@@H](O)[C@H](OCCN=[N+]=[N-])O[C@@H]3CO)[C@H](O)[C@@H](O)[C@H]2O)(C(=O)O)O[C@H]1C(O)[C@H](O)CNC(=O)OCc1cn(C[C@@H](C(=O)O)C(c2ccccc2)c2ccccc2)nn1
REMARK SMILES IDX 43 1 42 2 9 3 8 4 41 5 6 6 5 7 10 8 11 9 12 10 14 11 13 12
REMARK SMILES IDX 32 13 34 14 36 15 15 16 16 17 29 18 28 19 21 20 17 21 19 22
REMARK SMILES IDX 30 23 31 24 22 26 23 27 24 28 25 29 26 30 27 31 18 32 20 34
REMARK SMILES IDX 33 36 35 38 37 40 38 42 39 43 40 44 7 46 4 48 2 49 1 51 3 52
REMARK SMILES IDX 44 53 45 55 46 56 47 58 48 59 49 60 50 62 51 63 52 64 53 65
REMARK SMILES IDX 54 66 75 67 55 68 74 69 56 70 57 71 58 72 59 73 60 74 61 76
REMARK SMILES IDX 62 77 63 78 67 79 64 80 66 81 65 82 68 83 69 84 73 85 70 86
REMARK SMILES IDX 72 87 71 88
REMARK H PARENT 31 25 18 33 20 35 33 37 35 39 37 41 40 45 7 47 4 50 44 54
REMARK H PARENT 46 57 48 61 60 75
REMARK Flexibility Score: inf
ROOT
ATOM      1  C   UNL     1      22.900  36.629   9.022  1.00  0.00     0.176 C 
ENDROOT
BRANCH   1   2
ATOM      2  C   UNL     1      22.661  37.252  10.414  1.00  0.00     0.178 C 
ATOM      3  C   UNL     1      23.515  38.399  12.230  1.00  0.00     0.272 C 
ATOM      4  C   UNL     1      21.980  38.307  12.521  1.00  0.00     0.113 C 
ATOM      5  O   UNL     1      23.762  37.755  11.004  1.00  0.00    -0.332 OA
ATOM      6  C   UNL     1      21.489  36.902  12.488  1.00  0.00     0.145 C 
ATOM      7  C   UNL     1      21.896  36.227  11.217  1.00  0.00     0.142 C 
BRANCH   3   8
ATOM      8  O   UNL     1      24.144  37.947  13.264  1.00  0.00    -0.338 OA
BRANCH   8   9
ATOM      9  C   UNL     1      24.583  38.319  14.401  1.00  0.00     0.199 C 
BRANCH   9  10
ATOM     10  C   UNL     1      24.104  37.800  15.731  1.00  0.00     0.179 C 
ATOM     11  C   UNL     1      23.832  35.618  16.620  1.00  0.00     0.282 C 
ATOM     12  O   UNL     1      23.701  36.505  15.621  1.00  0.00    -0.341 OA
ATOM     13  C   UNL     1      24.300  36.060  17.951  1.00  0.00     0.202 C 
ATOM     14  C   UNL     1      24.806  37.472  18.023  1.00  0.00     0.179 C 
ATOM     15  C   UNL     1      25.337  37.800  16.664  1.00  0.00     0.177 C 
BRANCH  11  16
ATOM     16  O   UNL     1      24.795  34.677  16.151  1.00  0.00    -0.341 OA
BRANCH  16  17
ATOM     17  C   UNL     1      24.590  34.286  14.858  1.00  0.00     0.184 C 
ATOM     18  C   UNL     1      24.092  32.868  14.855  1.00  0.00     0.178 C 
ATOM     19  O   UNL     1      25.124  31.937  14.884  1.00  0.00    -0.341 OA
ATOM     20  C   UNL     1      26.293  32.417  15.493  1.00  0.00     0.281 C 
ATOM     21  C   UNL     1      25.867  34.324  14.029  1.00  0.00     0.180 C 
ATOM     22  C   UNL     1      26.946  33.493  14.694  1.00  0.00     0.202 C 
BRANCH  18  23
ATOM     23  C   UNL     1      23.167  32.538  13.718  1.00  0.00     0.191 C 
BRANCH  23  24
ATOM     24  O   UNL     1      23.623  31.498  12.932  1.00  0.00    -0.394 OA
ATOM     25  H   UNL     1      24.608  31.412  13.109  1.00  0.00     0.210 HD
ENDBRANCH  23  24
ENDBRANCH  18  23
BRANCH  20  26
ATOM     26  O   UNL     1      27.177  31.368  15.609  1.00  0.00    -0.350 OA
BRANCH  26  27
ATOM     27  C   UNL     1      26.986  30.509  16.645  1.00  0.00     0.169 C 
BRANCH  27  28
ATOM     28  C   UNL     1      27.650  29.180  16.486  1.00  0.00     0.119 C 
BRANCH  28  29
ATOM     29  N   UNL     1      27.169  28.346  17.606  1.00  0.00    -0.092 NA
ATOM     30  N   UNL     1      25.991  27.983  17.560  1.00  0.00     0.001 N 
ATOM     31  N   UNL     1      24.788  27.734  17.604  1.00  0.00    -0.003 NA
ENDBRANCH  28  29
ENDBRANCH  27  28
ENDBRANCH  26  27
ENDBRANCH  20  26
BRANCH  21  32
ATOM     32  O   UNL     1      25.576  33.729  12.804  1.00  0.00    -0.387 OA
ATOM     33  H   UNL     1      26.376  33.387  12.342  1.00  0.00     0.211 HD
ENDBRANCH  21  32
BRANCH  22  34
ATOM     34  O   UNL     1      27.712  34.290  15.534  1.00  0.00    -0.385 OA
ATOM     35  H   UNL     1      27.464  35.247  15.330  1.00  0.00     0.211 HD
ENDBRANCH  22  34
ENDBRANCH  16  17
ENDBRANCH  11  16
BRANCH  13  36
ATOM     36  O   UNL     1      23.245  35.982  18.892  1.00  0.00    -0.385 OA
ATOM     37  H   UNL     1      22.398  36.325  18.488  1.00  0.00     0.211 HD
ENDBRANCH  13  36
BRANCH  14  38
ATOM     38  O   UNL     1      25.796  37.575  18.979  1.00  0.00    -0.387 OA
ATOM     39  H   UNL     1      26.193  38.485  18.936  1.00  0.00     0.211 HD
ENDBRANCH  14  38
BRANCH  15  40
ATOM     40  O   UNL     1      26.242  36.819  16.284  1.00  0.00    -0.387 OA
ATOM     41  H   UNL     1      26.073  36.023  16.830  1.00  0.00     0.211 HD
ENDBRANCH  15  40
ENDBRANCH   9  10
ENDBRANCH   8   9
ENDBRANCH   3   8
BRANCH   3  42
ATOM     42  C   UNL     1      23.689  39.837  11.941  1.00  0.00     0.364 C 
ATOM     43  O   UNL     1      24.636  40.333  11.297  1.00  0.00    -0.246 OA
BRANCH  42  44
ATOM     44  O   UNL     1      22.727  40.755  12.413  1.00  0.00    -0.477 OA
ATOM     45  H   UNL     1      22.575  40.791  13.399  1.00  0.00     0.296 HD
ENDBRANCH  42  44
ENDBRANCH   3  42
BRANCH   6  46
ATOM     46  O   UNL     1      21.905  36.165  13.606  1.00  0.00    -0.391 OA
ATOM     47  H   UNL     1      22.437  36.711  14.231  1.00  0.00     0.211 HD
ENDBRANCH   6  46
BRANCH   7  48
ATOM     48  N   UNL     1      20.713  35.865  10.470  1.00  0.00    -0.348 N 
ATOM     49  C   UNL     1      19.992  34.680  10.761  1.00  0.00     0.217 C 
ATOM     50  H   UNL     1      20.390  36.507   9.692  1.00  0.00     0.163 HD
ATOM     51  C   UNL     1      18.761  34.298   9.987  1.00  0.00     0.114 C 
ATOM     52  O   UNL     1      20.423  33.956  11.695  1.00  0.00    -0.275 OA
ENDBRANCH   7  48
ENDBRANCH   1   2
BRANCH   1  53
ATOM     53  O   UNL     1      23.270  35.316   9.130  1.00  0.00    -0.388 OA
ATOM     54  H   UNL     1      22.930  34.863   9.935  1.00  0.00     0.211 HD
ENDBRANCH   1  53
BRANCH   1  55
ATOM     55  C   UNL     1      23.922  37.393   8.276  1.00  0.00     0.165 C 
BRANCH  55  56
ATOM     56  O   UNL     1      23.469  37.855   7.023  1.00  0.00    -0.388 OA
ATOM     57  H   UNL     1      23.582  38.855   7.074  1.00  0.00     0.211 HD
ENDBRANCH  55  56
BRANCH  55  58
ATOM     58  C   UNL     1      25.303  36.874   8.132  1.00  0.00     0.154 C 
BRANCH  58  59
ATOM     59  N   UNL     1      26.095  36.819   9.305  1.00  0.00    -0.319 N 
ATOM     60  C   UNL     1      26.453  35.659  10.025  1.00  0.00     0.407 C 
ATOM     61  H   UNL     1      26.474  37.767   9.696  1.00  0.00     0.167 HD
ATOM     62  O   UNL     1      26.060  34.521   9.716  1.00  0.00    -0.225 OA
BRANCH  60  63
ATOM     63  O   UNL     1      27.282  35.806  11.118  1.00  0.00    -0.443 OA
BRANCH  63  64
ATOM     64  C   UNL     1      27.359  36.987  11.835  1.00  0.00     0.294 C 
BRANCH  64  65
ATOM     65  C   UNL     1      28.378  36.998  12.896  1.00  0.00     0.120 A 
ATOM     66  C   UNL     1      29.747  36.947  12.794  1.00  0.00     0.138 A 
ATOM     67  N   UNL     1      28.135  37.030  14.243  1.00  0.00    -0.132 NA
ATOM     68  N   UNL     1      30.285  36.947  14.018  1.00  0.00    -0.251 N 
ATOM     69  N   UNL     1      29.284  36.997  14.877  1.00  0.00    -0.067 NA
BRANCH  68  70
ATOM     70  C   UNL     1      31.712  36.903  14.391  1.00  0.00     0.162 C 
BRANCH  70  71
ATOM     71  C   UNL     1      32.217  35.500  14.299  1.00  0.00     0.132 C 
BRANCH  71  72
ATOM     72  C   UNL     1      33.078  35.323  13.091  1.00  0.00     0.309 C 
ATOM     73  O   UNL     1      32.967  36.026  12.073  1.00  0.00    -0.252 OA
BRANCH  72  74
ATOM     74  O   UNL     1      34.050  34.338  13.091  1.00  0.00    -0.481 OA
ATOM     75  H   UNL     1      34.590  34.164  12.239  1.00  0.00     0.296 HD
ENDBRANCH  72  74
ENDBRANCH  71  72
BRANCH  71  76
ATOM     76  C   UNL     1      32.800  34.884  15.515  1.00  0.00     0.065 C 
BRANCH  76  77
ATOM     77  C   UNL     1      33.480  35.763  16.467  1.00  0.00    -0.040 A 
ATOM     78  C   UNL     1      32.753  36.532  17.388  1.00  0.00     0.004 A 
ATOM     79  C   UNL     1      34.868  35.913  16.532  1.00  0.00     0.004 A 
ATOM     80  C   UNL     1      33.341  37.366  18.286  1.00  0.00     0.000 A 
ATOM     81  C   UNL     1      35.452  36.758  17.444  1.00  0.00     0.000 A 
ATOM     82  C   UNL     1      34.694  37.495  18.331  1.00  0.00     0.000 A 
ENDBRANCH  76  77
BRANCH  76  83
ATOM     83  C   UNL     1      31.934  33.844  16.132  1.00  0.00    -0.040 A 
ATOM     84  C   UNL     1      31.514  32.819  15.311  1.00  0.00     0.004 A 
ATOM     85  C   UNL     1      31.566  33.872  17.450  1.00  0.00     0.004 A 
ATOM     86  C   UNL     1      30.725  31.814  15.794  1.00  0.00     0.000 A 
ATOM     87  C   UNL     1      30.763  32.841  17.929  1.00  0.00     0.000 A 
ATOM     88  C   UNL     1      30.339  31.815  17.114  1.00  0.00     0.000 A 
ENDBRANCH  76  83
ENDBRANCH  71  76
ENDBRANCH  70  71
ENDBRANCH  68  70
ENDBRANCH  64  65
ENDBRANCH  63  64
ENDBRANCH  60  63
ENDBRANCH  58  59
ENDBRANCH  55  58
ENDBRANCH   1  55
TORSDOF 36
BEGIN_RES LYS A 131
REMARK  4 active torsions:
REMARK  status: ('A' for Active; 'I' for Inactive)
REMARK    1  A    between atoms: CA   and  CB  
REMARK    2  A    between atoms: CB   and  CG  
REMARK    3  A    between atoms: CG   and  CD  
REMARK    4  A    between atoms: CD   and  CE  
ROOT
ATOM      1  CA  LYS A 131      29.867  25.555  16.977  1.00 20.52     0.186 C 
ENDROOT
BRANCH   1   2
ATOM      2  CB  LYS A 131      28.345  25.722  17.026  1.00 20.94     0.034 C 
BRANCH   2   3
ATOM      3  CG  LYS A 131      27.599  24.439  16.693  1.00 22.96     0.005 C 
BRANCH   3   4
ATOM      4  CD  LYS A 131      26.727  23.980  17.828  1.00 24.33     0.041 C 
BRANCH   4   5
ATOM      5  CE  LYS A 131      25.261  24.141  17.442  1.00 26.91     0.338 C 
ATOM      6  NZ  LYS A 131      24.551  22.844  17.543  1.00 27.40     0.618 N 
ENDBRANCH   4   5
ENDBRANCH   3   4
ENDBRANCH   2   3
ENDBRANCH   1   2
END_RES LYS A 131
BEGIN_RES LYS A 135
REMARK  4 active torsions:
REMARK  status: ('A' for Active; 'I' for Inactive)
REMARK    5  A    between atoms: CA   and  CB  
REMARK    6  A    between atoms: CB   and  CG  
REMARK    7  A    between atoms: CG   and  CD  
REMARK    8  A    between atoms: CD   and  CE  
ROOT
ATOM      7  CA  LYS A 135      33.193  34.663   9.290  1.00 25.02     0.186 C 
ENDROOT
BRANCH   7   8
ATOM      8  CB  LYS A 135      32.060  35.360  10.034  1.00 26.63     0.034 C 
BRANCH   8   9
ATOM      9  CG  LYS A 135      30.725  35.244   9.344  1.00 29.45     0.005 C 
BRANCH   9  10
ATOM     10  CD  LYS A 135      30.165  36.622   9.025  1.00 32.00     0.041 C 
BRANCH  10  11
ATOM     11  CE  LYS A 135      29.276  36.563   7.797  1.00 34.25     0.338 C 
ATOM     12  NZ  LYS A 135      28.990  35.154   7.408  1.00 35.99     0.618 N 
ENDBRANCH  10  11
ENDBRANCH   9  10
ENDBRANCH   8   9
ENDBRANCH   7   8
END_RES LYS A 135
