REMARK VINA RESULT:    -5.475      1.794      2.366
REMARK INTER + INTRA:         -24.001
REMARK INTER:                 -13.315
REMARK INTRA:                 -10.686
REMARK UNBOUND:                -9.883
REMARK SMILES CC(=O)N[C@@H]1[C@@H](O)C[C@](OC[C@H]2O[C@@H](O[C@H]3[C@H](O)[C@@H](O)[C@H](OCCN=[N+]=[N-])O[C@@H]3CO)[C@H](O)[C@@H](O)[C@H]2O)(C(=O)O)O[C@H]1C(O)[C@H](O)CNC(=O)OCc1cn(C(c2ccccc2)c2ccccc2)nn1
REMARK SMILES IDX 9 1 8 2 6 3 5 4 42 5 41 6 10 7 11 8 12 9 14 10 13 11 32 12
REMARK SMILES IDX 34 13 36 14 15 15 16 16 29 17 28 18 21 19 17 20 19 21 30 22
REMARK SMILES IDX 31 23 22 25 23 26 24 27 25 28 26 29 27 30 18 31 20 33 33 35
REMARK SMILES IDX 35 37 37 39 38 41 39 42 40 43 7 45 43 47 44 48 45 50 46 51
REMARK SMILES IDX 47 53 48 54 49 55 50 57 51 58 52 59 53 60 54 61 70 62 55 63
REMARK SMILES IDX 69 64 56 65 57 66 58 67 62 68 59 69 61 70 60 71 63 72 64 73
REMARK SMILES IDX 68 74 65 75 67 76 66 77 4 78 2 79 1 81 3 82
REMARK H PARENT 31 24 18 32 20 34 33 36 35 38 37 40 40 44 7 46 44 49 46 52
REMARK H PARENT 48 56 4 80
REMARK Flexibility Score: inf
ROOT
ATOM      1  C   UNL     1      29.695  32.970  16.428  1.00  0.00     0.272 C 
ATOM      2  C   UNL     1      30.493  34.151  17.020  1.00  0.00     0.113 C 
ATOM      3  C   UNL     1      30.171  35.390  16.290  1.00  0.00     0.145 C 
ATOM      4  C   UNL     1      28.690  35.663  16.371  1.00  0.00     0.142 C 
ATOM      5  C   UNL     1      27.881  34.454  16.668  1.00  0.00     0.178 C 
ATOM      6  O   UNL     1      28.399  33.269  16.255  1.00  0.00    -0.332 OA
ENDROOT
BRANCH   1   7
ATOM      7  O   UNL     1      29.812  31.895  17.325  1.00  0.00    -0.338 OA
BRANCH   7   8
ATOM      8  C   UNL     1      28.885  30.920  17.068  1.00  0.00     0.199 C 
BRANCH   8   9
ATOM      9  C   UNL     1      27.789  30.863  18.131  1.00  0.00     0.179 C 
ATOM     10  C   UNL     1      25.892  29.551  17.522  1.00  0.00     0.282 C 
ATOM     11  O   UNL     1      26.605  30.692  17.609  1.00  0.00    -0.341 OA
ATOM     12  C   UNL     1      26.562  28.354  18.001  1.00  0.00     0.202 C 
ATOM     13  C   UNL     1      27.517  28.569  19.123  1.00  0.00     0.179 C 
ATOM     14  C   UNL     1      28.148  29.902  19.241  1.00  0.00     0.177 C 
BRANCH  10  15
ATOM     15  O   UNL     1      25.500  29.516  16.148  1.00  0.00    -0.341 OA
BRANCH  15  16
ATOM     16  C   UNL     1      24.608  30.502  15.850  1.00  0.00     0.184 C 
ATOM     17  C   UNL     1      23.254  29.962  15.553  1.00  0.00     0.178 C 
ATOM     18  O   UNL     1      22.323  31.006  15.467  1.00  0.00    -0.341 OA
ATOM     19  C   UNL     1      22.529  31.720  14.318  1.00  0.00     0.281 C 
ATOM     20  C   UNL     1      25.034  31.286  14.615  1.00  0.00     0.180 C 
ATOM     21  C   UNL     1      23.879  31.578  13.741  1.00  0.00     0.202 C 
BRANCH  17  22
ATOM     22  C   UNL     1      22.772  28.887  16.505  1.00  0.00     0.191 C 
BRANCH  22  23
ATOM     23  O   UNL     1      23.416  27.691  16.205  1.00  0.00    -0.394 OA
ATOM     24  H   UNL     1      24.029  27.749  15.442  1.00  0.00     0.210 HD
ENDBRANCH  22  23
ENDBRANCH  17  22
BRANCH  19  25
ATOM     25  O   UNL     1      22.148  33.064  14.465  1.00  0.00    -0.350 OA
BRANCH  25  26
ATOM     26  C   UNL     1      22.206  33.809  13.323  1.00  0.00     0.169 C 
BRANCH  26  27
ATOM     27  C   UNL     1      21.044  33.449  12.426  1.00  0.00     0.119 C 
BRANCH  27  28
ATOM     28  N   UNL     1      20.628  34.580  11.601  1.00  0.00    -0.092 NA
ATOM     29  N   UNL     1      19.693  34.507  10.813  1.00  0.00     0.001 N 
ATOM     30  N   UNL     1      18.983  34.237   9.837  1.00  0.00    -0.003 NA
ENDBRANCH  27  28
ENDBRANCH  26  27
ENDBRANCH  25  26
ENDBRANCH  19  25
BRANCH  20  31
ATOM     31  O   UNL     1      25.725  32.412  15.066  1.00  0.00    -0.387 OA
ATOM     32  H   UNL     1      26.660  32.189  15.322  1.00  0.00     0.211 HD
ENDBRANCH  20  31
BRANCH  21  33
ATOM     33  O   UNL     1      23.856  30.590  12.713  1.00  0.00    -0.385 OA
ATOM     34  H   UNL     1      24.596  30.844  12.093  1.00  0.00     0.211 HD
ENDBRANCH  21  33
ENDBRANCH  15  16
ENDBRANCH  10  15
BRANCH  12  35
ATOM     35  O   UNL     1      25.666  27.354  18.459  1.00  0.00    -0.385 OA
ATOM     36  H   UNL     1      25.630  26.683  17.734  1.00  0.00     0.211 HD
ENDBRANCH  12  35
BRANCH  13  37
ATOM     37  O   UNL     1      28.545  27.590  19.112  1.00  0.00    -0.387 OA
ATOM     38  H   UNL     1      28.389  26.962  18.359  1.00  0.00     0.211 HD
ENDBRANCH  13  37
BRANCH  14  39
ATOM     39  O   UNL     1      29.544  29.760  19.182  1.00  0.00    -0.387 OA
ATOM     40  H   UNL     1      29.823  28.819  19.278  1.00  0.00     0.211 HD
ENDBRANCH  14  39
ENDBRANCH   8   9
ENDBRANCH   7   8
ENDBRANCH   1   7
BRANCH   1  41
ATOM     41  C   UNL     1      30.379  32.628  15.180  1.00  0.00     0.364 C 
ATOM     42  O   UNL     1      29.935  33.007  14.079  1.00  0.00    -0.246 OA
BRANCH  41  43
ATOM     43  O   UNL     1      31.550  31.867  15.153  1.00  0.00    -0.477 OA
ATOM     44  H   UNL     1      32.445  32.297  14.967  1.00  0.00     0.296 HD
ENDBRANCH  41  43
ENDBRANCH   1  41
BRANCH   3  45
ATOM     45  O   UNL     1      30.879  36.438  16.917  1.00  0.00    -0.391 OA
ATOM     46  H   UNL     1      31.751  36.587  16.473  1.00  0.00     0.211 HD
ENDBRANCH   3  45
BRANCH   5  47
ATOM     47  C   UNL     1      27.353  34.321  18.068  1.00  0.00     0.176 C 
BRANCH  47  48
ATOM     48  O   UNL     1      26.230  33.471  17.982  1.00  0.00    -0.388 OA
ATOM     49  H   UNL     1      25.391  33.924  18.176  1.00  0.00     0.211 HD
ENDBRANCH  47  48
BRANCH  47  50
ATOM     50  C   UNL     1      26.926  35.578  18.733  1.00  0.00     0.165 C 
BRANCH  50  51
ATOM     51  O   UNL     1      27.372  35.518  20.048  1.00  0.00    -0.388 OA
ATOM     52  H   UNL     1      28.360  35.547  20.125  1.00  0.00     0.211 HD
ENDBRANCH  50  51
BRANCH  50  53
ATOM     53  C   UNL     1      25.466  35.871  18.712  1.00  0.00     0.154 C 
BRANCH  53  54
ATOM     54  N   UNL     1      24.933  36.354  17.479  1.00  0.00    -0.319 N 
ATOM     55  C   UNL     1      24.219  35.638  16.513  1.00  0.00     0.407 C 
ATOM     56  H   UNL     1      25.093  37.389  17.258  1.00  0.00     0.167 HD
ATOM     57  O   UNL     1      23.994  34.432  16.669  1.00  0.00    -0.225 OA
BRANCH  55  58
ATOM     58  O   UNL     1      23.744  36.256  15.359  1.00  0.00    -0.443 OA
BRANCH  58  59
ATOM     59  C   UNL     1      24.655  36.967  14.505  1.00  0.00     0.294 C 
BRANCH  59  60
ATOM     60  C   UNL     1      25.135  36.036  13.453  1.00  0.00     0.120 A 
ATOM     61  C   UNL     1      24.949  36.247  12.118  1.00  0.00     0.139 A 
ATOM     62  N   UNL     1      25.799  34.901  13.652  1.00  0.00    -0.132 NA
ATOM     63  N   UNL     1      25.523  35.199  11.503  1.00  0.00    -0.240 N 
ATOM     64  N   UNL     1      26.033  34.394  12.442  1.00  0.00    -0.066 NA
BRANCH  63  65
ATOM     65  C   UNL     1      25.635  34.911  10.089  1.00  0.00     0.169 C 
BRANCH  65  66
ATOM     66  C   UNL     1      27.044  35.068   9.705  1.00  0.00    -0.019 A 
ATOM     67  C   UNL     1      27.739  36.214  10.038  1.00  0.00     0.006 A 
ATOM     68  C   UNL     1      27.737  34.115   8.991  1.00  0.00     0.006 A 
ATOM     69  C   UNL     1      29.066  36.390   9.671  1.00  0.00     0.000 A 
ATOM     70  C   UNL     1      29.068  34.281   8.617  1.00  0.00     0.000 A 
ATOM     71  C   UNL     1      29.747  35.433   8.960  1.00  0.00     0.000 A 
ENDBRANCH  65  66
BRANCH  65  72
ATOM     72  C   UNL     1      24.682  35.732   9.316  1.00  0.00    -0.019 A 
ATOM     73  C   UNL     1      23.346  35.351   9.352  1.00  0.00     0.006 A 
ATOM     74  C   UNL     1      25.020  36.812   8.554  1.00  0.00     0.006 A 
ATOM     75  C   UNL     1      22.403  36.045   8.641  1.00  0.00     0.000 A 
ATOM     76  C   UNL     1      24.074  37.519   7.833  1.00  0.00     0.000 A 
ATOM     77  C   UNL     1      22.757  37.136   7.873  1.00  0.00     0.000 A 
ENDBRANCH  65  72
ENDBRANCH  63  65
ENDBRANCH  59  60
ENDBRANCH  58  59
ENDBRANCH  55  58
ENDBRANCH  53  54
ENDBRANCH  50  53
ENDBRANCH  47  50
ENDBRANCH   5  47
BRANCH   4  78
ATOM     78  N   UNL     1      28.333  36.191  15.039  1.00  0.00    -0.348 N 
ATOM     79  C   UNL     1      28.484  37.564  14.701  1.00  0.00     0.217 C 
ATOM     80  H   UNL     1      27.952  35.563  14.288  1.00  0.00     0.163 HD
ATOM     81  C   UNL     1      28.115  38.070  13.335  1.00  0.00     0.114 C 
ATOM     82  O   UNL     1      28.930  38.389  15.527  1.00  0.00    -0.275 OA
ENDBRANCH   4  78
TORSDOF 32
BEGIN_RES LYS A 131
REMARK  4 active torsions:
REMARK  status: ('A' for Active; 'I' for Inactive)
REMARK    1  A    between atoms: CA   and  CB  
REMARK    2  A    between atoms: CB   and  CG  
REMARK    3  A    between atoms: CG   and  CD  
REMARK    4  A    between atoms: CD   and  CE  
ROOT
ATOM      1  CA  LYS A 131      29.867  25.555  16.977  1.00 20.52     0.186 C 
ENDROOT
BRANCH   1   2
ATOM      2  CB  LYS A 131      28.345  25.722  17.026  1.00 20.94     0.034 C 
BRANCH   2   3
ATOM      3  CG  LYS A 131      27.600  24.407  16.855  1.00 22.96     0.005 C 
BRANCH   3   4
ATOM      4  CD  LYS A 131      26.631  24.155  17.977  1.00 24.33     0.041 C 
BRANCH   4   5
ATOM      5  CE  LYS A 131      25.476  23.299  17.468  1.00 26.91     0.338 C 
ATOM      6  NZ  LYS A 131      24.412  24.154  16.890  1.00 27.40     0.618 N 
ENDBRANCH   4   5
ENDBRANCH   3   4
ENDBRANCH   2   3
ENDBRANCH   1   2
END_RES LYS A 131
BEGIN_RES LYS A 135
REMARK  4 active torsions:
REMARK  status: ('A' for Active; 'I' for Inactive)
REMARK    5  A    between atoms: CA   and  CB  
REMARK    6  A    between atoms: CB   and  CG  
REMARK    7  A    between atoms: CG   and  CD  
REMARK    8  A    between atoms: CD   and  CE  
ROOT
ATOM      7  CA  LYS A 135      33.193  34.663   9.290  1.00 25.02     0.186 C 
ENDROOT
BRANCH   7   8
ATOM      8  CB  LYS A 135      32.060  35.360  10.034  1.00 26.63     0.034 C 
BRANCH   8   9
ATOM      9  CG  LYS A 135      32.532  36.244  11.159  1.00 29.45     0.005 C 
BRANCH   9  10
ATOM     10  CD  LYS A 135      32.159  35.644  12.506  1.00 32.00     0.041 C 
BRANCH  10  11
ATOM     11  CE  LYS A 135      33.380  35.052  13.182  1.00 34.25     0.338 C 
ATOM     12  NZ  LYS A 135      33.209  35.013  14.661  1.00 35.99     0.618 N 
ENDBRANCH  10  11
ENDBRANCH   9  10
ENDBRANCH   8   9
ENDBRANCH   7   8
END_RES LYS A 135
