REMARK VINA RESULT:    -5.158      4.035     10.420
REMARK INTER + INTRA:         -23.159
REMARK INTER:                 -12.098
REMARK INTRA:                 -11.061
REMARK UNBOUND:               -10.464
REMARK SMILES CC(=O)N[C@@H]1[C@@H](O)C[C@](OC[C@H]2O[C@@H](O[C@H]3[C@H](O)[C@@H](O)[C@H](OCCN=[N+]=[N-])O[C@@H]3CO)[C@H](O)[C@@H](O)[C@H]2O)(C(=O)O)O[C@H]1C(O)[C@H](O)CNC(=O)OCc1cn(-c2c3ccccc3nc3ccccc23)nn1
REMARK SMILES IDX 9 1 8 2 6 3 5 4 42 5 41 6 10 7 11 8 12 9 14 10 13 11 32 12
REMARK SMILES IDX 34 13 36 14 15 15 16 16 29 17 28 18 21 19 17 20 19 21 30 22
REMARK SMILES IDX 31 23 22 25 23 26 24 27 25 28 26 29 27 30 18 31 20 33 33 35
REMARK SMILES IDX 35 37 37 39 38 41 39 42 40 43 7 45 43 47 44 48 45 50 46 51
REMARK SMILES IDX 47 53 48 54 49 55 50 57 51 58 52 59 53 60 54 61 71 62 55 63
REMARK SMILES IDX 70 64 56 65 57 66 69 67 58 68 62 69 64 70 68 71 59 72 61 73
REMARK SMILES IDX 63 74 65 75 67 76 60 77 66 78 4 79 2 80 1 82 3 83
REMARK H PARENT 31 24 18 32 20 34 33 36 35 38 37 40 40 44 7 46 44 49 46 52
REMARK H PARENT 48 56 4 81
REMARK Flexibility Score: inf
ROOT
ATOM      1  C   UNL     1      20.741  36.965   8.893  1.00  0.00     0.272 C 
ATOM      2  C   UNL     1      20.281  36.291   7.508  1.00  0.00     0.113 C 
ATOM      3  C   UNL     1      19.635  35.025   7.938  1.00  0.00     0.145 C 
ATOM      4  C   UNL     1      18.520  35.192   8.949  1.00  0.00     0.142 C 
ATOM      5  C   UNL     1      18.644  36.385   9.802  1.00  0.00     0.178 C 
ATOM      6  O   UNL     1      19.588  37.296   9.470  1.00  0.00    -0.332 OA
ENDROOT
BRANCH   1   7
ATOM      7  O   UNL     1      21.349  38.112   8.377  1.00  0.00    -0.338 OA
BRANCH   7   8
ATOM      8  C   UNL     1      21.959  38.935   9.261  1.00  0.00     0.199 C 
BRANCH   8   9
ATOM      9  C   UNL     1      23.281  39.456   8.848  1.00  0.00     0.179 C 
ATOM     10  C   UNL     1      25.528  39.704   9.427  1.00  0.00     0.282 C 
ATOM     11  O   UNL     1      24.238  39.277   9.809  1.00  0.00    -0.341 OA
ATOM     12  C   UNL     1      25.570  40.458   8.164  1.00  0.00     0.202 C 
ATOM     13  C   UNL     1      24.880  39.722   7.038  1.00  0.00     0.179 C 
ATOM     14  C   UNL     1      23.743  38.877   7.509  1.00  0.00     0.177 C 
BRANCH  10  15
ATOM     15  O   UNL     1      26.404  38.627   9.459  1.00  0.00    -0.341 OA
BRANCH  15  16
ATOM     16  C   UNL     1      26.520  38.062  10.750  1.00  0.00     0.184 C 
ATOM     17  C   UNL     1      27.913  38.176  11.224  1.00  0.00     0.178 C 
ATOM     18  O   UNL     1      28.239  37.258  12.256  1.00  0.00    -0.341 OA
ATOM     19  C   UNL     1      28.142  35.988  11.700  1.00  0.00     0.281 C 
ATOM     20  C   UNL     1      26.110  36.595  10.542  1.00  0.00     0.180 C 
ATOM     21  C   UNL     1      26.632  35.705  11.636  1.00  0.00     0.202 C 
BRANCH  17  22
ATOM     22  C   UNL     1      28.203  39.560  11.785  1.00  0.00     0.191 C 
BRANCH  22  23
ATOM     23  O   UNL     1      27.075  40.254  12.139  1.00  0.00    -0.394 OA
ATOM     24  H   UNL     1      27.080  41.133  11.679  1.00  0.00     0.210 HD
ENDBRANCH  22  23
ENDBRANCH  17  22
BRANCH  19  25
ATOM     25  O   UNL     1      28.810  35.114  12.519  1.00  0.00    -0.350 OA
BRANCH  25  26
ATOM     26  C   UNL     1      29.848  35.686  13.248  1.00  0.00     0.169 C 
BRANCH  26  27
ATOM     27  C   UNL     1      30.853  34.656  13.717  1.00  0.00     0.119 C 
BRANCH  27  28
ATOM     28  N   UNL     1      30.091  33.517  14.220  1.00  0.00    -0.092 NA
ATOM     29  N   UNL     1      30.612  32.704  14.992  1.00  0.00     0.001 N 
ATOM     30  N   UNL     1      31.059  31.902  15.815  1.00  0.00    -0.003 NA
ENDBRANCH  27  28
ENDBRANCH  26  27
ENDBRANCH  25  26
ENDBRANCH  19  25
BRANCH  20  31
ATOM     31  O   UNL     1      24.736  36.509  10.388  1.00  0.00    -0.387 OA
ATOM     32  H   UNL     1      24.323  37.361  10.101  1.00  0.00     0.211 HD
ENDBRANCH  20  31
BRANCH  21  33
ATOM     33  O   UNL     1      26.386  34.389  11.314  1.00  0.00    -0.385 OA
ATOM     34  H   UNL     1      25.406  34.228  11.462  1.00  0.00     0.211 HD
ENDBRANCH  21  33
ENDBRANCH  15  16
ENDBRANCH  10  15
BRANCH  12  35
ATOM     35  O   UNL     1      25.067  41.756   8.337  1.00  0.00    -0.385 OA
ATOM     36  H   UNL     1      25.494  42.095   9.179  1.00  0.00     0.211 HD
ENDBRANCH  12  35
BRANCH  13  37
ATOM     37  O   UNL     1      25.856  38.953   6.375  1.00  0.00    -0.387 OA
ATOM     38  H   UNL     1      25.517  38.861   5.428  1.00  0.00     0.211 HD
ENDBRANCH  13  37
BRANCH  14  39
ATOM     39  O   UNL     1      24.053  37.535   7.594  1.00  0.00    -0.387 OA
ATOM     40  H   UNL     1      24.989  37.334   7.342  1.00  0.00     0.211 HD
ENDBRANCH  14  39
ENDBRANCH   8   9
ENDBRANCH   7   8
ENDBRANCH   1   7
BRANCH   1  41
ATOM     41  C   UNL     1      21.653  36.008   9.423  1.00  0.00     0.364 C 
ATOM     42  O   UNL     1      22.558  35.490   8.692  1.00  0.00    -0.246 OA
BRANCH  41  43
ATOM     43  O   UNL     1      21.679  35.536  10.740  1.00  0.00    -0.477 OA
ATOM     44  H   UNL     1      20.800  35.390  11.222  1.00  0.00     0.296 HD
ENDBRANCH  41  43
ENDBRANCH   1  41
BRANCH   3  45
ATOM     45  O   UNL     1      19.137  34.409   6.764  1.00  0.00    -0.391 OA
ATOM     46  H   UNL     1      19.315  35.004   5.989  1.00  0.00     0.211 HD
ENDBRANCH   3  45
BRANCH   5  47
ATOM     47  C   UNL     1      17.317  37.192   9.851  1.00  0.00     0.176 C 
BRANCH  47  48
ATOM     48  O   UNL     1      16.445  36.742   8.904  1.00  0.00    -0.388 OA
ATOM     49  H   UNL     1      16.158  37.443   8.240  1.00  0.00     0.211 HD
ENDBRANCH  47  48
BRANCH  47  50
ATOM     50  C   UNL     1      16.839  37.455  11.206  1.00  0.00     0.165 C 
BRANCH  50  51
ATOM     51  O   UNL     1      15.470  37.683  11.363  1.00  0.00    -0.388 OA
ATOM     52  H   UNL     1      15.094  37.152  12.109  1.00  0.00     0.211 HD
ENDBRANCH  50  51
BRANCH  50  53
ATOM     53  C   UNL     1      17.686  38.246  12.127  1.00  0.00     0.154 C 
BRANCH  53  54
ATOM     54  N   UNL     1      18.394  37.607  13.172  1.00  0.00    -0.319 N 
ATOM     55  C   UNL     1      19.798  37.500  13.266  1.00  0.00     0.407 C 
ATOM     56  H   UNL     1      17.814  37.159  13.977  1.00  0.00     0.167 HD
ATOM     57  O   UNL     1      20.599  37.933  12.423  1.00  0.00    -0.225 OA
BRANCH  55  58
ATOM     58  O   UNL     1      20.396  36.867  14.373  1.00  0.00    -0.443 OA
BRANCH  58  59
ATOM     59  C   UNL     1      21.759  37.044  14.717  1.00  0.00     0.294 C 
BRANCH  59  60
ATOM     60  C   UNL     1      22.561  35.918  14.157  1.00  0.00     0.121 A 
ATOM     61  C   UNL     1      22.763  34.663  14.692  1.00  0.00     0.144 A 
ATOM     62  N   UNL     1      23.258  35.924  13.012  1.00  0.00    -0.131 NA
ATOM     63  N   UNL     1      23.565  33.936  13.881  1.00  0.00    -0.219 N 
ATOM     64  N   UNL     1      23.851  34.734  12.866  1.00  0.00    -0.062 NA
BRANCH  63  65
ATOM     65  C   UNL     1      24.006  32.583  14.099  1.00  0.00     0.085 A 
ATOM     66  C   UNL     1      23.280  31.524  13.576  1.00  0.00     0.027 A 
ATOM     67  C   UNL     1      25.139  32.291  14.823  1.00  0.00     0.027 A 
ATOM     68  C   UNL     1      22.137  31.751  12.841  1.00  0.00     0.012 A 
ATOM     69  C   UNL     1      23.663  30.198  13.762  1.00  0.00     0.073 A 
ATOM     70  C   UNL     1      25.482  30.967  14.984  1.00  0.00     0.073 A 
ATOM     71  C   UNL     1      25.901  33.284  15.365  1.00  0.00     0.012 A 
ATOM     72  C   UNL     1      21.416  30.699  12.319  1.00  0.00     0.001 A 
ATOM     73  C   UNL     1      22.939  29.149  13.240  1.00  0.00     0.029 A 
ATOM     74  N   UNL     1      24.770  29.948  14.472  1.00  0.00    -0.248 NA
ATOM     75  C   UNL     1      26.612  30.635  15.703  1.00  0.00     0.029 A 
ATOM     76  C   UNL     1      27.033  32.921  16.083  1.00  0.00     0.001 A 
ATOM     77  C   UNL     1      21.799  29.374  12.506  1.00  0.00     0.002 A 
ATOM     78  C   UNL     1      27.413  31.609  16.269  1.00  0.00     0.002 A 
ENDBRANCH  63  65
ENDBRANCH  59  60
ENDBRANCH  58  59
ENDBRANCH  55  58
ENDBRANCH  53  54
ENDBRANCH  50  53
ENDBRANCH  47  50
ENDBRANCH   5  47
BRANCH   4  79
ATOM     79  N   UNL     1      18.365  33.956   9.684  1.00  0.00    -0.348 N 
ATOM     80  C   UNL     1      17.142  33.229   9.787  1.00  0.00     0.217 C 
ATOM     81  H   UNL     1      19.173  33.531  10.194  1.00  0.00     0.163 HD
ATOM     82  C   UNL     1      17.107  31.958  10.587  1.00  0.00     0.114 C 
ATOM     83  O   UNL     1      16.145  33.683   9.204  1.00  0.00    -0.275 OA
ENDBRANCH   4  79
TORSDOF 30
BEGIN_RES LYS A 131
REMARK  4 active torsions:
REMARK  status: ('A' for Active; 'I' for Inactive)
REMARK    1  A    between atoms: CA   and  CB  
REMARK    2  A    between atoms: CB   and  CG  
REMARK    3  A    between atoms: CG   and  CD  
REMARK    4  A    between atoms: CD   and  CE  
ROOT
ATOM      1  CA  LYS A 131      29.867  25.555  16.977  1.00 20.52     0.186 C 
ENDROOT
BRANCH   1   2
ATOM      2  CB  LYS A 131      28.345  25.722  17.026  1.00 20.94     0.034 C 
BRANCH   2   3
ATOM      3  CG  LYS A 131      27.602  24.398  16.937  1.00 22.96     0.005 C 
BRANCH   3   4
ATOM      4  CD  LYS A 131      26.148  24.539  17.292  1.00 24.33     0.041 C 
BRANCH   4   5
ATOM      5  CE  LYS A 131      25.994  24.549  18.810  1.00 26.91     0.338 C 
ATOM      6  NZ  LYS A 131      25.583  23.212  19.298  1.00 27.40     0.618 N 
ENDBRANCH   4   5
ENDBRANCH   3   4
ENDBRANCH   2   3
ENDBRANCH   1   2
END_RES LYS A 131
BEGIN_RES LYS A 135
REMARK  4 active torsions:
REMARK  status: ('A' for Active; 'I' for Inactive)
REMARK    5  A    between atoms: CA   and  CB  
REMARK    6  A    between atoms: CB   and  CG  
REMARK    7  A    between atoms: CG   and  CD  
REMARK    8  A    between atoms: CD   and  CE  
ROOT
ATOM      7  CA  LYS A 135      33.193  34.663   9.290  1.00 25.02     0.186 C 
ENDROOT
BRANCH   7   8
ATOM      8  CB  LYS A 135      32.060  35.360  10.034  1.00 26.63     0.034 C 
BRANCH   8   9
ATOM      9  CG  LYS A 135      30.708  34.743   9.787  1.00 29.45     0.005 C 
BRANCH   9  10
ATOM     10  CD  LYS A 135      30.482  34.524   8.299  1.00 32.00     0.041 C 
BRANCH  10  11
ATOM     11  CE  LYS A 135      29.059  34.886   7.917  1.00 34.25     0.338 C 
ATOM     12  NZ  LYS A 135      28.797  36.335   8.139  1.00 35.99     0.618 N 
ENDBRANCH  10  11
ENDBRANCH   9  10
ENDBRANCH   8   9
ENDBRANCH   7   8
END_RES LYS A 135
