REMARK VINA RESULT:    -4.089      3.813      7.969
REMARK INTER + INTRA:         -21.448
REMARK INTER:                 -11.385
REMARK INTRA:                 -10.063
REMARK UNBOUND:               -10.427
REMARK SMILES CCN(CC)CCn1cc(COC(=O)NC[C@@H](O)C(O)[C@@H]2O[C@@](OC[C@H]3O[C@@H](O[C@H]4[C@H](O)[C@@H](O)[C@H](OCCN=[N+]=[N-])O[C@@H]4CO)[C@H](O)[C@@H](O)[C@H]3O)(C(=O)O)C[C@H](O)[C@H]2NC(C)=O)nn1
REMARK SMILES IDX 19 1 21 2 23 3 55 4 22 5 56 6 58 7 24 8 25 9 26 10 28 11
REMARK SMILES IDX 27 12 46 13 48 14 50 15 29 16 30 17 43 18 42 19 35 20 31 21
REMARK SMILES IDX 33 22 44 23 45 24 36 26 37 27 38 28 39 29 40 30 41 31 32 32
REMARK SMILES IDX 34 34 47 36 49 38 51 40 52 42 53 43 54 44 57 46 59 48 60 49
REMARK SMILES IDX 61 51 62 52 20 53 17 55 18 56 16 58 15 59 13 60 14 62 12 63
REMARK SMILES IDX 11 64 10 65 9 66 63 67 8 68 64 69 7 70 6 71 3 72 2 73 1 74
REMARK SMILES IDX 4 75 5 76
REMARK H PARENT 45 25 32 33 34 35 47 37 49 39 51 41 54 45 57 47 59 50 20 54
REMARK H PARENT 18 57 15 61
REMARK Flexibility Score: inf
ROOT
ATOM      1  C   UNL     1      23.341  38.256   7.876  1.00  0.00     0.176 C 
ENDROOT
BRANCH   1   2
ATOM      2  C   UNL     1      24.539  39.036   7.404  1.00  0.00     0.178 C 
ATOM      3  C   UNL     1      26.778  38.876   6.893  1.00  0.00     0.272 C 
ATOM      4  C   UNL     1      26.455  40.304   6.427  1.00  0.00     0.113 C 
ATOM      5  O   UNL     1      25.633  38.213   7.277  1.00  0.00    -0.332 OA
ATOM      6  C   UNL     1      25.750  41.123   7.459  1.00  0.00     0.145 C 
ATOM      7  C   UNL     1      24.940  40.157   8.337  1.00  0.00     0.142 C 
BRANCH   3   8
ATOM      8  O   UNL     1      27.731  38.992   7.876  1.00  0.00    -0.338 OA
BRANCH   8   9
ATOM      9  C   UNL     1      27.899  37.899   8.690  1.00  0.00     0.199 C 
BRANCH   9  10
ATOM     10  C   UNL     1      27.462  38.207  10.133  1.00  0.00     0.179 C 
ATOM     11  C   UNL     1      28.178  37.309  12.186  1.00  0.00     0.282 C 
ATOM     12  O   UNL     1      27.790  37.124  10.868  1.00  0.00    -0.341 OA
ATOM     13  C   UNL     1      27.607  38.534  12.778  1.00  0.00     0.202 C 
ATOM     14  C   UNL     1      27.897  39.786  11.998  1.00  0.00     0.179 C 
ATOM     15  C   UNL     1      28.220  39.427  10.564  1.00  0.00     0.177 C 
BRANCH  11  16
ATOM     16  O   UNL     1      29.559  37.174  12.171  1.00  0.00    -0.341 OA
BRANCH  16  17
ATOM     17  C   UNL     1      30.088  36.624  13.286  1.00  0.00     0.184 C 
ATOM     18  C   UNL     1      31.285  37.378  13.803  1.00  0.00     0.178 C 
ATOM     19  O   UNL     1      31.681  36.774  15.032  1.00  0.00    -0.341 OA
ATOM     20  C   UNL     1      32.418  35.649  14.733  1.00  0.00     0.281 C 
ATOM     21  C   UNL     1      30.535  35.178  13.096  1.00  0.00     0.180 C 
ATOM     22  C   UNL     1      31.940  34.935  13.546  1.00  0.00     0.202 C 
BRANCH  18  23
ATOM     23  C   UNL     1      31.114  38.846  13.953  1.00  0.00     0.191 C 
BRANCH  23  24
ATOM     24  O   UNL     1      31.423  39.441  12.736  1.00  0.00    -0.394 OA
ATOM     25  H   UNL     1      30.667  39.934  12.330  1.00  0.00     0.210 HD
ENDBRANCH  23  24
ENDBRANCH  18  23
BRANCH  20  26
ATOM     26  O   UNL     1      32.622  34.849  15.854  1.00  0.00    -0.350 OA
BRANCH  26  27
ATOM     27  C   UNL     1      33.165  35.488  16.927  1.00  0.00     0.169 C 
BRANCH  27  28
ATOM     28  C   UNL     1      34.316  36.403  16.552  1.00  0.00     0.119 C 
BRANCH  28  29
ATOM     29  N   UNL     1      35.582  35.870  17.014  1.00  0.00    -0.092 NA
ATOM     30  N   UNL     1      36.652  36.478  16.884  1.00  0.00     0.001 N 
ATOM     31  N   UNL     1      37.705  36.842  16.356  1.00  0.00    -0.003 NA
ENDBRANCH  28  29
ENDBRANCH  27  28
ENDBRANCH  26  27
ENDBRANCH  20  26
BRANCH  21  32
ATOM     32  O   UNL     1      29.677  34.361  13.807  1.00  0.00    -0.387 OA
ATOM     33  H   UNL     1      28.819  34.196  13.366  1.00  0.00     0.211 HD
ENDBRANCH  21  32
BRANCH  22  34
ATOM     34  O   UNL     1      32.857  35.124  12.482  1.00  0.00    -0.385 OA
ATOM     35  H   UNL     1      32.303  35.259  11.670  1.00  0.00     0.211 HD
ENDBRANCH  22  34
ENDBRANCH  16  17
ENDBRANCH  11  16
BRANCH  13  36
ATOM     36  O   UNL     1      26.188  38.396  12.803  1.00  0.00    -0.385 OA
ATOM     37  H   UNL     1      25.874  37.870  12.045  1.00  0.00     0.211 HD
ENDBRANCH  13  36
BRANCH  14  38
ATOM     38  O   UNL     1      28.877  40.588  12.560  1.00  0.00    -0.387 OA
ATOM     39  H   UNL     1      29.542  40.092  13.064  1.00  0.00     0.211 HD
ENDBRANCH  14  38
BRANCH  15  40
ATOM     40  O   UNL     1      29.580  39.157  10.489  1.00  0.00    -0.387 OA
ATOM     41  H   UNL     1      29.858  39.051   9.534  1.00  0.00     0.211 HD
ENDBRANCH  15  40
ENDBRANCH   9  10
ENDBRANCH   8   9
ENDBRANCH   3   8
BRANCH   3  42
ATOM     42  C   UNL     1      27.335  38.215   5.686  1.00  0.00     0.364 C 
ATOM     43  O   UNL     1      28.125  38.846   4.905  1.00  0.00    -0.246 OA
BRANCH  42  44
ATOM     44  O   UNL     1      27.064  36.915   5.309  1.00  0.00    -0.477 OA
ATOM     45  H   UNL     1      26.337  36.727   4.627  1.00  0.00     0.296 HD
ENDBRANCH  42  44
ENDBRANCH   3  42
BRANCH   6  46
ATOM     46  O   UNL     1      26.552  41.967   8.188  1.00  0.00    -0.391 OA
ATOM     47  H   UNL     1      27.301  42.243   7.600  1.00  0.00     0.211 HD
ENDBRANCH   6  46
BRANCH   7  48
ATOM     48  N   UNL     1      23.854  40.817   8.980  1.00  0.00    -0.348 N 
ATOM     49  C   UNL     1      23.820  40.826  10.422  1.00  0.00     0.217 C 
ATOM     50  H   UNL     1      23.073  41.305   8.506  1.00  0.00     0.163 HD
ATOM     51  C   UNL     1      22.718  41.493  11.160  1.00  0.00     0.114 C 
ATOM     52  O   UNL     1      24.721  40.269  11.103  1.00  0.00    -0.275 OA
ENDBRANCH   7  48
ENDBRANCH   1   2
BRANCH   1  53
ATOM     53  O   UNL     1      22.849  37.521   6.806  1.00  0.00    -0.388 OA
ATOM     54  H   UNL     1      23.304  36.620   6.788  1.00  0.00     0.211 HD
ENDBRANCH   1  53
BRANCH   1  55
ATOM     55  C   UNL     1      23.830  37.308   8.940  1.00  0.00     0.165 C 
BRANCH  55  56
ATOM     56  O   UNL     1      23.798  36.001   8.440  1.00  0.00    -0.388 OA
ATOM     57  H   UNL     1      24.097  36.027   7.499  1.00  0.00     0.211 HD
ENDBRANCH  55  56
BRANCH  55  58
ATOM     58  C   UNL     1      23.103  37.363  10.233  1.00  0.00     0.154 C 
BRANCH  58  59
ATOM     59  N   UNL     1      23.921  37.147  11.377  1.00  0.00    -0.319 N 
ATOM     60  C   UNL     1      24.096  35.810  11.873  1.00  0.00     0.407 C 
ATOM     61  H   UNL     1      24.382  37.916  11.864  1.00  0.00     0.167 HD
ATOM     62  O   UNL     1      23.539  34.842  11.319  1.00  0.00    -0.225 OA
BRANCH  60  63
ATOM     63  O   UNL     1      24.901  35.624  12.985  1.00  0.00    -0.443 OA
BRANCH  63  64
ATOM     64  C   UNL     1      26.030  34.742  12.869  1.00  0.00     0.294 C 
BRANCH  64  65
ATOM     65  C   UNL     1      25.962  33.787  13.983  1.00  0.00     0.120 A 
ATOM     66  C   UNL     1      24.903  32.894  14.176  1.00  0.00     0.138 A 
ATOM     67  N   UNL     1      26.804  33.553  14.987  1.00  0.00    -0.132 NA
ATOM     68  N   UNL     1      25.151  32.165  15.279  1.00  0.00    -0.251 N 
ATOM     69  N   UNL     1      26.297  32.580  15.747  1.00  0.00    -0.067 NA
BRANCH  68  70
ATOM     70  C   UNL     1      24.321  31.121  15.851  1.00  0.00     0.161 C 
BRANCH  70  71
ATOM     71  C   UNL     1      24.637  29.832  15.124  1.00  0.00     0.108 C 
BRANCH  71  72
ATOM     72  N   UNL     1      23.498  29.245  14.480  1.00  0.00    -0.302 NA
BRANCH  72  73
ATOM     73  C   UNL     1      23.573  29.340  13.048  1.00  0.00     0.081 C 
ATOM     74  C   UNL     1      22.461  30.265  12.567  1.00  0.00     0.021 C 
ENDBRANCH  72  73
BRANCH  72  75
ATOM     75  C   UNL     1      22.252  29.698  15.016  1.00  0.00     0.081 C 
ATOM     76  C   UNL     1      21.519  28.569  15.713  1.00  0.00     0.021 C 
ENDBRANCH  72  75
ENDBRANCH  71  72
ENDBRANCH  70  71
ENDBRANCH  68  70
ENDBRANCH  64  65
ENDBRANCH  63  64
ENDBRANCH  60  63
ENDBRANCH  58  59
ENDBRANCH  55  58
ENDBRANCH   1  55
TORSDOF 34
BEGIN_RES LYS A 131
REMARK  4 active torsions:
REMARK  status: ('A' for Active; 'I' for Inactive)
REMARK    1  A    between atoms: CA   and  CB  
REMARK    2  A    between atoms: CB   and  CG  
REMARK    3  A    between atoms: CG   and  CD  
REMARK    4  A    between atoms: CD   and  CE  
ROOT
ATOM      1  CA  LYS A 131      29.867  25.555  16.977  1.00 20.52     0.186 C 
ENDROOT
BRANCH   1   2
ATOM      2  CB  LYS A 131      28.345  25.722  17.026  1.00 20.94     0.034 C 
BRANCH   2   3
ATOM      3  CG  LYS A 131      27.601  24.404  16.875  1.00 22.96     0.005 C 
BRANCH   3   4
ATOM      4  CD  LYS A 131      26.163  24.514  17.300  1.00 24.33     0.041 C 
BRANCH   4   5
ATOM      5  CE  LYS A 131      25.732  23.218  17.979  1.00 26.91     0.338 C 
ATOM      6  NZ  LYS A 131      25.521  23.437  19.429  1.00 27.40     0.618 N 
ENDBRANCH   4   5
ENDBRANCH   3   4
ENDBRANCH   2   3
ENDBRANCH   1   2
END_RES LYS A 131
BEGIN_RES LYS A 135
REMARK  4 active torsions:
REMARK  status: ('A' for Active; 'I' for Inactive)
REMARK    5  A    between atoms: CA   and  CB  
REMARK    6  A    between atoms: CB   and  CG  
REMARK    7  A    between atoms: CG   and  CD  
REMARK    8  A    between atoms: CD   and  CE  
ROOT
ATOM      7  CA  LYS A 135      33.193  34.663   9.290  1.00 25.02     0.186 C 
ENDROOT
BRANCH   7   8
ATOM      8  CB  LYS A 135      32.060  35.360  10.034  1.00 26.63     0.034 C 
BRANCH   8   9
ATOM      9  CG  LYS A 135      30.799  35.497   9.220  1.00 29.45     0.005 C 
BRANCH   9  10
ATOM     10  CD  LYS A 135      30.138  34.142   9.021  1.00 32.00     0.041 C 
BRANCH  10  11
ATOM     11  CE  LYS A 135      28.682  34.312   8.634  1.00 34.25     0.338 C 
ATOM     12  NZ  LYS A 135      27.780  33.769   9.687  1.00 35.99     0.618 N 
ENDBRANCH  10  11
ENDBRANCH   9  10
ENDBRANCH   8   9
ENDBRANCH   7   8
END_RES LYS A 135
