REMARK VINA RESULT:    -5.230      2.748      6.380
REMARK INTER + INTRA:         -25.846
REMARK INTER:                 -14.033
REMARK INTRA:                 -11.813
REMARK UNBOUND:                -9.760
REMARK SMILES CC(=O)N[C@@H]1[C@@H](O)C[C@](OC[C@H]2O[C@@H](O[C@H]3[C@H](O)[C@@H](O)[C@H](OCCN=[N+]=[N-])O[C@@H]3CO)[C@H](O)[C@@H](O)[C@H]2O)(C(=O)O)O[C@H]1C(O)[C@H](O)CNC(=O)OCc1cn(CCCCCCCCCCC(=O)O)nn1
REMARK SMILES IDX 51 1 49 2 48 3 50 5 47 6 45 7 43 8 42 9 9 10 8 11 41 12 6 13
REMARK SMILES IDX 5 14 10 15 11 16 12 17 14 18 13 19 32 20 34 21 36 22 15 23
REMARK SMILES IDX 16 24 29 25 28 26 21 27 17 28 19 29 30 30 31 31 22 33 23 34
REMARK SMILES IDX 24 35 25 36 26 37 27 38 18 39 20 41 33 43 35 45 37 47 38 49
REMARK SMILES IDX 39 50 40 51 7 53 4 55 2 56 1 58 3 59 44 60 46 62 52 64 53 65
REMARK SMILES IDX 54 66 70 67 55 68 69 69 56 70 57 71 58 72 59 73 60 74 61 75
REMARK SMILES IDX 62 76 63 77 64 78 65 79 66 80 67 81 68 82
REMARK H PARENT 48 4 31 32 18 40 20 42 33 44 35 46 37 48 40 52 7 54 4 57 44 61
REMARK H PARENT 46 63 68 83
REMARK Flexibility Score: inf
ROOT
ATOM      1  O   UNL     1      27.621  38.705  13.728  1.00  0.00    -0.443 OA
ENDROOT
BRANCH   1   2
ATOM      2  C   UNL     1      27.409  39.520  12.595  1.00  0.00     0.407 C 
ATOM      3  N   UNL     1      26.172  40.183  12.398  1.00  0.00    -0.319 N 
ATOM      4  H   UNL     1      25.411  40.047  13.114  1.00  0.00     0.167 HD
ATOM      5  O   UNL     1      28.308  39.680  11.738  1.00  0.00    -0.225 OA
BRANCH   3   6
ATOM      6  C   UNL     1      25.918  41.026  11.268  1.00  0.00     0.154 C 
BRANCH   6   7
ATOM      7  C   UNL     1      25.205  40.332  10.113  1.00  0.00     0.165 C 
BRANCH   7   8
ATOM      8  C   UNL     1      24.015  39.663  10.708  1.00  0.00     0.176 C 
BRANCH   8   9
ATOM      9  C   UNL     1      23.351  38.607   9.855  1.00  0.00     0.178 C 
ATOM     10  C   UNL     1      23.594  36.361   9.304  1.00  0.00     0.272 C 
ATOM     11  C   UNL     1      23.116  36.741   7.919  1.00  0.00     0.113 C 
ATOM     12  O   UNL     1      24.143  37.493   9.876  1.00  0.00    -0.332 OA
ATOM     13  C   UNL     1      23.521  38.117   7.497  1.00  0.00     0.145 C 
ATOM     14  C   UNL     1      22.970  39.111   8.498  1.00  0.00     0.142 C 
BRANCH  10  15
ATOM     15  O   UNL     1      24.552  35.337   9.234  1.00  0.00    -0.338 OA
BRANCH  15  16
ATOM     16  C   UNL     1      25.843  35.695   9.427  1.00  0.00     0.199 C 
BRANCH  16  17
ATOM     17  C   UNL     1      26.634  35.130   8.228  1.00  0.00     0.179 C 
ATOM     18  C   UNL     1      28.260  36.737   7.619  1.00  0.00     0.282 C 
ATOM     19  O   UNL     1      27.099  36.074   7.401  1.00  0.00    -0.341 OA
ATOM     20  C   UNL     1      29.142  36.102   8.626  1.00  0.00     0.202 C 
ATOM     21  C   UNL     1      29.057  34.589   8.472  1.00  0.00     0.179 C 
ATOM     22  C   UNL     1      27.640  34.108   8.710  1.00  0.00     0.177 C 
BRANCH  18  23
ATOM     23  O   UNL     1      27.909  38.075   7.929  1.00  0.00    -0.341 OA
BRANCH  23  24
ATOM     24  C   UNL     1      28.659  38.901   7.102  1.00  0.00     0.184 C 
ATOM     25  C   UNL     1      29.214  40.123   7.756  1.00  0.00     0.178 C 
ATOM     26  O   UNL     1      29.781  40.951   6.833  1.00  0.00    -0.341 OA
ATOM     27  C   UNL     1      29.956  40.557   5.559  1.00  0.00     0.281 C 
ATOM     28  C   UNL     1      27.782  39.399   5.941  1.00  0.00     0.180 C 
ATOM     29  C   UNL     1      28.737  39.949   4.906  1.00  0.00     0.202 C 
BRANCH  25  30
ATOM     30  C   UNL     1      30.212  39.822   8.859  1.00  0.00     0.191 C 
BRANCH  30  31
ATOM     31  O   UNL     1      31.280  39.069   8.449  1.00  0.00    -0.394 OA
ATOM     32  H   UNL     1      30.948  38.355   7.845  1.00  0.00     0.210 HD
ENDBRANCH  30  31
ENDBRANCH  25  30
BRANCH  27  33
ATOM     33  O   UNL     1      30.992  39.636   5.478  1.00  0.00    -0.350 OA
BRANCH  33  34
ATOM     34  C   UNL     1      32.188  40.224   5.068  1.00  0.00     0.169 C 
BRANCH  34  35
ATOM     35  C   UNL     1      33.359  39.753   5.884  1.00  0.00     0.119 C 
BRANCH  35  36
ATOM     36  N   UNL     1      33.518  40.649   7.031  1.00  0.00    -0.092 NA
ATOM     37  N   UNL     1      34.440  41.494   7.057  1.00  0.00     0.001 N 
ATOM     38  N   UNL     1      35.438  42.210   6.824  1.00  0.00    -0.003 NA
ENDBRANCH  35  36
ENDBRANCH  34  35
ENDBRANCH  33  34
ENDBRANCH  27  33
BRANCH  28  39
ATOM     39  O   UNL     1      27.017  38.396   5.386  1.00  0.00    -0.387 OA
ATOM     40  H   UNL     1      27.416  37.997   4.573  1.00  0.00     0.211 HD
ENDBRANCH  28  39
BRANCH  29  41
ATOM     41  O   UNL     1      28.073  40.966   4.227  1.00  0.00    -0.385 OA
ATOM     42  H   UNL     1      28.324  41.834   4.671  1.00  0.00     0.211 HD
ENDBRANCH  29  41
ENDBRANCH  23  24
ENDBRANCH  18  23
BRANCH  20  43
ATOM     43  O   UNL     1      30.496  36.405   8.428  1.00  0.00    -0.385 OA
ATOM     44  H   UNL     1      30.593  37.372   8.675  1.00  0.00     0.211 HD
ENDBRANCH  20  43
BRANCH  21  45
ATOM     45  O   UNL     1      29.919  33.955   9.365  1.00  0.00    -0.387 OA
ATOM     46  H   UNL     1      29.861  34.461  10.215  1.00  0.00     0.211 HD
ENDBRANCH  21  45
BRANCH  22  47
ATOM     47  O   UNL     1      27.490  33.887  10.057  1.00  0.00    -0.387 OA
ATOM     48  H   UNL     1      27.354  32.916  10.203  1.00  0.00     0.211 HD
ENDBRANCH  22  47
ENDBRANCH  16  17
ENDBRANCH  15  16
ENDBRANCH  10  15
BRANCH  10  49
ATOM     49  C   UNL     1      22.515  35.810  10.128  1.00  0.00     0.364 C 
ATOM     50  O   UNL     1      22.697  35.381  11.279  1.00  0.00    -0.246 OA
BRANCH  49  51
ATOM     51  O   UNL     1      21.220  35.746   9.640  1.00  0.00    -0.477 OA
ATOM     52  H   UNL     1      20.985  35.247   8.779  1.00  0.00     0.296 HD
ENDBRANCH  49  51
ENDBRANCH  10  49
BRANCH  13  53
ATOM     53  O   UNL     1      24.865  38.297   7.256  1.00  0.00    -0.391 OA
ATOM     54  H   UNL     1      25.277  39.029   7.798  1.00  0.00     0.211 HD
ENDBRANCH  13  53
BRANCH  14  55
ATOM     55  N   UNL     1      21.569  39.223   8.263  1.00  0.00    -0.348 N 
ATOM     56  C   UNL     1      20.810  40.410   8.473  1.00  0.00     0.217 C 
ATOM     57  H   UNL     1      21.022  38.401   7.912  1.00  0.00     0.163 HD
ATOM     58  C   UNL     1      19.361  40.448   8.206  1.00  0.00     0.114 C 
ATOM     59  O   UNL     1      21.414  41.415   8.890  1.00  0.00    -0.275 OA
ENDBRANCH  14  55
ENDBRANCH   8   9
BRANCH   8  60
ATOM     60  O   UNL     1      23.164  40.617  11.196  1.00  0.00    -0.388 OA
ATOM     61  H   UNL     1      23.127  40.689  12.163  1.00  0.00     0.211 HD
ENDBRANCH   8  60
ENDBRANCH   7   8
BRANCH   7  62
ATOM     62  O   UNL     1      26.126  39.470   9.528  1.00  0.00    -0.388 OA
ATOM     63  H   UNL     1      25.768  38.555   9.427  1.00  0.00     0.211 HD
ENDBRANCH   7  62
ENDBRANCH   6   7
ENDBRANCH   3   6
ENDBRANCH   1   2
BRANCH   1  64
ATOM     64  C   UNL     1      26.898  37.466  13.766  1.00  0.00     0.294 C 
BRANCH  64  65
ATOM     65  C   UNL     1      27.841  36.401  13.365  1.00  0.00     0.120 A 
ATOM     66  C   UNL     1      28.569  35.616  14.241  1.00  0.00     0.138 A 
ATOM     67  N   UNL     1      28.156  35.998  12.127  1.00  0.00    -0.132 NA
ATOM     68  N   UNL     1      29.293  34.771  13.483  1.00  0.00    -0.252 N 
ATOM     69  N   UNL     1      29.022  35.025  12.187  1.00  0.00    -0.067 NA
BRANCH  68  70
ATOM     70  C   UNL     1      30.206  33.752  13.896  1.00  0.00     0.146 C 
BRANCH  70  71
ATOM     71  C   UNL     1      30.704  33.850  15.295  1.00  0.00     0.024 C 
BRANCH  71  72
ATOM     72  C   UNL     1      31.484  32.689  15.800  1.00  0.00     0.002 C 
BRANCH  72  73
ATOM     73  C   UNL     1      30.690  31.484  16.169  1.00  0.00     0.000 C 
BRANCH  73  74
ATOM     74  C   UNL     1      29.718  31.667  17.283  1.00  0.00     0.000 C 
BRANCH  74  75
ATOM     75  C   UNL     1      28.544  30.745  17.105  1.00  0.00     0.000 C 
BRANCH  75  76
ATOM     76  C   UNL     1      27.221  31.474  17.023  1.00  0.00     0.000 C 
BRANCH  76  77
ATOM     77  C   UNL     1      27.093  32.341  15.813  1.00  0.00     0.001 C 
BRANCH  77  78
ATOM     78  C   UNL     1      25.736  32.340  15.180  1.00  0.00     0.012 C 
BRANCH  78  79
ATOM     79  C   UNL     1      25.482  33.720  14.596  1.00  0.00     0.122 C 
BRANCH  79  80
ATOM     80  C   UNL     1      24.922  33.570  13.243  1.00  0.00     0.303 C 
ATOM     81  O   UNL     1      25.620  33.807  12.235  1.00  0.00    -0.252 OA
BRANCH  80  82
ATOM     82  O   UNL     1      23.609  33.167  13.044  1.00  0.00    -0.481 OA
ATOM     83  H   UNL     1      23.376  32.326  12.548  1.00  0.00     0.296 HD
ENDBRANCH  80  82
ENDBRANCH  79  80
ENDBRANCH  78  79
ENDBRANCH  77  78
ENDBRANCH  76  77
ENDBRANCH  75  76
ENDBRANCH  74  75
ENDBRANCH  73  74
ENDBRANCH  72  73
ENDBRANCH  71  72
ENDBRANCH  70  71
ENDBRANCH  68  70
ENDBRANCH  64  65
ENDBRANCH   1  64
TORSDOF 41
BEGIN_RES LYS A 131
REMARK  4 active torsions:
REMARK  status: ('A' for Active; 'I' for Inactive)
REMARK    1  A    between atoms: CA   and  CB  
REMARK    2  A    between atoms: CB   and  CG  
REMARK    3  A    between atoms: CG   and  CD  
REMARK    4  A    between atoms: CD   and  CE  
ROOT
ATOM      1  CA  LYS A 131      29.867  25.555  16.977  1.00 20.52     0.186 C 
ENDROOT
BRANCH   1   2
ATOM      2  CB  LYS A 131      28.345  25.722  17.026  1.00 20.94     0.034 C 
BRANCH   2   3
ATOM      3  CG  LYS A 131      27.678  24.774  18.011  1.00 22.96     0.005 C 
BRANCH   3   4
ATOM      4  CD  LYS A 131      26.918  23.678  17.316  1.00 24.33     0.041 C 
BRANCH   4   5
ATOM      5  CE  LYS A 131      25.420  23.917  17.475  1.00 26.91     0.338 C 
ATOM      6  NZ  LYS A 131      24.676  22.642  17.353  1.00 27.40     0.618 N 
ENDBRANCH   4   5
ENDBRANCH   3   4
ENDBRANCH   2   3
ENDBRANCH   1   2
END_RES LYS A 131
BEGIN_RES LYS A 135
REMARK  4 active torsions:
REMARK  status: ('A' for Active; 'I' for Inactive)
REMARK    5  A    between atoms: CA   and  CB  
REMARK    6  A    between atoms: CB   and  CG  
REMARK    7  A    between atoms: CG   and  CD  
REMARK    8  A    between atoms: CD   and  CE  
ROOT
ATOM      7  CA  LYS A 135      33.193  34.663   9.290  1.00 25.02     0.186 C 
ENDROOT
BRANCH   7   8
ATOM      8  CB  LYS A 135      32.060  35.360  10.034  1.00 26.63     0.034 C 
BRANCH   8   9
ATOM      9  CG  LYS A 135      32.475  35.929  11.366  1.00 29.45     0.005 C 
BRANCH   9  10
ATOM     10  CD  LYS A 135      32.141  37.411  11.444  1.00 32.00     0.041 C 
BRANCH  10  11
ATOM     11  CE  LYS A 135      31.320  37.708  12.684  1.00 34.25     0.338 C 
ATOM     12  NZ  LYS A 135      31.928  37.086  13.892  1.00 35.99     0.618 N 
ENDBRANCH  10  11
ENDBRANCH   9  10
ENDBRANCH   8   9
ENDBRANCH   7   8
END_RES LYS A 135
