REMARK VINA RESULT:    -4.869      2.407      3.732
REMARK INTER + INTRA:         -22.000
REMARK INTER:                 -12.860
REMARK INTRA:                  -9.140
REMARK UNBOUND:                -9.729
REMARK SMILES CC(=O)N[C@@H]1[C@@H](O)C[C@](OC[C@H]2O[C@@H](O[C@H]3[C@H](O)[C@@H](O)[C@H](OCCN=[N+]=[N-])O[C@@H]3CO)[C@H](O)[C@@H](O)[C@H]2O)(C(=O)O)O[C@H]1C(O)[C@H](O)CNC(=O)OCc1cn(-c2ncccc2C#N)nn1
REMARK SMILES IDX 9 1 8 2 6 3 5 4 42 5 41 6 10 7 11 8 12 9 14 10 13 11 32 12
REMARK SMILES IDX 34 13 36 14 15 15 16 16 29 17 28 18 21 19 17 20 19 21 30 22
REMARK SMILES IDX 31 23 22 25 23 26 24 27 25 28 26 29 27 30 18 31 20 33 33 35
REMARK SMILES IDX 35 37 37 39 38 41 39 42 40 43 7 45 43 47 44 48 45 50 46 51
REMARK SMILES IDX 47 53 48 54 49 55 50 57 51 58 52 59 53 60 54 61 65 62 55 63
REMARK SMILES IDX 64 64 56 65 57 66 61 67 58 68 60 69 59 70 62 71 63 72 4 73
REMARK SMILES IDX 2 74 1 76 3 77
REMARK H PARENT 31 24 18 32 20 34 33 36 35 38 37 40 40 44 7 46 44 49 46 52
REMARK H PARENT 48 56 4 75
REMARK Flexibility Score: inf
ROOT
ATOM      1  C   UNL     1      30.303  30.195  20.431  1.00  0.00     0.272 C 
ATOM      2  C   UNL     1      31.250  29.164  19.987  1.00  0.00     0.113 C 
ATOM      3  C   UNL     1      31.471  28.092  20.981  1.00  0.00     0.145 C 
ATOM      4  C   UNL     1      30.336  27.791  21.905  1.00  0.00     0.142 C 
ATOM      5  C   UNL     1      29.062  28.550  21.665  1.00  0.00     0.178 C 
ATOM      6  O   UNL     1      29.202  29.736  21.118  1.00  0.00    -0.332 OA
ENDROOT
BRANCH   1   7
ATOM      7  O   UNL     1      29.799  31.089  19.574  1.00  0.00    -0.338 OA
BRANCH   7   8
ATOM      8  C   UNL     1      29.208  32.239  19.675  1.00  0.00     0.199 C 
BRANCH   8   9
ATOM      9  C   UNL     1      29.465  32.998  18.368  1.00  0.00     0.179 C 
ATOM     10  C   UNL     1      31.023  33.503  16.801  1.00  0.00     0.282 C 
ATOM     11  O   UNL     1      30.804  33.220  18.199  1.00  0.00    -0.341 OA
ATOM     12  C   UNL     1      30.878  32.252  16.013  1.00  0.00     0.202 C 
ATOM     13  C   UNL     1      29.546  31.561  16.322  1.00  0.00     0.179 C 
ATOM     14  C   UNL     1      28.745  32.460  17.187  1.00  0.00     0.177 C 
BRANCH  10  15
ATOM     15  O   UNL     1      32.224  34.096  16.620  1.00  0.00    -0.341 OA
BRANCH  15  16
ATOM     16  C   UNL     1      32.225  35.461  16.663  1.00  0.00     0.184 C 
ATOM     17  C   UNL     1      30.794  35.998  16.364  1.00  0.00     0.178 C 
ATOM     18  O   UNL     1      30.819  36.616  15.116  1.00  0.00    -0.341 OA
ATOM     19  C   UNL     1      31.323  35.743  14.140  1.00  0.00     0.281 C 
ATOM     20  C   UNL     1      33.174  36.123  15.697  1.00  0.00     0.180 C 
ATOM     21  C   UNL     1      32.820  35.703  14.266  1.00  0.00     0.202 C 
BRANCH  17  22
ATOM     22  C   UNL     1      30.397  36.932  17.462  1.00  0.00     0.191 C 
BRANCH  22  23
ATOM     23  O   UNL     1      31.503  37.624  17.988  1.00  0.00    -0.394 OA
ATOM     24  H   UNL     1      31.342  37.929  18.913  1.00  0.00     0.210 HD
ENDBRANCH  22  23
ENDBRANCH  17  22
BRANCH  19  25
ATOM     25  O   UNL     1      30.897  36.222  12.923  1.00  0.00    -0.350 OA
BRANCH  25  26
ATOM     26  C   UNL     1      31.416  37.505  12.663  1.00  0.00     0.169 C 
BRANCH  26  27
ATOM     27  C   UNL     1      30.334  38.409  12.110  1.00  0.00     0.119 C 
BRANCH  27  28
ATOM     28  N   UNL     1      30.297  38.165  10.662  1.00  0.00    -0.092 NA
ATOM     29  N   UNL     1      31.347  38.471  10.038  1.00  0.00     0.001 N 
ATOM     30  N   UNL     1      32.171  39.062   9.324  1.00  0.00    -0.003 NA
ENDBRANCH  27  28
ENDBRANCH  26  27
ENDBRANCH  25  26
ENDBRANCH  19  25
BRANCH  20  31
ATOM     31  O   UNL     1      33.170  37.495  15.791  1.00  0.00    -0.387 OA
ATOM     32  H   UNL     1      33.808  37.905  16.398  1.00  0.00     0.211 HD
ENDBRANCH  20  31
BRANCH  21  33
ATOM     33  O   UNL     1      33.337  34.438  14.006  1.00  0.00    -0.385 OA
ATOM     34  H   UNL     1      32.744  34.018  13.324  1.00  0.00     0.211 HD
ENDBRANCH  21  33
ENDBRANCH  15  16
ENDBRANCH  10  15
BRANCH  12  35
ATOM     35  O   UNL     1      30.942  32.512  14.656  1.00  0.00    -0.385 OA
ATOM     36  H   UNL     1      30.127  33.067  14.418  1.00  0.00     0.211 HD
ENDBRANCH  12  35
BRANCH  13  37
ATOM     37  O   UNL     1      29.808  30.323  16.955  1.00  0.00    -0.387 OA
ATOM     38  H   UNL     1      29.675  29.575  16.308  1.00  0.00     0.211 HD
ENDBRANCH  13  37
BRANCH  14  39
ATOM     39  O   UNL     1      27.522  31.912  17.586  1.00  0.00    -0.387 OA
ATOM     40  H   UNL     1      27.532  31.736  18.581  1.00  0.00     0.211 HD
ENDBRANCH  14  39
ENDBRANCH   8   9
ENDBRANCH   7   8
ENDBRANCH   1   7
BRANCH   1  41
ATOM     41  C   UNL     1      31.072  31.030  21.455  1.00  0.00     0.364 C 
ATOM     42  O   UNL     1      30.755  31.160  22.625  1.00  0.00    -0.246 OA
BRANCH  41  43
ATOM     43  O   UNL     1      32.236  31.706  21.039  1.00  0.00    -0.477 OA
ATOM     44  H   UNL     1      33.043  31.224  20.674  1.00  0.00     0.296 HD
ENDBRANCH  41  43
ENDBRANCH   1  41
BRANCH   3  45
ATOM     45  O   UNL     1      31.946  26.925  20.354  1.00  0.00    -0.391 OA
ATOM     46  H   UNL     1      32.543  26.493  21.049  1.00  0.00     0.211 HD
ENDBRANCH   3  45
BRANCH   5  47
ATOM     47  C   UNL     1      28.009  27.661  20.943  1.00  0.00     0.176 C 
BRANCH  47  48
ATOM     48  O   UNL     1      27.354  28.521  20.012  1.00  0.00    -0.388 OA
ATOM     49  H   UNL     1      26.601  28.974  20.429  1.00  0.00     0.211 HD
ENDBRANCH  47  48
BRANCH  47  50
ATOM     50  C   UNL     1      26.981  27.084  21.769  1.00  0.00     0.165 C 
BRANCH  50  51
ATOM     51  O   UNL     1      27.398  26.234  22.823  1.00  0.00    -0.388 OA
ATOM     52  H   UNL     1      26.589  25.979  23.368  1.00  0.00     0.211 HD
ENDBRANCH  50  51
BRANCH  50  53
ATOM     53  C   UNL     1      25.971  26.258  21.040  1.00  0.00     0.154 C 
BRANCH  53  54
ATOM     54  N   UNL     1      25.110  26.852  20.095  1.00  0.00    -0.319 N 
ATOM     55  C   UNL     1      23.751  26.637  19.865  1.00  0.00     0.407 C 
ATOM     56  H   UNL     1      25.555  27.591  19.426  1.00  0.00     0.167 HD
ATOM     57  O   UNL     1      23.157  25.804  20.593  1.00  0.00    -0.225 OA
BRANCH  55  58
ATOM     58  O   UNL     1      23.094  27.354  18.845  1.00  0.00    -0.443 OA
BRANCH  58  59
ATOM     59  C   UNL     1      23.489  27.153  17.521  1.00  0.00     0.294 C 
BRANCH  59  60
ATOM     60  C   UNL     1      24.302  28.238  17.005  1.00  0.00     0.121 A 
ATOM     61  C   UNL     1      23.930  29.144  16.085  1.00  0.00     0.146 A 
ATOM     62  N   UNL     1      25.644  28.501  17.322  1.00  0.00    -0.131 NA
ATOM     63  N   UNL     1      24.944  29.951  15.804  1.00  0.00    -0.201 N 
ATOM     64  N   UNL     1      25.909  29.521  16.561  1.00  0.00    -0.060 NA
BRANCH  63  65
ATOM     65  C   UNL     1      25.024  31.078  14.958  1.00  0.00     0.173 A 
ATOM     66  N   UNL     1      25.590  32.186  15.505  1.00  0.00    -0.236 NA
ATOM     67  C   UNL     1      24.427  31.103  13.691  1.00  0.00     0.097 A 
ATOM     68  C   UNL     1      25.548  33.409  14.738  1.00  0.00     0.113 A 
ATOM     69  C   UNL     1      24.418  32.308  13.022  1.00  0.00     0.025 A 
ATOM     70  C   UNL     1      24.968  33.393  13.563  1.00  0.00     0.022 A 
BRANCH  67  71
ATOM     71  C   UNL     1      23.909  29.960  13.009  1.00  0.00     0.103 C 
ATOM     72  N   UNL     1      23.456  28.990  12.446  1.00  0.00    -0.192 NA
ENDBRANCH  67  71
ENDBRANCH  63  65
ENDBRANCH  59  60
ENDBRANCH  58  59
ENDBRANCH  55  58
ENDBRANCH  53  54
ENDBRANCH  50  53
ENDBRANCH  47  50
ENDBRANCH   5  47
BRANCH   4  73
ATOM     73  N   UNL     1      30.890  27.841  23.240  1.00  0.00    -0.348 N 
ATOM     74  C   UNL     1      30.736  26.911  24.272  1.00  0.00     0.217 C 
ATOM     75  H   UNL     1      31.492  28.705  23.500  1.00  0.00     0.163 HD
ATOM     76  C   UNL     1      31.440  27.108  25.601  1.00  0.00     0.114 C 
ATOM     77  O   UNL     1      30.042  25.872  24.205  1.00  0.00    -0.275 OA
ENDBRANCH   4  73
TORSDOF 31
BEGIN_RES LYS A 131
REMARK  4 active torsions:
REMARK  status: ('A' for Active; 'I' for Inactive)
REMARK    1  A    between atoms: CA   and  CB  
REMARK    2  A    between atoms: CB   and  CG  
REMARK    3  A    between atoms: CG   and  CD  
REMARK    4  A    between atoms: CD   and  CE  
ROOT
ATOM      1  CA  LYS A 131      29.867  25.555  16.977  1.00 20.52     0.186 C 
ENDROOT
BRANCH   1   2
ATOM      2  CB  LYS A 131      28.345  25.722  17.026  1.00 20.94     0.034 C 
BRANCH   2   3
ATOM      3  CG  LYS A 131      27.601  24.403  16.886  1.00 22.96     0.005 C 
BRANCH   3   4
ATOM      4  CD  LYS A 131      26.162  24.517  17.308  1.00 24.33     0.041 C 
BRANCH   4   5
ATOM      5  CE  LYS A 131      25.897  23.569  18.473  1.00 26.91     0.338 C 
ATOM      6  NZ  LYS A 131      24.862  22.573  18.106  1.00 27.40     0.618 N 
ENDBRANCH   4   5
ENDBRANCH   3   4
ENDBRANCH   2   3
ENDBRANCH   1   2
END_RES LYS A 131
BEGIN_RES LYS A 135
REMARK  4 active torsions:
REMARK  status: ('A' for Active; 'I' for Inactive)
REMARK    5  A    between atoms: CA   and  CB  
REMARK    6  A    between atoms: CB   and  CG  
REMARK    7  A    between atoms: CG   and  CD  
REMARK    8  A    between atoms: CD   and  CE  
ROOT
ATOM      7  CA  LYS A 135      33.193  34.663   9.290  1.00 25.02     0.186 C 
ENDROOT
BRANCH   7   8
ATOM      8  CB  LYS A 135      32.060  35.360  10.034  1.00 26.63     0.034 C 
BRANCH   8   9
ATOM      9  CG  LYS A 135      30.710  34.731   9.803  1.00 29.45     0.005 C 
BRANCH   9  10
ATOM     10  CD  LYS A 135      30.467  34.515   8.317  1.00 32.00     0.041 C 
BRANCH  10  11
ATOM     11  CE  LYS A 135      29.019  34.800   7.968  1.00 34.25     0.338 C 
ATOM     12  NZ  LYS A 135      28.913  35.542   6.681  1.00 35.99     0.618 N 
ENDBRANCH  10  11
ENDBRANCH   9  10
ENDBRANCH   8   9
ENDBRANCH   7   8
END_RES LYS A 135
