REMARK VINA RESULT:    -4.606      3.340      8.109
REMARK INTER + INTRA:         -22.819
REMARK INTER:                 -10.438
REMARK INTRA:                 -12.381
REMARK UNBOUND:               -11.213
REMARK SMILES CC(=O)N[C@@H]1[C@@H](O)C[C@](OC[C@H]2O[C@@H](O[C@H]3[C@H](O)[C@@H](O)[C@H](OCCN=[N+]=[N-])O[C@@H]3CO)[C@H](O)[C@@H](O)[C@H]2O)(C(=O)O)O[C@H]1C(O)[C@H](O)CNC(=O)OCc1cn(CC2=CC[C@H]3C[C@@H]2C3(C)C)nn1
REMARK SMILES IDX 9 1 8 2 6 3 5 4 42 5 41 6 10 7 11 8 12 9 14 10 13 11 32 12
REMARK SMILES IDX 34 13 36 14 15 15 16 16 29 17 28 18 21 19 17 20 19 21 30 22
REMARK SMILES IDX 31 23 22 25 23 26 24 27 25 28 26 29 27 30 18 31 20 33 33 35
REMARK SMILES IDX 35 37 37 39 38 41 39 42 40 43 7 45 43 47 44 48 45 50 46 51
REMARK SMILES IDX 47 53 48 54 49 55 50 57 51 58 52 59 53 60 54 61 67 62 55 63
REMARK SMILES IDX 66 64 56 65 57 66 58 67 62 68 59 69 61 70 63 71 60 72 64 73
REMARK SMILES IDX 65 74 4 75 2 76 1 78 3 79
REMARK H PARENT 31 24 18 32 20 34 33 36 35 38 37 40 40 44 7 46 44 49 46 52
REMARK H PARENT 48 56 4 77
REMARK Flexibility Score: inf
ROOT
ATOM      1  C   UNL     1      26.846  35.842  14.475  1.00  0.00     0.272 C 
ATOM      2  C   UNL     1      25.764  35.123  15.211  1.00  0.00     0.113 C 
ATOM      3  C   UNL     1      25.818  33.618  14.893  1.00  0.00     0.145 C 
ATOM      4  C   UNL     1      25.575  33.379  13.447  1.00  0.00     0.142 C 
ATOM      5  C   UNL     1      25.728  34.715  12.748  1.00  0.00     0.178 C 
ATOM      6  O   UNL     1      26.850  35.362  13.121  1.00  0.00    -0.332 OA
ENDROOT
BRANCH   1   7
ATOM      7  O   UNL     1      28.090  35.651  14.888  1.00  0.00    -0.338 OA
BRANCH   7   8
ATOM      8  C   UNL     1      29.133  36.436  14.804  1.00  0.00     0.199 C 
BRANCH   8   9
ATOM      9  C   UNL     1      30.546  36.036  14.867  1.00  0.00     0.179 C 
ATOM     10  C   UNL     1      31.887  34.575  16.058  1.00  0.00     0.282 C 
ATOM     11  O   UNL     1      30.585  34.843  15.652  1.00  0.00    -0.341 OA
ATOM     12  C   UNL     1      32.925  34.775  15.048  1.00  0.00     0.202 C 
ATOM     13  C   UNL     1      32.569  35.370  13.743  1.00  0.00     0.179 C 
ATOM     14  C   UNL     1      31.082  35.497  13.526  1.00  0.00     0.177 C 
BRANCH  10  15
ATOM     15  O   UNL     1      31.857  33.222  16.445  1.00  0.00    -0.341 OA
BRANCH  15  16
ATOM     16  C   UNL     1      30.626  32.840  16.949  1.00  0.00     0.184 C 
ATOM     17  C   UNL     1      30.765  32.402  18.379  1.00  0.00     0.178 C 
ATOM     18  O   UNL     1      29.691  31.672  18.855  1.00  0.00    -0.341 OA
ATOM     19  C   UNL     1      28.581  31.637  18.063  1.00  0.00     0.281 C 
ATOM     20  C   UNL     1      30.191  31.603  16.156  1.00  0.00     0.180 C 
ATOM     21  C   UNL     1      28.852  31.155  16.659  1.00  0.00     0.202 C 
BRANCH  17  22
ATOM     22  C   UNL     1      30.928  33.658  19.242  1.00  0.00     0.191 C 
BRANCH  22  23
ATOM     23  O   UNL     1      30.177  34.671  18.664  1.00  0.00    -0.394 OA
ATOM     24  H   UNL     1      29.528  35.007  19.356  1.00  0.00     0.210 HD
ENDBRANCH  22  23
ENDBRANCH  17  22
BRANCH  19  25
ATOM     25  O   UNL     1      27.946  32.884  17.995  1.00  0.00    -0.350 OA
BRANCH  25  26
ATOM     26  C   UNL     1      26.820  32.940  18.818  1.00  0.00     0.169 C 
BRANCH  26  27
ATOM     27  C   UNL     1      26.607  34.426  19.118  1.00  0.00     0.119 C 
BRANCH  27  28
ATOM     28  N   UNL     1      27.448  35.216  18.245  1.00  0.00    -0.092 NA
ATOM     29  N   UNL     1      27.329  36.424  18.143  1.00  0.00     0.001 N 
ATOM     30  N   UNL     1      27.084  37.623  17.964  1.00  0.00    -0.003 NA
ENDBRANCH  27  28
ENDBRANCH  26  27
ENDBRANCH  25  26
ENDBRANCH  19  25
BRANCH  20  31
ATOM     31  O   UNL     1      30.062  31.935  14.796  1.00  0.00    -0.387 OA
ATOM     32  H   UNL     1      29.265  32.491  14.653  1.00  0.00     0.211 HD
ENDBRANCH  20  31
BRANCH  21  33
ATOM     33  O   UNL     1      28.683  29.774  16.577  1.00  0.00    -0.385 OA
ATOM     34  H   UNL     1      28.758  29.511  15.616  1.00  0.00     0.211 HD
ENDBRANCH  21  33
ENDBRANCH  15  16
ENDBRANCH  10  15
BRANCH  12  35
ATOM     35  O   UNL     1      33.928  35.597  15.631  1.00  0.00    -0.385 OA
ATOM     36  H   UNL     1      34.185  36.336  15.023  1.00  0.00     0.211 HD
ENDBRANCH  12  35
BRANCH  13  37
ATOM     37  O   UNL     1      33.210  34.730  12.678  1.00  0.00    -0.387 OA
ATOM     38  H   UNL     1      33.057  33.748  12.729  1.00  0.00     0.211 HD
ENDBRANCH  13  37
BRANCH  14  39
ATOM     39  O   UNL     1      30.566  34.194  13.374  1.00  0.00    -0.387 OA
ATOM     40  H   UNL     1      30.457  33.982  12.414  1.00  0.00     0.211 HD
ENDBRANCH  14  39
ENDBRANCH   8   9
ENDBRANCH   7   8
ENDBRANCH   1   7
BRANCH   1  41
ATOM     41  C   UNL     1      26.469  37.265  14.269  1.00  0.00     0.364 C 
ATOM     42  O   UNL     1      26.665  37.818  13.130  1.00  0.00    -0.246 OA
BRANCH  41  43
ATOM     43  O   UNL     1      25.920  38.044  15.230  1.00  0.00    -0.477 OA
ATOM     44  H   UNL     1      26.173  38.104  16.202  1.00  0.00     0.296 HD
ENDBRANCH  41  43
ENDBRANCH   1  41
BRANCH   3  45
ATOM     45  O   UNL     1      27.154  33.274  15.148  1.00  0.00    -0.391 OA
ATOM     46  H   UNL     1      27.650  34.111  15.329  1.00  0.00     0.211 HD
ENDBRANCH   3  45
BRANCH   5  47
ATOM     47  C   UNL     1      25.788  34.519  11.231  1.00  0.00     0.176 C 
BRANCH  47  48
ATOM     48  O   UNL     1      27.007  34.013  10.859  1.00  0.00    -0.388 OA
ATOM     49  H   UNL     1      27.146  33.940   9.873  1.00  0.00     0.211 HD
ENDBRANCH  47  48
BRANCH  47  50
ATOM     50  C   UNL     1      25.488  35.803  10.518  1.00  0.00     0.165 C 
BRANCH  50  51
ATOM     51  O   UNL     1      24.631  36.530  11.393  1.00  0.00    -0.388 OA
ATOM     52  H   UNL     1      24.028  37.026  10.756  1.00  0.00     0.211 HD
ENDBRANCH  50  51
BRANCH  50  53
ATOM     53  C   UNL     1      24.699  35.582   9.267  1.00  0.00     0.154 C 
BRANCH  53  54
ATOM     54  N   UNL     1      23.986  36.724   8.791  1.00  0.00    -0.319 N 
ATOM     55  C   UNL     1      22.623  36.615   8.426  1.00  0.00     0.407 C 
ATOM     56  H   UNL     1      24.484  37.646   8.722  1.00  0.00     0.167 HD
ATOM     57  O   UNL     1      22.038  35.527   8.517  1.00  0.00    -0.225 OA
BRANCH  55  58
ATOM     58  O   UNL     1      21.923  37.713   7.966  1.00  0.00    -0.443 OA
BRANCH  58  59
ATOM     59  C   UNL     1      21.116  38.560   8.714  1.00  0.00     0.294 C 
BRANCH  59  60
ATOM     60  C   UNL     1      21.341  38.490  10.187  1.00  0.00     0.120 A 
ATOM     61  C   UNL     1      20.417  38.246  11.175  1.00  0.00     0.138 A 
ATOM     62  N   UNL     1      22.532  38.650  10.828  1.00  0.00    -0.132 NA
ATOM     63  N   UNL     1      21.039  38.262  12.356  1.00  0.00    -0.248 N 
ATOM     64  N   UNL     1      22.313  38.507  12.119  1.00  0.00    -0.067 NA
BRANCH  63  65
ATOM     65  C   UNL     1      20.433  38.044  13.683  1.00  0.00     0.177 C 
BRANCH  65  66
ATOM     66  C   UNL     1      20.653  36.589  13.979  1.00  0.00    -0.049 C 
ATOM     67  C   UNL     1      21.719  36.188  14.700  1.00  0.00    -0.025 C 
ATOM     68  C   UNL     1      19.735  35.540  13.512  1.00  0.00     0.023 C 
ATOM     69  C   UNL     1      21.988  34.739  14.837  1.00  0.00     0.031 C 
ATOM     70  C   UNL     1      19.545  34.571  14.686  1.00  0.00     0.013 C 
ATOM     71  C   UNL     1      20.515  34.456  12.832  1.00  0.00    -0.026 C 
ATOM     72  C   UNL     1      20.868  33.941  14.234  1.00  0.00    -0.000 C 
ATOM     73  C   UNL     1      19.673  33.424  12.121  1.00  0.00     0.012 C 
ATOM     74  C   UNL     1      21.679  34.867  11.995  1.00  0.00     0.012 C 
ENDBRANCH  65  66
ENDBRANCH  63  65
ENDBRANCH  59  60
ENDBRANCH  58  59
ENDBRANCH  55  58
ENDBRANCH  53  54
ENDBRANCH  50  53
ENDBRANCH  47  50
ENDBRANCH   5  47
BRANCH   4  75
ATOM     75  N   UNL     1      24.312  32.838  13.084  1.00  0.00    -0.348 N 
ATOM     76  C   UNL     1      23.920  31.494  13.160  1.00  0.00     0.217 C 
ATOM     77  H   UNL     1      23.603  33.538  12.717  1.00  0.00     0.163 HD
ATOM     78  C   UNL     1      22.560  31.063  12.745  1.00  0.00     0.114 C 
ATOM     79  O   UNL     1      24.762  30.686  13.590  1.00  0.00    -0.275 OA
ENDBRANCH   4  75
TORSDOF 31
BEGIN_RES LYS A 131
REMARK  4 active torsions:
REMARK  status: ('A' for Active; 'I' for Inactive)
REMARK    1  A    between atoms: CA   and  CB  
REMARK    2  A    between atoms: CB   and  CG  
REMARK    3  A    between atoms: CG   and  CD  
REMARK    4  A    between atoms: CD   and  CE  
ROOT
ATOM      1  CA  LYS A 131      29.867  25.555  16.977  1.00 20.52     0.186 C 
ENDROOT
BRANCH   1   2
ATOM      2  CB  LYS A 131      28.345  25.722  17.026  1.00 20.94     0.034 C 
BRANCH   2   3
ATOM      3  CG  LYS A 131      27.602  24.400  16.913  1.00 22.96     0.005 C 
BRANCH   3   4
ATOM      4  CD  LYS A 131      26.540  24.255  17.968  1.00 24.33     0.041 C 
BRANCH   4   5
ATOM      5  CE  LYS A 131      25.198  23.967  17.304  1.00 26.91     0.338 C 
ATOM      6  NZ  LYS A 131      24.816  22.548  17.500  1.00 27.40     0.618 N 
ENDBRANCH   4   5
ENDBRANCH   3   4
ENDBRANCH   2   3
ENDBRANCH   1   2
END_RES LYS A 131
BEGIN_RES LYS A 135
REMARK  4 active torsions:
REMARK  status: ('A' for Active; 'I' for Inactive)
REMARK    5  A    between atoms: CA   and  CB  
REMARK    6  A    between atoms: CB   and  CG  
REMARK    7  A    between atoms: CG   and  CD  
REMARK    8  A    between atoms: CD   and  CE  
ROOT
ATOM      7  CA  LYS A 135      33.193  34.663   9.290  1.00 25.02     0.186 C 
ENDROOT
BRANCH   7   8
ATOM      8  CB  LYS A 135      32.060  35.360  10.034  1.00 26.63     0.034 C 
BRANCH   8   9
ATOM      9  CG  LYS A 135      30.708  34.740   9.791  1.00 29.45     0.005 C 
BRANCH   9  10
ATOM     10  CD  LYS A 135      30.484  34.506   8.305  1.00 32.00     0.041 C 
BRANCH  10  11
ATOM     11  CE  LYS A 135      29.452  35.476   7.763  1.00 34.25     0.338 C 
ATOM     12  NZ  LYS A 135      28.083  34.895   7.829  1.00 35.99     0.618 N 
ENDBRANCH  10  11
ENDBRANCH   9  10
ENDBRANCH   8   9
ENDBRANCH   7   8
END_RES LYS A 135
