REMARK VINA RESULT:    -4.343      4.255     11.257
REMARK INTER + INTRA:         -22.438
REMARK INTER:                 -11.650
REMARK INTRA:                 -10.788
REMARK UNBOUND:               -11.494
REMARK SMILES CC(=O)N[C@@H]1[C@@H](O)C[C@](OC[C@H]2O[C@@H](O[C@H]3[C@H](O)[C@@H](O)[C@H](OCCN=[N+]=[N-])O[C@@H]3CO)[C@H](O)[C@@H](O)[C@H]2O)(C(=O)O)O[C@H]1C(O)[C@H](O)CNC(=O)OCc1cn(-c2ccccc2C(C)=O)nn1
REMARK SMILES IDX 9 1 8 2 6 3 5 4 42 5 41 6 10 7 11 8 12 9 14 10 13 11 32 12
REMARK SMILES IDX 34 13 36 14 15 15 16 16 29 17 28 18 21 19 17 20 19 21 30 22
REMARK SMILES IDX 31 23 22 25 23 26 24 27 25 28 26 29 27 30 18 31 20 33 33 35
REMARK SMILES IDX 35 37 37 39 38 41 39 42 40 43 7 45 43 47 44 48 45 50 46 51
REMARK SMILES IDX 47 53 48 54 49 55 50 57 51 58 52 59 53 60 54 61 66 62 55 63
REMARK SMILES IDX 65 64 56 65 61 66 57 67 60 68 58 69 59 70 62 71 64 72 63 73
REMARK SMILES IDX 4 74 2 75 1 77 3 78
REMARK H PARENT 31 24 18 32 20 34 33 36 35 38 37 40 40 44 7 46 44 49 46 52
REMARK H PARENT 48 56 4 76
REMARK Flexibility Score: inf
ROOT
ATOM      1  C   UNL     1      28.506  32.721  20.144  1.00  0.00     0.272 C 
ATOM      2  C   UNL     1      27.295  31.851  20.312  1.00  0.00     0.113 C 
ATOM      3  C   UNL     1      26.354  32.133  19.169  1.00  0.00     0.145 C 
ATOM      4  C   UNL     1      27.081  31.618  17.939  1.00  0.00     0.142 C 
ATOM      5  C   UNL     1      28.282  32.512  17.785  1.00  0.00     0.178 C 
ATOM      6  O   UNL     1      28.638  33.261  18.844  1.00  0.00    -0.332 OA
ENDROOT
BRANCH   1   7
ATOM      7  O   UNL     1      29.674  32.220  20.458  1.00  0.00    -0.338 OA
BRANCH   7   8
ATOM      8  C   UNL     1      30.185  31.682  21.521  1.00  0.00     0.199 C 
BRANCH   8   9
ATOM      9  C   UNL     1      30.572  30.261  21.686  1.00  0.00     0.179 C 
ATOM     10  C   UNL     1      29.600  28.178  21.950  1.00  0.00     0.282 C 
ATOM     11  O   UNL     1      29.361  29.503  21.633  1.00  0.00    -0.341 OA
ATOM     12  C   UNL     1      31.017  27.744  21.943  1.00  0.00     0.202 C 
ATOM     13  C   UNL     1      31.904  28.393  20.926  1.00  0.00     0.179 C 
ATOM     14  C   UNL     1      31.343  29.714  20.461  1.00  0.00     0.177 C 
BRANCH  10  15
ATOM     15  O   UNL     1      28.858  27.361  21.098  1.00  0.00    -0.341 OA
BRANCH  15  16
ATOM     16  C   UNL     1      27.560  27.837  20.924  1.00  0.00     0.184 C 
ATOM     17  C   UNL     1      26.638  26.984  21.760  1.00  0.00     0.178 C 
ATOM     18  O   UNL     1      25.691  26.300  21.043  1.00  0.00    -0.341 OA
ATOM     19  C   UNL     1      24.925  27.049  20.184  1.00  0.00     0.281 C 
ATOM     20  C   UNL     1      27.212  27.560  19.455  1.00  0.00     0.180 C 
ATOM     21  C   UNL     1      25.772  27.914  19.264  1.00  0.00     0.202 C 
BRANCH  17  22
ATOM     22  C   UNL     1      26.031  27.863  22.839  1.00  0.00     0.191 C 
BRANCH  22  23
ATOM     23  O   UNL     1      26.286  29.191  22.503  1.00  0.00    -0.394 OA
ATOM     24  H   UNL     1      26.911  29.311  21.765  1.00  0.00     0.210 HD
ENDBRANCH  22  23
ENDBRANCH  17  22
BRANCH  19  25
ATOM     25  O   UNL     1      23.922  27.781  20.790  1.00  0.00    -0.350 OA
BRANCH  25  26
ATOM     26  C   UNL     1      22.726  27.088  20.685  1.00  0.00     0.169 C 
BRANCH  26  27
ATOM     27  C   UNL     1      22.136  27.314  19.301  1.00  0.00     0.119 C 
BRANCH  27  28
ATOM     28  N   UNL     1      21.780  28.728  19.132  1.00  0.00    -0.092 NA
ATOM     29  N   UNL     1      22.513  29.386  18.395  1.00  0.00     0.001 N 
ATOM     30  N   UNL     1      23.207  30.185  17.791  1.00  0.00    -0.003 NA
ENDBRANCH  27  28
ENDBRANCH  26  27
ENDBRANCH  25  26
ENDBRANCH  19  25
BRANCH  20  31
ATOM     31  O   UNL     1      28.068  28.266  18.641  1.00  0.00    -0.387 OA
ATOM     32  H   UNL     1      28.953  28.440  19.088  1.00  0.00     0.211 HD
ENDBRANCH  20  31
BRANCH  21  33
ATOM     33  O   UNL     1      25.373  27.809  17.930  1.00  0.00    -0.385 OA
ATOM     34  H   UNL     1      24.773  28.586  17.708  1.00  0.00     0.211 HD
ENDBRANCH  21  33
ENDBRANCH  15  16
ENDBRANCH  10  15
BRANCH  12  35
ATOM     35  O   UNL     1      31.579  27.770  23.228  1.00  0.00    -0.385 OA
ATOM     36  H   UNL     1      31.917  28.673  23.457  1.00  0.00     0.211 HD
ENDBRANCH  12  35
BRANCH  13  37
ATOM     37  O   UNL     1      32.067  27.590  19.784  1.00  0.00    -0.387 OA
ATOM     38  H   UNL     1      31.236  27.051  19.705  1.00  0.00     0.211 HD
ENDBRANCH  13  37
BRANCH  14  39
ATOM     39  O   UNL     1      30.454  29.545  19.394  1.00  0.00    -0.387 OA
ATOM     40  H   UNL     1      29.507  29.662  19.665  1.00  0.00     0.211 HD
ENDBRANCH  14  39
ENDBRANCH   8   9
ENDBRANCH   7   8
ENDBRANCH   1   7
BRANCH   1  41
ATOM     41  C   UNL     1      28.185  33.955  20.916  1.00  0.00     0.364 C 
ATOM     42  O   UNL     1      28.617  35.093  20.521  1.00  0.00    -0.246 OA
BRANCH  41  43
ATOM     43  O   UNL     1      27.443  34.012  22.068  1.00  0.00    -0.477 OA
ATOM     44  H   UNL     1      27.803  33.722  22.967  1.00  0.00     0.296 HD
ENDBRANCH  41  43
ENDBRANCH   1  41
BRANCH   3  45
ATOM     45  O   UNL     1      25.194  31.406  19.418  1.00  0.00    -0.391 OA
ATOM     46  H   UNL     1      25.359  30.671  20.066  1.00  0.00     0.211 HD
ENDBRANCH   3  45
BRANCH   5  47
ATOM     47  C   UNL     1      29.465  31.691  17.177  1.00  0.00     0.176 C 
BRANCH  47  48
ATOM     48  O   UNL     1      30.620  32.481  17.540  1.00  0.00    -0.388 OA
ATOM     49  H   UNL     1      30.701  32.284  18.524  1.00  0.00     0.211 HD
ENDBRANCH  47  48
BRANCH  47  50
ATOM     50  C   UNL     1      29.413  31.680  15.708  1.00  0.00     0.165 C 
BRANCH  50  51
ATOM     51  O   UNL     1      29.283  30.366  15.193  1.00  0.00    -0.388 OA
ATOM     52  H   UNL     1      28.899  30.374  14.290  1.00  0.00     0.211 HD
ENDBRANCH  50  51
BRANCH  50  53
ATOM     53  C   UNL     1      30.152  32.626  14.875  1.00  0.00     0.154 C 
BRANCH  53  54
ATOM     54  N   UNL     1      29.465  33.790  14.453  1.00  0.00    -0.319 N 
ATOM     55  C   UNL     1      29.365  35.037  15.110  1.00  0.00     0.407 C 
ATOM     56  H   UNL     1      28.943  33.760  13.517  1.00  0.00     0.167 HD
ATOM     57  O   UNL     1      29.924  35.173  16.222  1.00  0.00    -0.225 OA
BRANCH  55  58
ATOM     58  O   UNL     1      28.682  36.132  14.599  1.00  0.00    -0.443 OA
BRANCH  58  59
ATOM     59  C   UNL     1      27.343  36.369  14.950  1.00  0.00     0.294 C 
BRANCH  59  60
ATOM     60  C   UNL     1      26.486  35.612  13.974  1.00  0.00     0.121 A 
ATOM     61  C   UNL     1      25.680  36.140  12.993  1.00  0.00     0.144 A 
ATOM     62  N   UNL     1      26.331  34.285  13.866  1.00  0.00    -0.131 NA
ATOM     63  N   UNL     1      25.068  35.103  12.332  1.00  0.00    -0.220 N 
ATOM     64  N   UNL     1      25.494  33.994  12.896  1.00  0.00    -0.062 NA
BRANCH  63  65
ATOM     65  C   UNL     1      24.130  35.278  11.278  1.00  0.00     0.077 A 
ATOM     66  C   UNL     1      24.423  35.460   9.974  1.00  0.00     0.043 A 
ATOM     67  C   UNL     1      22.779  35.246  11.673  1.00  0.00     0.029 A 
ATOM     68  C   UNL     1      23.348  35.610   9.072  1.00  0.00     0.014 A 
ATOM     69  C   UNL     1      21.750  35.395  10.771  1.00  0.00     0.002 A 
ATOM     70  C   UNL     1      22.033  35.580   9.439  1.00  0.00     0.001 A 
BRANCH  66  71
ATOM     71  C   UNL     1      25.778  35.512   9.479  1.00  0.00     0.161 C 
ATOM     72  O   UNL     1      26.268  36.700   9.359  1.00  0.00    -0.294 OA
ATOM     73  C   UNL     1      26.664  34.409   9.100  1.00  0.00     0.093 C 
ENDBRANCH  66  71
ENDBRANCH  63  65
ENDBRANCH  59  60
ENDBRANCH  58  59
ENDBRANCH  55  58
ENDBRANCH  53  54
ENDBRANCH  50  53
ENDBRANCH  47  50
ENDBRANCH   5  47
BRANCH   4  74
ATOM     74  N   UNL     1      26.241  31.592  16.780  1.00  0.00    -0.348 N 
ATOM     75  C   UNL     1      26.096  30.459  15.940  1.00  0.00     0.217 C 
ATOM     76  H   UNL     1      25.711  32.475  16.558  1.00  0.00     0.163 HD
ATOM     77  C   UNL     1      25.183  30.542  14.747  1.00  0.00     0.114 C 
ATOM     78  O   UNL     1      26.739  29.431  16.234  1.00  0.00    -0.275 OA
ENDBRANCH   4  74
TORSDOF 31
BEGIN_RES LYS A 131
REMARK  4 active torsions:
REMARK  status: ('A' for Active; 'I' for Inactive)
REMARK    1  A    between atoms: CA   and  CB  
REMARK    2  A    between atoms: CB   and  CG  
REMARK    3  A    between atoms: CG   and  CD  
REMARK    4  A    between atoms: CD   and  CE  
ROOT
ATOM      1  CA  LYS A 131      29.867  25.555  16.977  1.00 20.52     0.186 C 
ENDROOT
BRANCH   1   2
ATOM      2  CB  LYS A 131      28.345  25.722  17.026  1.00 20.94     0.034 C 
BRANCH   2   3
ATOM      3  CG  LYS A 131      27.601  24.400  16.908  1.00 22.96     0.005 C 
BRANCH   3   4
ATOM      4  CD  LYS A 131      26.558  24.240  17.978  1.00 24.33     0.041 C 
BRANCH   4   5
ATOM      5  CE  LYS A 131      25.170  24.303  17.349  1.00 26.91     0.338 C 
ATOM      6  NZ  LYS A 131      24.573  22.949  17.271  1.00 27.40     0.618 N 
ENDBRANCH   4   5
ENDBRANCH   3   4
ENDBRANCH   2   3
ENDBRANCH   1   2
END_RES LYS A 131
BEGIN_RES LYS A 135
REMARK  4 active torsions:
REMARK  status: ('A' for Active; 'I' for Inactive)
REMARK    5  A    between atoms: CA   and  CB  
REMARK    6  A    between atoms: CB   and  CG  
REMARK    7  A    between atoms: CG   and  CD  
REMARK    8  A    between atoms: CD   and  CE  
ROOT
ATOM      7  CA  LYS A 135      33.193  34.663   9.290  1.00 25.02     0.186 C 
ENDROOT
BRANCH   7   8
ATOM      8  CB  LYS A 135      32.060  35.360  10.034  1.00 26.63     0.034 C 
BRANCH   8   9
ATOM      9  CG  LYS A 135      30.740  35.304   9.310  1.00 29.45     0.005 C 
BRANCH   9  10
ATOM     10  CD  LYS A 135      30.239  36.706   8.998  1.00 32.00     0.041 C 
BRANCH  10  11
ATOM     11  CE  LYS A 135      29.316  36.686   7.795  1.00 34.25     0.338 C 
ATOM     12  NZ  LYS A 135      29.335  35.356   7.125  1.00 35.99     0.618 N 
ENDBRANCH  10  11
ENDBRANCH   9  10
ENDBRANCH   8   9
ENDBRANCH   7   8
END_RES LYS A 135
