REMARK VINA RESULT:    -4.288      4.151      8.898
REMARK INTER + INTRA:         -23.664
REMARK INTER:                 -11.431
REMARK INTRA:                 -12.233
REMARK UNBOUND:               -11.857
REMARK SMILES CC[N+](C)(CC)CCCn1cc(COC(=O)NC[C@@H](O)C(O)[C@@H]2O[C@@](OC[C@H]3O[C@@H](O[C@H]4[C@H](O)[C@@H](O)[C@H](OCCN=[N+]=[N-])O[C@@H]4CO)[C@H](O)[C@@H](O)[C@H]3O)(C(=O)O)C[C@H](O)[C@H]2NC(C)=O)nn1
REMARK SMILES IDX 21 1 23 2 25 3 57 4 24 5 58 6 60 7 26 8 27 9 28 10 30 11
REMARK SMILES IDX 29 12 48 13 50 14 52 15 31 16 32 17 45 18 44 19 37 20 33 21
REMARK SMILES IDX 35 22 46 23 47 24 38 26 39 27 40 28 41 29 42 30 43 31 34 32
REMARK SMILES IDX 36 34 49 36 51 38 53 40 54 42 55 43 56 44 59 46 61 48 62 49
REMARK SMILES IDX 63 51 64 52 22 53 19 55 20 56 18 58 17 59 15 60 16 62 14 63
REMARK SMILES IDX 13 64 12 65 11 66 65 67 10 68 66 69 9 70 8 71 7 72 3 73 4 74
REMARK SMILES IDX 2 75 1 76 5 77 6 78
REMARK H PARENT 47 25 34 33 36 35 49 37 51 39 53 41 56 45 59 47 61 50 22 54
REMARK H PARENT 20 57 17 61
REMARK Flexibility Score: inf
ROOT
ATOM      1  C   UNL     1      21.815  32.519  14.408  1.00  0.00     0.176 C 
ENDROOT
BRANCH   1   2
ATOM      2  C   UNL     1      21.917  31.001  14.287  1.00  0.00     0.178 C 
ATOM      3  C   UNL     1      23.101  29.198  15.241  1.00  0.00     0.272 C 
ATOM      4  C   UNL     1      22.965  28.603  13.879  1.00  0.00     0.113 C 
ATOM      5  O   UNL     1      22.988  30.604  15.056  1.00  0.00    -0.332 OA
ATOM      6  C   UNL     1      23.192  29.608  12.781  1.00  0.00     0.145 C 
ATOM      7  C   UNL     1      22.064  30.634  12.846  1.00  0.00     0.142 C 
BRANCH   3   8
ATOM      8  O   UNL     1      24.357  29.061  15.792  1.00  0.00    -0.338 OA
BRANCH   8   9
ATOM      9  C   UNL     1      25.074  30.146  16.129  1.00  0.00     0.199 C 
BRANCH   9  10
ATOM     10  C   UNL     1      26.578  29.943  15.806  1.00  0.00     0.179 C 
ATOM     11  C   UNL     1      27.449  32.106  16.160  1.00  0.00     0.282 C 
ATOM     12  O   UNL     1      27.169  31.040  15.315  1.00  0.00    -0.341 OA
ATOM     13  C   UNL     1      27.765  31.706  17.551  1.00  0.00     0.202 C 
ATOM     14  C   UNL     1      28.416  30.311  17.426  1.00  0.00     0.179 C 
ATOM     15  C   UNL     1      27.268  29.397  17.057  1.00  0.00     0.177 C 
BRANCH  11  16
ATOM     16  O   UNL     1      26.486  33.114  16.010  1.00  0.00    -0.341 OA
BRANCH  16  17
ATOM     17  C   UNL     1      26.810  34.013  15.037  1.00  0.00     0.184 C 
ATOM     18  C   UNL     1      27.061  35.416  15.381  1.00  0.00     0.178 C 
ATOM     19  O   UNL     1      27.640  36.061  14.303  1.00  0.00    -0.341 OA
ATOM     20  C   UNL     1      27.509  35.539  13.067  1.00  0.00     0.281 C 
ATOM     21  C   UNL     1      25.710  34.048  13.950  1.00  0.00     0.180 C 
ATOM     22  C   UNL     1      26.233  34.799  12.754  1.00  0.00     0.202 C 
BRANCH  18  23
ATOM     23  C   UNL     1      27.942  35.668  16.589  1.00  0.00     0.191 C 
BRANCH  23  24
ATOM     24  O   UNL     1      29.116  34.926  16.580  1.00  0.00    -0.394 OA
ATOM     25  H   UNL     1      29.808  35.495  17.050  1.00  0.00     0.210 HD
ENDBRANCH  23  24
ENDBRANCH  18  23
BRANCH  20  26
ATOM     26  O   UNL     1      28.637  34.828  12.699  1.00  0.00    -0.350 OA
BRANCH  26  27
ATOM     27  C   UNL     1      29.818  35.486  12.799  1.00  0.00     0.169 C 
BRANCH  27  28
ATOM     28  C   UNL     1      30.878  34.729  13.571  1.00  0.00     0.119 C 
BRANCH  28  29
ATOM     29  N   UNL     1      30.319  33.480  14.061  1.00  0.00    -0.092 NA
ATOM     30  N   UNL     1      30.741  32.904  15.060  1.00  0.00     0.001 N 
ATOM     31  N   UNL     1      31.133  32.321  16.074  1.00  0.00    -0.003 NA
ENDBRANCH  28  29
ENDBRANCH  27  28
ENDBRANCH  26  27
ENDBRANCH  20  26
BRANCH  21  32
ATOM     32  O   UNL     1      25.345  32.744  13.714  1.00  0.00    -0.387 OA
ATOM     33  H   UNL     1      24.491  32.470  14.084  1.00  0.00     0.211 HD
ENDBRANCH  21  32
BRANCH  22  34
ATOM     34  O   UNL     1      25.231  35.627  12.274  1.00  0.00    -0.385 OA
ATOM     35  H   UNL     1      25.214  35.706  11.284  1.00  0.00     0.211 HD
ENDBRANCH  22  34
ENDBRANCH  16  17
ENDBRANCH  11  16
BRANCH  13  36
ATOM     36  O   UNL     1      28.730  32.519  18.168  1.00  0.00    -0.385 OA
ATOM     37  H   UNL     1      29.573  32.017  18.162  1.00  0.00     0.211 HD
ENDBRANCH  13  36
BRANCH  14  38
ATOM     38  O   UNL     1      28.959  29.941  18.657  1.00  0.00    -0.387 OA
ATOM     39  H   UNL     1      29.796  30.439  18.758  1.00  0.00     0.211 HD
ENDBRANCH  14  38
BRANCH  15  40
ATOM     40  O   UNL     1      26.350  29.495  18.100  1.00  0.00    -0.387 OA
ATOM     41  H   UNL     1      26.366  28.767  18.739  1.00  0.00     0.211 HD
ENDBRANCH  15  40
ENDBRANCH   9  10
ENDBRANCH   8   9
ENDBRANCH   3   8
BRANCH   3  42
ATOM     42  C   UNL     1      22.084  28.757  16.211  1.00  0.00     0.364 C 
ATOM     43  O   UNL     1      21.374  27.746  16.010  1.00  0.00    -0.246 OA
BRANCH  42  44
ATOM     44  O   UNL     1      21.877  29.447  17.380  1.00  0.00    -0.477 OA
ATOM     45  H   UNL     1      21.346  29.073  18.165  1.00  0.00     0.296 HD
ENDBRANCH  42  44
ENDBRANCH   3  42
BRANCH   6  46
ATOM     46  O   UNL     1      24.403  30.254  12.870  1.00  0.00    -0.391 OA
ATOM     47  H   UNL     1      24.376  31.014  13.529  1.00  0.00     0.211 HD
ENDBRANCH   6  46
BRANCH   7  48
ATOM     48  N   UNL     1      20.864  29.891  12.424  1.00  0.00    -0.348 N 
ATOM     49  C   UNL     1      19.701  30.564  11.956  1.00  0.00     0.217 C 
ATOM     50  H   UNL     1      20.798  28.853  12.448  1.00  0.00     0.163 HD
ATOM     51  C   UNL     1      18.472  29.856  11.518  1.00  0.00     0.114 C 
ATOM     52  O   UNL     1      19.720  31.806  11.909  1.00  0.00    -0.275 OA
ENDBRANCH   7  48
ENDBRANCH   1   2
BRANCH   1  53
ATOM     53  O   UNL     1      22.451  33.103  13.260  1.00  0.00    -0.388 OA
ATOM     54  H   UNL     1      21.791  33.045  12.520  1.00  0.00     0.211 HD
ENDBRANCH   1  53
BRANCH   1  55
ATOM     55  C   UNL     1      22.568  33.014  15.600  1.00  0.00     0.165 C 
BRANCH  55  56
ATOM     56  O   UNL     1      21.845  32.410  16.711  1.00  0.00    -0.388 OA
ATOM     57  H   UNL     1      21.298  31.660  16.323  1.00  0.00     0.211 HD
ENDBRANCH  55  56
BRANCH  55  58
ATOM     58  C   UNL     1      22.600  34.478  15.840  1.00  0.00     0.154 C 
BRANCH  58  59
ATOM     59  N   UNL     1      22.418  35.414  14.825  1.00  0.00    -0.319 N 
ATOM     60  C   UNL     1      21.261  36.170  14.521  1.00  0.00     0.407 C 
ATOM     61  H   UNL     1      23.276  35.602  14.160  1.00  0.00     0.167 HD
ATOM     62  O   UNL     1      20.199  36.091  15.157  1.00  0.00    -0.225 OA
BRANCH  60  63
ATOM     63  O   UNL     1      21.277  37.069  13.427  1.00  0.00    -0.443 OA
BRANCH  63  64
ATOM     64  C   UNL     1      20.525  36.682  12.261  1.00  0.00     0.294 C 
BRANCH  64  65
ATOM     65  C   UNL     1      21.606  36.329  11.266  1.00  0.00     0.120 A 
ATOM     66  C   UNL     1      22.106  37.136  10.272  1.00  0.00     0.138 A 
ATOM     67  N   UNL     1      22.321  35.202  11.181  1.00  0.00    -0.132 NA
ATOM     68  N   UNL     1      23.111  36.465   9.621  1.00  0.00    -0.252 N 
ATOM     69  N   UNL     1      23.206  35.287  10.209  1.00  0.00    -0.067 NA
BRANCH  68  70
ATOM     70  C   UNL     1      23.920  36.997   8.539  1.00  0.00     0.152 C 
BRANCH  70  71
ATOM     71  C   UNL     1      25.296  36.487   8.552  1.00  0.00     0.085 C 
BRANCH  71  72
ATOM     72  C   UNL     1      26.405  37.330   9.030  1.00  0.00     0.265 C 
BRANCH  72  73
ATOM     73  N   UNL     1      27.092  38.161   8.098  1.00  0.00    -0.326 N 
ATOM     74  C   UNL     1      28.507  38.130   8.352  1.00  0.00     0.334 C 
BRANCH  73  75
ATOM     75  C   UNL     1      26.614  39.510   7.996  1.00  0.00     0.260 C 
ATOM     76  C   UNL     1      25.785  39.752   6.757  1.00  0.00     0.071 C 
ENDBRANCH  73  75
BRANCH  73  77
ATOM     77  C   UNL     1      26.922  37.520   6.784  1.00  0.00     0.260 C 
ATOM     78  C   UNL     1      28.187  37.009   6.191  1.00  0.00     0.071 C 
ENDBRANCH  73  77
ENDBRANCH  72  73
ENDBRANCH  71  72
ENDBRANCH  70  71
ENDBRANCH  68  70
ENDBRANCH  64  65
ENDBRANCH  63  64
ENDBRANCH  60  63
ENDBRANCH  58  59
ENDBRANCH  55  58
ENDBRANCH   1  55
TORSDOF 35
BEGIN_RES LYS A 131
REMARK  4 active torsions:
REMARK  status: ('A' for Active; 'I' for Inactive)
REMARK    1  A    between atoms: CA   and  CB  
REMARK    2  A    between atoms: CB   and  CG  
REMARK    3  A    between atoms: CG   and  CD  
REMARK    4  A    between atoms: CD   and  CE  
ROOT
ATOM      1  CA  LYS A 131      29.867  25.555  16.977  1.00 20.52     0.186 C 
ENDROOT
BRANCH   1   2
ATOM      2  CB  LYS A 131      28.345  25.722  17.026  1.00 20.94     0.034 C 
BRANCH   2   3
ATOM      3  CG  LYS A 131      27.602  24.400  16.913  1.00 22.96     0.005 C 
BRANCH   3   4
ATOM      4  CD  LYS A 131      26.239  24.460  17.546  1.00 24.33     0.041 C 
BRANCH   4   5
ATOM      5  CE  LYS A 131      25.920  25.901  17.931  1.00 26.91     0.338 C 
ATOM      6  NZ  LYS A 131      24.501  26.214  17.641  1.00 27.40     0.618 N 
ENDBRANCH   4   5
ENDBRANCH   3   4
ENDBRANCH   2   3
ENDBRANCH   1   2
END_RES LYS A 131
BEGIN_RES LYS A 135
REMARK  4 active torsions:
REMARK  status: ('A' for Active; 'I' for Inactive)
REMARK    5  A    between atoms: CA   and  CB  
REMARK    6  A    between atoms: CB   and  CG  
REMARK    7  A    between atoms: CG   and  CD  
REMARK    8  A    between atoms: CD   and  CE  
ROOT
ATOM      7  CA  LYS A 135      33.193  34.663   9.290  1.00 25.02     0.186 C 
ENDROOT
BRANCH   7   8
ATOM      8  CB  LYS A 135      32.060  35.360  10.034  1.00 26.63     0.034 C 
BRANCH   8   9
ATOM      9  CG  LYS A 135      30.797  35.490   9.223  1.00 29.45     0.005 C 
BRANCH   9  10
ATOM     10  CD  LYS A 135      30.121  34.137   9.061  1.00 32.00     0.041 C 
BRANCH  10  11
ATOM     11  CE  LYS A 135      28.678  34.310   8.628  1.00 34.25     0.338 C 
ATOM     12  NZ  LYS A 135      27.745  33.700   9.615  1.00 35.99     0.618 N 
ENDBRANCH  10  11
ENDBRANCH   9  10
ENDBRANCH   8   9
ENDBRANCH   7   8
END_RES LYS A 135
