REMARK VINA RESULT:    -4.063      5.938     12.618
REMARK INTER + INTRA:         -23.703
REMARK INTER:                 -10.340
REMARK INTRA:                 -13.363
REMARK UNBOUND:               -13.108
REMARK SMILES CC(=O)N[C@@H]1[C@@H](O)C[C@](OC[C@H]2O[C@@H](O[C@H]3[C@H](O)[C@@H](O)[C@H](OCCN=[N+]=[N-])O[C@@H]3CO)[C@H](O)[C@@H](O)[C@H]2O)(C(=O)O)O[C@H]1C(O)[C@H](O)CNC(=O)OCc1cn(-c2cccc(C=CC(=O)O)c2)nn1
REMARK SMILES IDX 43 1 42 2 9 3 8 4 41 5 6 6 5 7 10 8 11 9 12 10 14 11 13 12
REMARK SMILES IDX 32 13 34 14 36 15 15 16 16 17 29 18 28 19 21 20 17 21 19 22
REMARK SMILES IDX 30 23 31 24 22 26 23 27 24 28 25 29 26 30 27 31 18 32 20 34
REMARK SMILES IDX 33 36 35 38 37 40 38 42 39 43 40 44 7 46 4 48 2 49 1 51 3 52
REMARK SMILES IDX 44 53 45 55 46 56 47 58 48 59 49 60 50 62 51 63 52 64 53 65
REMARK SMILES IDX 54 66 68 67 55 68 67 69 56 70 66 71 57 72 60 73 58 74 59 75
REMARK SMILES IDX 61 76 62 77 63 78 64 79 65 80
REMARK H PARENT 31 25 18 33 20 35 33 37 35 39 37 41 40 45 7 47 4 50 44 54
REMARK H PARENT 46 57 48 61 65 81
REMARK Flexibility Score: inf
ROOT
ATOM      1  C   UNL     1      25.664  30.552  15.924  1.00  0.00     0.176 C 
ENDROOT
BRANCH   1   2
ATOM      2  C   UNL     1      26.319  31.919  15.954  1.00  0.00     0.178 C 
ATOM      3  C   UNL     1      28.441  32.822  16.443  1.00  0.00     0.272 C 
ATOM      4  C   UNL     1      27.530  34.093  16.090  1.00  0.00     0.113 C 
ATOM      5  O   UNL     1      27.591  31.736  16.421  1.00  0.00    -0.332 OA
ATOM      6  C   UNL     1      26.429  34.072  17.089  1.00  0.00     0.145 C 
ATOM      7  C   UNL     1      25.564  32.847  16.865  1.00  0.00     0.142 C 
BRANCH   3   8
ATOM      8  O   UNL     1      28.808  33.078  17.704  1.00  0.00    -0.338 OA
BRANCH   8   9
ATOM      9  C   UNL     1      30.035  33.053  18.191  1.00  0.00     0.199 C 
BRANCH   9  10
ATOM     10  C   UNL     1      30.302  32.336  19.498  1.00  0.00     0.179 C 
ATOM     11  C   UNL     1      28.783  31.196  20.908  1.00  0.00     0.282 C 
ATOM     12  O   UNL     1      29.160  32.324  20.207  1.00  0.00    -0.341 OA
ATOM     13  C   UNL     1      29.981  30.473  21.381  1.00  0.00     0.202 C 
ATOM     14  C   UNL     1      30.964  30.087  20.318  1.00  0.00     0.179 C 
ATOM     15  C   UNL     1      30.708  30.926  19.093  1.00  0.00     0.177 C 
BRANCH  11  16
ATOM     16  O   UNL     1      27.893  30.519  20.103  1.00  0.00    -0.341 OA
BRANCH  16  17
ATOM     17  C   UNL     1      26.790  30.029  20.712  1.00  0.00     0.184 C 
ATOM     18  C   UNL     1      26.584  28.580  20.394  1.00  0.00     0.178 C 
ATOM     19  O   UNL     1      25.666  28.118  21.367  1.00  0.00    -0.341 OA
ATOM     20  C   UNL     1      24.393  28.621  21.084  1.00  0.00     0.281 C 
ATOM     21  C   UNL     1      25.503  30.718  20.248  1.00  0.00     0.180 C 
ATOM     22  C   UNL     1      24.351  30.112  21.022  1.00  0.00     0.202 C 
BRANCH  18  23
ATOM     23  C   UNL     1      27.810  27.741  20.443  1.00  0.00     0.191 C 
BRANCH  23  24
ATOM     24  O   UNL     1      28.444  27.784  19.203  1.00  0.00    -0.394 OA
ATOM     25  H   UNL     1      28.646  28.738  18.950  1.00  0.00     0.210 HD
ENDBRANCH  23  24
ENDBRANCH  18  23
BRANCH  20  26
ATOM     26  O   UNL     1      23.542  28.189  22.097  1.00  0.00    -0.350 OA
BRANCH  26  27
ATOM     27  C   UNL     1      24.223  27.972  23.292  1.00  0.00     0.169 C 
BRANCH  27  28
ATOM     28  C   UNL     1      23.631  28.889  24.339  1.00  0.00     0.119 C 
BRANCH  28  29
ATOM     29  N   UNL     1      24.688  29.646  24.965  1.00  0.00    -0.092 NA
ATOM     30  N   UNL     1      25.069  30.723  24.472  1.00  0.00     0.001 N 
ATOM     31  N   UNL     1      25.720  31.545  23.809  1.00  0.00    -0.003 NA
ENDBRANCH  28  29
ENDBRANCH  27  28
ENDBRANCH  26  27
ENDBRANCH  20  26
BRANCH  21  32
ATOM     32  O   UNL     1      25.504  32.080  20.526  1.00  0.00    -0.387 OA
ATOM     33  H   UNL     1      24.764  32.459  19.988  1.00  0.00     0.211 HD
ENDBRANCH  21  32
BRANCH  22  34
ATOM     34  O   UNL     1      23.183  30.463  20.306  1.00  0.00    -0.385 OA
ATOM     35  H   UNL     1      22.891  29.746  19.700  1.00  0.00     0.211 HD
ENDBRANCH  22  34
ENDBRANCH  16  17
ENDBRANCH  11  16
BRANCH  13  36
ATOM     36  O   UNL     1      30.683  31.295  22.310  1.00  0.00    -0.385 OA
ATOM     37  H   UNL     1      30.162  31.347  23.159  1.00  0.00     0.211 HD
ENDBRANCH  13  36
BRANCH  14  38
ATOM     38  O   UNL     1      30.965  28.722  20.017  1.00  0.00    -0.387 OA
ATOM     39  H   UNL     1      31.772  28.458  19.506  1.00  0.00     0.211 HD
ENDBRANCH  14  38
BRANCH  15  40
ATOM     40  O   UNL     1      29.724  30.328  18.331  1.00  0.00    -0.387 OA
ATOM     41  H   UNL     1      29.611  30.778  17.437  1.00  0.00     0.211 HD
ENDBRANCH  15  40
ENDBRANCH   9  10
ENDBRANCH   8   9
ENDBRANCH   3   8
BRANCH   3  42
ATOM     42  C   UNL     1      29.415  32.747  15.366  1.00  0.00     0.364 C 
ATOM     43  O   UNL     1      29.854  33.661  14.645  1.00  0.00    -0.246 OA
BRANCH  42  44
ATOM     44  O   UNL     1      29.958  31.473  15.072  1.00  0.00    -0.477 OA
ATOM     45  H   UNL     1      30.955  31.432  14.809  1.00  0.00     0.296 HD
ENDBRANCH  42  44
ENDBRANCH   3  42
BRANCH   6  46
ATOM     46  O   UNL     1      27.063  33.943  18.369  1.00  0.00    -0.391 OA
ATOM     47  H   UNL     1      26.753  33.103  18.807  1.00  0.00     0.211 HD
ENDBRANCH   6  46
BRANCH   7  48
ATOM     48  N   UNL     1      24.216  33.109  16.509  1.00  0.00    -0.348 N 
ATOM     49  C   UNL     1      23.057  32.478  16.970  1.00  0.00     0.217 C 
ATOM     50  H   UNL     1      24.032  33.876  15.764  1.00  0.00     0.163 HD
ATOM     51  C   UNL     1      21.713  32.924  16.425  1.00  0.00     0.114 C 
ATOM     52  O   UNL     1      23.043  31.550  17.822  1.00  0.00    -0.275 OA
ENDBRANCH   7  48
ENDBRANCH   1   2
BRANCH   1  53
ATOM     53  O   UNL     1      25.793  30.008  14.659  1.00  0.00    -0.388 OA
ATOM     54  H   UNL     1      26.664  30.132  14.243  1.00  0.00     0.211 HD
ENDBRANCH   1  53
BRANCH   1  55
ATOM     55  C   UNL     1      26.350  29.574  16.878  1.00  0.00     0.165 C 
BRANCH  55  56
ATOM     56  O   UNL     1      27.513  29.048  16.388  1.00  0.00    -0.388 OA
ATOM     57  H   UNL     1      28.281  29.665  16.397  1.00  0.00     0.211 HD
ENDBRANCH  55  56
BRANCH  55  58
ATOM     58  C   UNL     1      25.403  28.509  17.333  1.00  0.00     0.154 C 
BRANCH  58  59
ATOM     59  N   UNL     1      24.069  28.768  16.924  1.00  0.00    -0.319 N 
ATOM     60  C   UNL     1      23.159  27.740  16.590  1.00  0.00     0.407 C 
ATOM     61  H   UNL     1      23.708  29.757  16.853  1.00  0.00     0.167 HD
ATOM     62  O   UNL     1      23.500  26.526  16.641  1.00  0.00    -0.225 OA
BRANCH  60  63
ATOM     63  O   UNL     1      21.849  28.001  16.193  1.00  0.00    -0.443 OA
BRANCH  63  64
ATOM     64  C   UNL     1      21.543  27.772  14.813  1.00  0.00     0.294 C 
BRANCH  64  65
ATOM     65  C   UNL     1      22.264  28.796  14.035  1.00  0.00     0.121 A 
ATOM     66  C   UNL     1      22.043  30.170  14.020  1.00  0.00     0.144 A 
ATOM     67  N   UNL     1      23.287  28.576  13.193  1.00  0.00    -0.131 NA
ATOM     68  N   UNL     1      22.940  30.727  13.175  1.00  0.00    -0.220 N 
ATOM     69  N   UNL     1      23.673  29.743  12.694  1.00  0.00    -0.062 NA
BRANCH  68  70
ATOM     70  C   UNL     1      23.019  32.119  12.918  1.00  0.00     0.067 A 
ATOM     71  C   UNL     1      24.260  32.758  12.942  1.00  0.00     0.036 A 
ATOM     72  C   UNL     1      21.913  32.852  12.646  1.00  0.00     0.028 A 
ATOM     73  C   UNL     1      24.387  34.090  12.701  1.00  0.00    -0.023 A 
ATOM     74  C   UNL     1      21.995  34.219  12.392  1.00  0.00     0.003 A 
ATOM     75  C   UNL     1      23.239  34.807  12.427  1.00  0.00     0.008 A 
BRANCH  73  76
ATOM     76  C   UNL     1      25.672  34.756  12.729  1.00  0.00     0.015 C 
ATOM     77  C   UNL     1      26.565  34.546  11.796  1.00  0.00     0.094 C 
BRANCH  77  78
ATOM     78  C   UNL     1      27.852  35.242  11.864  1.00  0.00     0.328 C 
ATOM     79  O   UNL     1      27.932  36.466  11.716  1.00  0.00    -0.247 OA
BRANCH  78  80
ATOM     80  O   UNL     1      29.024  34.527  12.099  1.00  0.00    -0.478 OA
ATOM     81  H   UNL     1      29.771  34.613  11.406  1.00  0.00     0.297 HD
ENDBRANCH  78  80
ENDBRANCH  77  78
ENDBRANCH  73  76
ENDBRANCH  68  70
ENDBRANCH  64  65
ENDBRANCH  63  64
ENDBRANCH  60  63
ENDBRANCH  58  59
ENDBRANCH  55  58
ENDBRANCH   1  55
TORSDOF 33
BEGIN_RES LYS A 131
REMARK  4 active torsions:
REMARK  status: ('A' for Active; 'I' for Inactive)
REMARK    1  A    between atoms: CA   and  CB  
REMARK    2  A    between atoms: CB   and  CG  
REMARK    3  A    between atoms: CG   and  CD  
REMARK    4  A    between atoms: CD   and  CE  
ROOT
ATOM      1  CA  LYS A 131      29.867  25.555  16.977  1.00 20.52     0.186 C 
ENDROOT
BRANCH   1   2
ATOM      2  CB  LYS A 131      28.345  25.722  17.026  1.00 20.94     0.034 C 
BRANCH   2   3
ATOM      3  CG  LYS A 131      27.599  24.475  16.576  1.00 22.96     0.005 C 
BRANCH   3   4
ATOM      4  CD  LYS A 131      26.307  24.288  17.321  1.00 24.33     0.041 C 
BRANCH   4   5
ATOM      5  CE  LYS A 131      26.329  25.126  18.596  1.00 26.91     0.338 C 
ATOM      6  NZ  LYS A 131      25.051  24.982  19.333  1.00 27.40     0.618 N 
ENDBRANCH   4   5
ENDBRANCH   3   4
ENDBRANCH   2   3
ENDBRANCH   1   2
END_RES LYS A 131
BEGIN_RES LYS A 135
REMARK  4 active torsions:
REMARK  status: ('A' for Active; 'I' for Inactive)
REMARK    5  A    between atoms: CA   and  CB  
REMARK    6  A    between atoms: CB   and  CG  
REMARK    7  A    between atoms: CG   and  CD  
REMARK    8  A    between atoms: CD   and  CE  
ROOT
ATOM      7  CA  LYS A 135      33.193  34.663   9.290  1.00 25.02     0.186 C 
ENDROOT
BRANCH   7   8
ATOM      8  CB  LYS A 135      32.060  35.360  10.034  1.00 26.63     0.034 C 
BRANCH   8   9
ATOM      9  CG  LYS A 135      30.831  35.580   9.191  1.00 29.45     0.005 C 
BRANCH   9  10
ATOM     10  CD  LYS A 135      30.216  34.250   8.782  1.00 32.00     0.041 C 
BRANCH  10  11
ATOM     11  CE  LYS A 135      28.774  34.440   8.349  1.00 34.25     0.338 C 
ATOM     12  NZ  LYS A 135      28.677  35.404   7.218  1.00 35.99     0.618 N 
ENDBRANCH  10  11
ENDBRANCH   9  10
ENDBRANCH   8   9
ENDBRANCH   7   8
END_RES LYS A 135
