REMARK VINA RESULT:    -5.201      5.652     11.042
REMARK INTER + INTRA:         -22.210
REMARK INTER:                 -10.500
REMARK INTRA:                 -11.710
REMARK UNBOUND:                -9.408
REMARK SMILES CC(=O)N[C@@H]1[C@@H](O)C[C@](OC[C@H]2O[C@@H](O[C@H]3[C@H](O)[C@@H](O)[C@H](OCCN=[N+]=[N-])O[C@@H]3CO)[C@H](O)[C@@H](O)[C@H]2O)(C(=O)O)O[C@H]1C(O)[C@H](O)CNC(=O)OCc1cn(-c2cccc(Cl)c2)nn1
REMARK SMILES IDX 9 1 8 2 6 3 5 4 42 5 41 6 10 7 11 8 12 9 14 10 13 11 32 12
REMARK SMILES IDX 34 13 36 14 15 15 16 16 29 17 28 18 21 19 17 20 19 21 30 22
REMARK SMILES IDX 31 23 22 25 23 26 24 27 25 28 26 29 27 30 18 31 20 33 33 35
REMARK SMILES IDX 35 37 37 39 38 41 39 42 40 43 7 45 43 47 44 48 45 50 46 51
REMARK SMILES IDX 47 53 48 54 49 55 50 57 51 58 52 59 53 60 54 61 64 62 55 63
REMARK SMILES IDX 63 64 56 65 57 66 62 67 58 68 60 69 59 70 61 71 4 72 2 73
REMARK SMILES IDX 1 75 3 76
REMARK H PARENT 31 24 18 32 20 34 33 36 35 38 37 40 40 44 7 46 44 49 46 52
REMARK H PARENT 48 56 4 74
REMARK Flexibility Score: inf
ROOT
ATOM      1  C   UNL     1      28.677  35.502   8.703  1.00  0.00     0.272 C 
ATOM      2  C   UNL     1      28.225  34.347   9.480  1.00  0.00     0.113 C 
ATOM      3  C   UNL     1      27.562  34.580  10.797  1.00  0.00     0.145 C 
ATOM      4  C   UNL     1      27.496  36.035  11.187  1.00  0.00     0.142 C 
ATOM      5  C   UNL     1      28.804  36.644  10.655  1.00  0.00     0.178 C 
ATOM      6  O   UNL     1      28.606  36.758   9.311  1.00  0.00    -0.332 OA
ENDROOT
BRANCH   1   7
ATOM      7  O   UNL     1      28.235  35.686   7.429  1.00  0.00    -0.338 OA
BRANCH   7   8
ATOM      8  C   UNL     1      27.273  36.538   7.079  1.00  0.00     0.199 C 
BRANCH   8   9
ATOM      9  C   UNL     1      27.532  37.590   6.052  1.00  0.00     0.179 C 
ATOM     10  C   UNL     1      26.875  39.703   5.394  1.00  0.00     0.282 C 
ATOM     11  O   UNL     1      26.793  38.736   6.412  1.00  0.00    -0.341 OA
ATOM     12  C   UNL     1      28.305  40.114   5.220  1.00  0.00     0.202 C 
ATOM     13  C   UNL     1      29.315  39.017   5.095  1.00  0.00     0.179 C 
ATOM     14  C   UNL     1      29.025  37.980   6.158  1.00  0.00     0.177 C 
BRANCH  10  15
ATOM     15  O   UNL     1      26.199  40.786   5.890  1.00  0.00    -0.341 OA
BRANCH  15  16
ATOM     16  C   UNL     1      25.927  40.812   7.257  1.00  0.00     0.184 C 
ATOM     17  C   UNL     1      24.522  40.657   7.610  1.00  0.00     0.178 C 
ATOM     18  O   UNL     1      24.067  41.558   8.544  1.00  0.00    -0.341 OA
ATOM     19  C   UNL     1      24.629  42.828   8.461  1.00  0.00     0.281 C 
ATOM     20  C   UNL     1      26.742  41.929   7.810  1.00  0.00     0.180 C 
ATOM     21  C   UNL     1      26.059  42.621   8.949  1.00  0.00     0.202 C 
BRANCH  17  22
ATOM     22  C   UNL     1      24.267  39.279   8.244  1.00  0.00     0.191 C 
BRANCH  22  23
ATOM     23  O   UNL     1      24.001  38.383   7.178  1.00  0.00    -0.394 OA
ATOM     24  H   UNL     1      23.264  38.734   6.647  1.00  0.00     0.210 HD
ENDBRANCH  22  23
ENDBRANCH  17  22
BRANCH  19  25
ATOM     25  O   UNL     1      23.958  43.657   9.313  1.00  0.00    -0.350 OA
BRANCH  25  26
ATOM     26  C   UNL     1      23.646  43.146  10.547  1.00  0.00     0.169 C 
BRANCH  26  27
ATOM     27  C   UNL     1      23.756  44.119  11.691  1.00  0.00     0.119 C 
BRANCH  27  28
ATOM     28  N   UNL     1      24.634  43.501  12.696  1.00  0.00    -0.092 NA
ATOM     29  N   UNL     1      25.835  43.374  12.373  1.00  0.00     0.001 N 
ATOM     30  N   UNL     1      27.059  43.586  12.311  1.00  0.00    -0.003 NA
ENDBRANCH  27  28
ENDBRANCH  26  27
ENDBRANCH  25  26
ENDBRANCH  19  25
BRANCH  20  31
ATOM     31  O   UNL     1      28.017  41.466   8.186  1.00  0.00    -0.387 OA
ATOM     32  H   UNL     1      28.166  41.810   9.102  1.00  0.00     0.211 HD
ENDBRANCH  20  31
BRANCH  21  33
ATOM     33  O   UNL     1      26.674  43.864   9.131  1.00  0.00    -0.385 OA
ATOM     34  H   UNL     1      27.406  44.007   8.510  1.00  0.00     0.211 HD
ENDBRANCH  21  33
ENDBRANCH  15  16
ENDBRANCH  10  15
BRANCH  12  35
ATOM     35  O   UNL     1      28.473  40.909   4.076  1.00  0.00    -0.385 OA
ATOM     36  H   UNL     1      29.347  41.360   4.069  1.00  0.00     0.211 HD
ENDBRANCH  12  35
BRANCH  13  37
ATOM     37  O   UNL     1      30.577  39.548   5.367  1.00  0.00    -0.387 OA
ATOM     38  H   UNL     1      30.704  39.827   6.290  1.00  0.00     0.211 HD
ENDBRANCH  13  37
BRANCH  14  39
ATOM     39  O   UNL     1      29.092  38.671   7.391  1.00  0.00    -0.387 OA
ATOM     40  H   UNL     1      28.386  38.419   8.005  1.00  0.00     0.211 HD
ENDBRANCH  14  39
ENDBRANCH   8   9
ENDBRANCH   7   8
ENDBRANCH   1   7
BRANCH   1  41
ATOM     41  C   UNL     1      30.191  35.318   8.522  1.00  0.00     0.364 C 
ATOM     42  O   UNL     1      30.741  34.203   8.527  1.00  0.00    -0.246 OA
BRANCH  41  43
ATOM     43  O   UNL     1      30.992  36.453   8.342  1.00  0.00    -0.477 OA
ATOM     44  H   UNL     1      31.972  36.400   8.641  1.00  0.00     0.296 HD
ENDBRANCH  41  43
ENDBRANCH   1  41
BRANCH   3  45
ATOM     45  O   UNL     1      26.290  34.041  10.885  1.00  0.00    -0.391 OA
ATOM     46  H   UNL     1      25.927  33.789  10.005  1.00  0.00     0.211 HD
ENDBRANCH   3  45
BRANCH   5  47
ATOM     47  C   UNL     1      29.142  37.940  11.372  1.00  0.00     0.176 C 
BRANCH  47  48
ATOM     48  O   UNL     1      30.283  38.416  10.675  1.00  0.00    -0.388 OA
ATOM     49  H   UNL     1      30.525  39.300  11.084  1.00  0.00     0.211 HD
ENDBRANCH  47  48
BRANCH  47  50
ATOM     50  C   UNL     1      28.046  38.948  11.099  1.00  0.00     0.165 C 
BRANCH  50  51
ATOM     51  O   UNL     1      28.134  39.391   9.790  1.00  0.00    -0.388 OA
ATOM     52  H   UNL     1      28.578  38.753   9.188  1.00  0.00     0.211 HD
ENDBRANCH  50  51
BRANCH  50  53
ATOM     53  C   UNL     1      28.258  40.167  12.004  1.00  0.00     0.154 C 
BRANCH  53  54
ATOM     54  N   UNL     1      28.962  41.222  11.330  1.00  0.00    -0.319 N 
ATOM     55  C   UNL     1      30.294  41.601  11.554  1.00  0.00     0.407 C 
ATOM     56  H   UNL     1      28.425  41.774  10.587  1.00  0.00     0.167 HD
ATOM     57  O   UNL     1      30.989  40.982  12.394  1.00  0.00    -0.225 OA
BRANCH  55  58
ATOM     58  O   UNL     1      30.894  42.682  10.848  1.00  0.00    -0.443 OA
BRANCH  58  59
ATOM     59  C   UNL     1      30.862  42.699   9.446  1.00  0.00     0.294 C 
BRANCH  59  60
ATOM     60  C   UNL     1      31.483  41.508   8.811  1.00  0.00     0.121 A 
ATOM     61  C   UNL     1      32.744  41.427   8.211  1.00  0.00     0.144 A 
ATOM     62  N   UNL     1      30.982  40.271   8.660  1.00  0.00    -0.131 NA
ATOM     63  N   UNL     1      32.942  40.184   7.737  1.00  0.00    -0.220 N 
ATOM     64  N   UNL     1      31.868  39.493   8.015  1.00  0.00    -0.062 NA
BRANCH  63  65
ATOM     65  C   UNL     1      34.130  39.792   7.062  1.00  0.00     0.068 A 
ATOM     66  C   UNL     1      34.148  39.268   5.790  1.00  0.00     0.028 A 
ATOM     67  C   UNL     1      35.379  39.929   7.690  1.00  0.00     0.049 A 
ATOM     68  C   UNL     1      35.338  38.899   5.171  1.00  0.00     0.004 A 
ATOM     69  C   UNL     1      36.552  39.564   7.077  1.00  0.00     0.043 A 
ATOM     70  C   UNL     1      36.554  39.041   5.804  1.00  0.00     0.020 A 
ATOM     71  Cl  UNL     1      38.107  39.744   7.877  1.00  0.00    -0.084 Cl
ENDBRANCH  63  65
ENDBRANCH  59  60
ENDBRANCH  58  59
ENDBRANCH  55  58
ENDBRANCH  53  54
ENDBRANCH  50  53
ENDBRANCH  47  50
ENDBRANCH   5  47
BRANCH   4  72
ATOM     72  N   UNL     1      27.304  36.235  12.585  1.00  0.00    -0.348 N 
ATOM     73  C   UNL     1      25.997  36.486  13.135  1.00  0.00     0.217 C 
ATOM     74  H   UNL     1      28.065  36.214  13.305  1.00  0.00     0.163 HD
ATOM     75  C   UNL     1      25.772  36.694  14.572  1.00  0.00     0.114 C 
ATOM     76  O   UNL     1      25.026  36.525  12.349  1.00  0.00    -0.275 OA
ENDBRANCH   4  72
TORSDOF 30
BEGIN_RES LYS A 131
REMARK  4 active torsions:
REMARK  status: ('A' for Active; 'I' for Inactive)
REMARK    1  A    between atoms: CA   and  CB  
REMARK    2  A    between atoms: CB   and  CG  
REMARK    3  A    between atoms: CG   and  CD  
REMARK    4  A    between atoms: CD   and  CE  
ROOT
ATOM      1  CA  LYS A 131      29.867  25.555  16.977  1.00 20.52     0.186 C 
ENDROOT
BRANCH   1   2
ATOM      2  CB  LYS A 131      28.345  25.722  17.026  1.00 20.94     0.034 C 
BRANCH   2   3
ATOM      3  CG  LYS A 131      27.601  24.401  16.903  1.00 22.96     0.005 C 
BRANCH   3   4
ATOM      4  CD  LYS A 131      26.150  24.531  17.274  1.00 24.33     0.041 C 
BRANCH   4   5
ATOM      5  CE  LYS A 131      26.031  24.853  18.760  1.00 26.91     0.338 C 
ATOM      6  NZ  LYS A 131      25.114  25.998  18.971  1.00 27.40     0.618 N 
ENDBRANCH   4   5
ENDBRANCH   3   4
ENDBRANCH   2   3
ENDBRANCH   1   2
END_RES LYS A 131
BEGIN_RES LYS A 135
REMARK  4 active torsions:
REMARK  status: ('A' for Active; 'I' for Inactive)
REMARK    5  A    between atoms: CA   and  CB  
REMARK    6  A    between atoms: CB   and  CG  
REMARK    7  A    between atoms: CG   and  CD  
REMARK    8  A    between atoms: CD   and  CE  
ROOT
ATOM      7  CA  LYS A 135      33.193  34.663   9.290  1.00 25.02     0.186 C 
ENDROOT
BRANCH   7   8
ATOM      8  CB  LYS A 135      32.060  35.360  10.034  1.00 26.63     0.034 C 
BRANCH   8   9
ATOM      9  CG  LYS A 135      32.377  35.650  11.478  1.00 29.45     0.005 C 
BRANCH   9  10
ATOM     10  CD  LYS A 135      31.339  35.018  12.393  1.00 32.00     0.041 C 
BRANCH  10  11
ATOM     11  CE  LYS A 135      31.186  35.829  13.666  1.00 34.25     0.338 C 
ATOM     12  NZ  LYS A 135      31.906  37.128  13.564  1.00 35.99     0.618 N 
ENDBRANCH  10  11
ENDBRANCH   9  10
ENDBRANCH   8   9
ENDBRANCH   7   8
END_RES LYS A 135
