REMARK VINA RESULT:    -4.483      5.340      9.889
REMARK INTER + INTRA:         -21.577
REMARK INTER:                  -9.985
REMARK INTRA:                 -11.592
REMARK UNBOUND:               -10.541
REMARK SMILES CC(=O)N[C@@H]1[C@@H](O)C[C@](OC[C@H]2O[C@@H](O[C@H]3[C@H](O)[C@@H](O)[C@H](OCCN=[N+]=[N-])O[C@@H]3CO)[C@H](O)[C@@H](O)[C@H]2O)(C(=O)O)O[C@H]1C(O)[C@H](O)CNC(=O)OCc1cn(-c2ccccc2)nn1
REMARK SMILES IDX 9 1 8 2 6 3 5 4 42 5 41 6 10 7 11 8 12 9 14 10 13 11 32 12
REMARK SMILES IDX 34 13 36 14 15 15 16 16 29 17 28 18 21 19 17 20 19 21 30 22
REMARK SMILES IDX 31 23 22 25 23 26 24 27 25 28 26 29 27 30 18 31 20 33 33 35
REMARK SMILES IDX 35 37 37 39 38 41 39 42 40 43 7 45 43 47 44 48 45 50 46 51
REMARK SMILES IDX 47 53 48 54 49 55 50 57 51 58 52 59 53 60 54 61 63 62 55 63
REMARK SMILES IDX 62 64 56 65 57 66 61 67 58 68 60 69 59 70 4 71 2 72 1 74
REMARK SMILES IDX 3 75
REMARK H PARENT 31 24 18 32 20 34 33 36 35 38 37 40 40 44 7 46 44 49 46 52
REMARK H PARENT 48 56 4 73
REMARK Flexibility Score: inf
ROOT
ATOM      1  C   UNL     1      24.178  36.321  10.290  1.00  0.00     0.272 C 
ATOM      2  C   UNL     1      23.076  35.329  10.352  1.00  0.00     0.113 C 
ATOM      3  C   UNL     1      21.708  35.900  10.298  1.00  0.00     0.145 C 
ATOM      4  C   UNL     1      21.637  37.016   9.272  1.00  0.00     0.142 C 
ATOM      5  C   UNL     1      22.669  38.038   9.694  1.00  0.00     0.178 C 
ATOM      6  O   UNL     1      23.885  37.449   9.465  1.00  0.00    -0.332 OA
ENDROOT
BRANCH   1   7
ATOM      7  O   UNL     1      25.342  35.869   9.740  1.00  0.00    -0.338 OA
BRANCH   7   8
ATOM      8  C   UNL     1      25.611  35.865   8.448  1.00  0.00     0.199 C 
BRANCH   8   9
ATOM      9  C   UNL     1      26.790  36.536   7.859  1.00  0.00     0.179 C 
ATOM     10  C   UNL     1      27.270  38.133   6.226  1.00  0.00     0.282 C 
ATOM     11  O   UNL     1      26.275  37.277   6.747  1.00  0.00    -0.341 OA
ATOM     12  C   UNL     1      28.627  37.927   6.814  1.00  0.00     0.202 C 
ATOM     13  C   UNL     1      28.611  38.116   8.315  1.00  0.00     0.179 C 
ATOM     14  C   UNL     1      27.304  37.597   8.840  1.00  0.00     0.177 C 
BRANCH  10  15
ATOM     15  O   UNL     1      26.878  39.402   6.452  1.00  0.00    -0.341 OA
BRANCH  15  16
ATOM     16  C   UNL     1      26.936  40.352   5.500  1.00  0.00     0.184 C 
ATOM     17  C   UNL     1      27.739  41.580   5.860  1.00  0.00     0.178 C 
ATOM     18  O   UNL     1      27.231  42.614   5.049  1.00  0.00    -0.341 OA
ATOM     19  C   UNL     1      26.086  43.083   5.730  1.00  0.00     0.281 C 
ATOM     20  C   UNL     1      25.555  40.808   5.027  1.00  0.00     0.180 C 
ATOM     21  C   UNL     1      25.072  41.966   5.876  1.00  0.00     0.202 C 
BRANCH  17  22
ATOM     22  C   UNL     1      29.205  41.434   5.513  1.00  0.00     0.191 C 
BRANCH  22  23
ATOM     23  O   UNL     1      29.927  41.301   6.702  1.00  0.00    -0.394 OA
ATOM     24  H   UNL     1      29.428  40.737   7.373  1.00  0.00     0.210 HD
ENDBRANCH  22  23
ENDBRANCH  17  22
BRANCH  19  25
ATOM     25  O   UNL     1      25.497  44.130   5.090  1.00  0.00    -0.350 OA
BRANCH  25  26
ATOM     26  C   UNL     1      25.669  45.380   5.619  1.00  0.00     0.169 C 
BRANCH  26  27
ATOM     27  C   UNL     1      25.867  45.425   7.101  1.00  0.00     0.119 C 
BRANCH  27  28
ATOM     28  N   UNL     1      24.669  45.732   7.791  1.00  0.00    -0.092 NA
ATOM     29  N   UNL     1      23.734  44.916   7.885  1.00  0.00     0.001 N 
ATOM     30  N   UNL     1      22.811  44.138   7.595  1.00  0.00    -0.003 NA
ENDBRANCH  27  28
ENDBRANCH  26  27
ENDBRANCH  25  26
ENDBRANCH  19  25
BRANCH  20  31
ATOM     31  O   UNL     1      25.547  41.237   3.707  1.00  0.00    -0.387 OA
ATOM     32  H   UNL     1      24.988  42.044   3.590  1.00  0.00     0.211 HD
ENDBRANCH  20  31
BRANCH  21  33
ATOM     33  O   UNL     1      24.906  41.620   7.201  1.00  0.00    -0.385 OA
ATOM     34  H   UNL     1      24.882  40.648   7.355  1.00  0.00     0.211 HD
ENDBRANCH  21  33
ENDBRANCH  15  16
ENDBRANCH  10  15
BRANCH  12  35
ATOM     35  O   UNL     1      29.269  36.766   6.404  1.00  0.00    -0.385 OA
ATOM     36  H   UNL     1      28.587  36.046   6.372  1.00  0.00     0.211 HD
ENDBRANCH  12  35
BRANCH  13  37
ATOM     37  O   UNL     1      28.694  39.468   8.593  1.00  0.00    -0.387 OA
ATOM     38  H   UNL     1      28.149  39.759   9.366  1.00  0.00     0.211 HD
ENDBRANCH  13  37
BRANCH  14  39
ATOM     39  O   UNL     1      26.320  38.613   8.845  1.00  0.00    -0.387 OA
ATOM     40  H   UNL     1      25.524  38.336   9.342  1.00  0.00     0.211 HD
ENDBRANCH  14  39
ENDBRANCH   8   9
ENDBRANCH   7   8
ENDBRANCH   1   7
BRANCH   1  41
ATOM     41  C   UNL     1      24.360  36.954  11.616  1.00  0.00     0.364 C 
ATOM     42  O   UNL     1      25.062  37.952  11.770  1.00  0.00    -0.246 OA
BRANCH  41  43
ATOM     43  O   UNL     1      23.723  36.411  12.751  1.00  0.00    -0.477 OA
ATOM     44  H   UNL     1      23.426  37.051  13.486  1.00  0.00     0.296 HD
ENDBRANCH  41  43
ENDBRANCH   1  41
BRANCH   3  45
ATOM     45  O   UNL     1      20.791  34.890  10.017  1.00  0.00    -0.391 OA
ATOM     46  H   UNL     1      20.498  34.523  10.869  1.00  0.00     0.211 HD
ENDBRANCH   3  45
BRANCH   5  47
ATOM     47  C   UNL     1      22.612  39.275   8.805  1.00  0.00     0.176 C 
BRANCH  47  48
ATOM     48  O   UNL     1      22.172  38.884   7.569  1.00  0.00    -0.388 OA
ATOM     49  H   UNL     1      22.448  37.980   7.303  1.00  0.00     0.211 HD
ENDBRANCH  47  48
BRANCH  47  50
ATOM     50  C   UNL     1      21.860  40.419   9.344  1.00  0.00     0.165 C 
BRANCH  50  51
ATOM     51  O   UNL     1      22.134  41.521   8.474  1.00  0.00    -0.388 OA
ATOM     52  H   UNL     1      21.308  41.690   7.986  1.00  0.00     0.211 HD
ENDBRANCH  50  51
BRANCH  50  53
ATOM     53  C   UNL     1      22.423  40.893  10.695  1.00  0.00     0.154 C 
BRANCH  53  54
ATOM     54  N   UNL     1      23.800  40.506  10.871  1.00  0.00    -0.319 N 
ATOM     55  C   UNL     1      24.881  41.390  10.528  1.00  0.00     0.407 C 
ATOM     56  H   UNL     1      24.089  39.582  11.252  1.00  0.00     0.167 HD
ATOM     57  O   UNL     1      24.654  42.535  10.075  1.00  0.00    -0.225 OA
BRANCH  55  58
ATOM     58  O   UNL     1      26.198  41.001  10.692  1.00  0.00    -0.443 OA
BRANCH  58  59
ATOM     59  C   UNL     1      26.829  41.046  11.967  1.00  0.00     0.294 C 
BRANCH  59  60
ATOM     60  C   UNL     1      28.154  40.383  11.782  1.00  0.00     0.121 A 
ATOM     61  C   UNL     1      28.452  39.122  12.279  1.00  0.00     0.144 A 
ATOM     62  N   UNL     1      29.261  40.795  11.158  1.00  0.00    -0.131 NA
ATOM     63  N   UNL     1      29.730  38.806  11.944  1.00  0.00    -0.220 N 
ATOM     64  N   UNL     1      30.186  39.837  11.269  1.00  0.00    -0.062 NA
BRANCH  63  65
ATOM     65  C   UNL     1      30.422  37.610  12.264  1.00  0.00     0.066 A 
ATOM     66  C   UNL     1      29.771  36.509  12.770  1.00  0.00     0.028 A 
ATOM     67  C   UNL     1      31.782  37.527  12.064  1.00  0.00     0.028 A 
ATOM     68  C   UNL     1      30.436  35.340  13.077  1.00  0.00     0.002 A 
ATOM     69  C   UNL     1      32.447  36.351  12.374  1.00  0.00     0.002 A 
ATOM     70  C   UNL     1      31.814  35.242  12.881  1.00  0.00     0.000 A 
ENDBRANCH  63  65
ENDBRANCH  59  60
ENDBRANCH  58  59
ENDBRANCH  55  58
ENDBRANCH  53  54
ENDBRANCH  50  53
ENDBRANCH  47  50
ENDBRANCH   5  47
BRANCH   4  71
ATOM     71  N   UNL     1      20.312  37.493   9.093  1.00  0.00    -0.348 N 
ATOM     72  C   UNL     1      19.512  36.940   8.059  1.00  0.00     0.217 C 
ATOM     73  H   UNL     1      19.895  38.223   9.699  1.00  0.00     0.163 HD
ATOM     74  C   UNL     1      18.113  37.423   7.848  1.00  0.00     0.114 C 
ATOM     75  O   UNL     1      19.936  36.031   7.282  1.00  0.00    -0.275 OA
ENDBRANCH   4  71
TORSDOF 30
BEGIN_RES LYS A 131
REMARK  4 active torsions:
REMARK  status: ('A' for Active; 'I' for Inactive)
REMARK    1  A    between atoms: CA   and  CB  
REMARK    2  A    between atoms: CB   and  CG  
REMARK    3  A    between atoms: CG   and  CD  
REMARK    4  A    between atoms: CD   and  CE  
ROOT
ATOM      1  CA  LYS A 131      29.867  25.555  16.977  1.00 20.52     0.186 C 
ENDROOT
BRANCH   1   2
ATOM      2  CB  LYS A 131      28.345  25.722  17.026  1.00 20.94     0.034 C 
BRANCH   2   3
ATOM      3  CG  LYS A 131      27.601  24.403  16.882  1.00 22.96     0.005 C 
BRANCH   3   4
ATOM      4  CD  LYS A 131      26.624  24.179  18.003  1.00 24.33     0.041 C 
BRANCH   4   5
ATOM      5  CE  LYS A 131      25.610  23.117  17.589  1.00 26.91     0.338 C 
ATOM      6  NZ  LYS A 131      24.424  23.748  16.964  1.00 27.40     0.618 N 
ENDBRANCH   4   5
ENDBRANCH   3   4
ENDBRANCH   2   3
ENDBRANCH   1   2
END_RES LYS A 131
BEGIN_RES LYS A 135
REMARK  4 active torsions:
REMARK  status: ('A' for Active; 'I' for Inactive)
REMARK    5  A    between atoms: CA   and  CB  
REMARK    6  A    between atoms: CB   and  CG  
REMARK    7  A    between atoms: CG   and  CD  
REMARK    8  A    between atoms: CD   and  CE  
ROOT
ATOM      7  CA  LYS A 135      33.193  34.663   9.290  1.00 25.02     0.186 C 
ENDROOT
BRANCH   7   8
ATOM      8  CB  LYS A 135      32.060  35.360  10.034  1.00 26.63     0.034 C 
BRANCH   8   9
ATOM      9  CG  LYS A 135      30.766  35.399   9.262  1.00 29.45     0.005 C 
BRANCH   9  10
ATOM     10  CD  LYS A 135      30.229  33.993   9.044  1.00 32.00     0.041 C 
BRANCH  10  11
ATOM     11  CE  LYS A 135      28.712  33.993   9.065  1.00 34.25     0.338 C 
ATOM     12  NZ  LYS A 135      28.195  34.182  10.449  1.00 35.99     0.618 N 
ENDBRANCH  10  11
ENDBRANCH   9  10
ENDBRANCH   8   9
ENDBRANCH   7   8
END_RES LYS A 135
