REMARK VINA RESULT:    -4.498      4.015     10.203
REMARK INTER + INTRA:         -23.872
REMARK INTER:                 -12.124
REMARK INTRA:                 -11.748
REMARK UNBOUND:               -11.748
REMARK SMILES CC(=O)N[C@@H]1[C@@H](O)C[C@](OC[C@H]2O[C@@H](O[C@H]3[C@H](O)[C@@H](O)[C@H](OCCN=[N+]=[N-])O[C@@H]3CO)[C@H](O)[C@@H](O)[C@H]2O)(C(=O)O)O[C@H]1C(O)[C@H](O)CNC(=O)OCc1cn([C@@H](C)C(=O)OCc2ccccc2)nn1
REMARK SMILES IDX 43 1 42 2 9 3 8 4 41 5 6 6 5 7 10 8 11 9 12 10 14 11 13 12
REMARK SMILES IDX 32 13 34 14 36 15 15 16 16 17 29 18 28 19 21 20 17 21 19 22
REMARK SMILES IDX 30 23 31 24 22 26 23 27 24 28 25 29 26 30 27 31 18 32 20 34
REMARK SMILES IDX 33 36 35 38 37 40 38 42 39 43 40 44 7 46 4 48 2 49 1 51 3 52
REMARK SMILES IDX 44 53 45 55 46 56 47 58 48 59 49 60 50 62 51 63 52 64 53 65
REMARK SMILES IDX 54 66 69 67 55 68 68 69 56 70 57 71 58 72 59 73 60 74 61 75
REMARK SMILES IDX 62 76 63 77 67 78 64 79 66 80 65 81
REMARK H PARENT 31 25 18 33 20 35 33 37 35 39 37 41 40 45 7 47 4 50 44 54
REMARK H PARENT 46 57 48 61
REMARK Flexibility Score: inf
ROOT
ATOM      1  C   UNL     1      24.256  34.884  13.472  1.00  0.00     0.176 C 
ENDROOT
BRANCH   1   2
ATOM      2  C   UNL     1      24.320  33.433  13.747  1.00  0.00     0.178 C 
ATOM      3  C   UNL     1      22.074  32.861  14.026  1.00  0.00     0.272 C 
ATOM      4  C   UNL     1      22.353  32.564  15.449  1.00  0.00     0.113 C 
ATOM      5  O   UNL     1      23.283  32.677  13.266  1.00  0.00    -0.332 OA
ATOM      6  C   UNL     1      23.479  33.384  16.034  1.00  0.00     0.145 C 
ATOM      7  C   UNL     1      24.695  33.174  15.183  1.00  0.00     0.142 C 
BRANCH   3   8
ATOM      8  O   UNL     1      21.604  34.021  13.647  1.00  0.00    -0.338 OA
BRANCH   8   9
ATOM      9  C   UNL     1      20.516  34.679  13.925  1.00  0.00     0.199 C 
BRANCH   9  10
ATOM     10  C   UNL     1      19.829  35.592  12.949  1.00  0.00     0.179 C 
ATOM     11  C   UNL     1      20.387  37.266  11.431  1.00  0.00     0.282 C 
ATOM     12  O   UNL     1      20.663  36.625  12.637  1.00  0.00    -0.341 OA
ATOM     13  C   UNL     1      18.981  37.076  10.988  1.00  0.00     0.202 C 
ATOM     14  C   UNL     1      18.688  35.625  10.725  1.00  0.00     0.179 C 
ATOM     15  C   UNL     1      19.444  34.785  11.691  1.00  0.00     0.177 C 
BRANCH  11  16
ATOM     16  O   UNL     1      21.372  36.907  10.552  1.00  0.00    -0.341 OA
BRANCH  16  17
ATOM     17  C   UNL     1      21.635  37.804   9.560  1.00  0.00     0.184 C 
ATOM     18  C   UNL     1      22.431  37.126   8.474  1.00  0.00     0.178 C 
ATOM     19  O   UNL     1      22.840  38.068   7.523  1.00  0.00    -0.341 OA
ATOM     20  C   UNL     1      24.018  38.639   8.068  1.00  0.00     0.281 C 
ATOM     21  C   UNL     1      22.457  38.990  10.036  1.00  0.00     0.180 C 
ATOM     22  C   UNL     1      23.836  39.055   9.494  1.00  0.00     0.202 C 
BRANCH  18  23
ATOM     23  C   UNL     1      21.742  35.954   7.839  1.00  0.00     0.191 C 
BRANCH  23  24
ATOM     24  O   UNL     1      21.872  34.884   8.728  1.00  0.00    -0.394 OA
ATOM     25  H   UNL     1      21.749  35.148   9.671  1.00  0.00     0.210 HD
ENDBRANCH  23  24
ENDBRANCH  18  23
BRANCH  20  26
ATOM     26  O   UNL     1      24.419  39.632   7.233  1.00  0.00    -0.350 OA
BRANCH  26  27
ATOM     27  C   UNL     1      25.698  40.076   7.301  1.00  0.00     0.169 C 
BRANCH  27  28
ATOM     28  C   UNL     1      26.791  39.068   7.282  1.00  0.00     0.119 C 
BRANCH  28  29
ATOM     29  N   UNL     1      27.214  38.585   6.017  1.00  0.00    -0.092 NA
ATOM     30  N   UNL     1      27.219  39.287   5.013  1.00  0.00     0.001 N 
ATOM     31  N   UNL     1      27.409  39.989   4.003  1.00  0.00    -0.003 NA
ENDBRANCH  28  29
ENDBRANCH  27  28
ENDBRANCH  26  27
ENDBRANCH  20  26
BRANCH  21  32
ATOM     32  O   UNL     1      21.809  40.199   9.766  1.00  0.00    -0.387 OA
ATOM     33  H   UNL     1      21.016  40.346  10.330  1.00  0.00     0.211 HD
ENDBRANCH  21  32
BRANCH  22  34
ATOM     34  O   UNL     1      24.709  38.400  10.369  1.00  0.00    -0.385 OA
ATOM     35  H   UNL     1      24.141  37.899  11.014  1.00  0.00     0.211 HD
ENDBRANCH  22  34
ENDBRANCH  16  17
ENDBRANCH  11  16
BRANCH  13  36
ATOM     36  O   UNL     1      18.127  37.589  11.994  1.00  0.00    -0.385 OA
ATOM     37  H   UNL     1      18.034  38.564  11.767  1.00  0.00     0.211 HD
ENDBRANCH  13  36
BRANCH  14  38
ATOM     38  O   UNL     1      18.972  35.346   9.404  1.00  0.00    -0.387 OA
ATOM     39  H   UNL     1      18.221  34.882   8.943  1.00  0.00     0.211 HD
ENDBRANCH  14  38
BRANCH  15  40
ATOM     40  O   UNL     1      20.553  34.177  11.120  1.00  0.00    -0.387 OA
ATOM     41  H   UNL     1      21.320  34.214  11.772  1.00  0.00     0.211 HD
ENDBRANCH  15  40
ENDBRANCH   9  10
ENDBRANCH   8   9
ENDBRANCH   3   8
BRANCH   3  42
ATOM     42  C   UNL     1      21.278  31.696  13.470  1.00  0.00     0.364 C 
ATOM     43  O   UNL     1      20.689  30.900  14.213  1.00  0.00    -0.246 OA
BRANCH  42  44
ATOM     44  O   UNL     1      21.188  31.489  12.095  1.00  0.00    -0.477 OA
ATOM     45  H   UNL     1      20.310  31.405  11.593  1.00  0.00     0.296 HD
ENDBRANCH  42  44
ENDBRANCH   3  42
BRANCH   6  46
ATOM     46  O   UNL     1      23.151  34.728  16.182  1.00  0.00    -0.391 OA
ATOM     47  H   UNL     1      22.585  34.795  16.986  1.00  0.00     0.211 HD
ENDBRANCH   6  46
BRANCH   7  48
ATOM     48  N   UNL     1      25.167  31.809  15.374  1.00  0.00    -0.348 N 
ATOM     49  C   UNL     1      26.547  31.603  15.689  1.00  0.00     0.217 C 
ATOM     50  H   UNL     1      24.558  30.970  15.292  1.00  0.00     0.163 HD
ATOM     51  C   UNL     1      27.030  30.203  15.883  1.00  0.00     0.114 C 
ATOM     52  O   UNL     1      27.327  32.588  15.797  1.00  0.00    -0.275 OA
ENDBRANCH   7  48
ENDBRANCH   1   2
BRANCH   1  53
ATOM     53  O   UNL     1      25.370  35.508  14.085  1.00  0.00    -0.388 OA
ATOM     54  H   UNL     1      26.030  34.822  14.379  1.00  0.00     0.211 HD
ENDBRANCH   1  53
BRANCH   1  55
ATOM     55  C   UNL     1      24.419  35.237  11.985  1.00  0.00     0.165 C 
BRANCH  55  56
ATOM     56  O   UNL     1      23.266  35.080  11.283  1.00  0.00    -0.388 OA
ATOM     57  H   UNL     1      22.608  34.548  11.790  1.00  0.00     0.211 HD
ENDBRANCH  55  56
BRANCH  55  58
ATOM     58  C   UNL     1      25.630  34.577  11.410  1.00  0.00     0.154 C 
BRANCH  58  59
ATOM     59  N   UNL     1      26.810  35.350  11.681  1.00  0.00    -0.319 N 
ATOM     60  C   UNL     1      27.339  36.377  10.865  1.00  0.00     0.407 C 
ATOM     61  H   UNL     1      27.376  35.171  12.571  1.00  0.00     0.167 HD
ATOM     62  O   UNL     1      26.804  36.684   9.797  1.00  0.00    -0.225 OA
BRANCH  60  63
ATOM     63  O   UNL     1      28.493  37.082  11.243  1.00  0.00    -0.443 OA
BRANCH  63  64
ATOM     64  C   UNL     1      28.495  37.990  12.316  1.00  0.00     0.294 C 
BRANCH  64  65
ATOM     65  C   UNL     1      29.387  37.444  13.365  1.00  0.00     0.120 A 
ATOM     66  C   UNL     1      30.759  37.342  13.346  1.00  0.00     0.139 A 
ATOM     67  N   UNL     1      28.983  36.940  14.537  1.00  0.00    -0.132 NA
ATOM     68  N   UNL     1      31.164  36.772  14.515  1.00  0.00    -0.238 N 
ATOM     69  N   UNL     1      30.069  36.542  15.215  1.00  0.00    -0.066 NA
BRANCH  68  70
ATOM     70  C   UNL     1      32.553  36.516  14.804  1.00  0.00     0.215 C 
ATOM     71  C   UNL     1      32.829  36.599  16.294  1.00  0.00     0.046 C 
BRANCH  70  72
ATOM     72  C   UNL     1      32.954  35.156  14.295  1.00  0.00     0.331 C 
ATOM     73  O   UNL     1      33.507  35.067  13.186  1.00  0.00    -0.250 OA
BRANCH  72  74
ATOM     74  O   UNL     1      32.721  34.018  15.031  1.00  0.00    -0.459 OA
BRANCH  74  75
ATOM     75  C   UNL     1      31.558  33.230  14.956  1.00  0.00     0.268 C 
BRANCH  75  76
ATOM     76  C   UNL     1      31.105  32.715  16.264  1.00  0.00    -0.011 A 
ATOM     77  C   UNL     1      30.535  31.476  16.409  1.00  0.00     0.007 A 
ATOM     78  C   UNL     1      31.245  33.486  17.391  1.00  0.00     0.007 A 
ATOM     79  C   UNL     1      30.109  30.994  17.626  1.00  0.00     0.000 A 
ATOM     80  C   UNL     1      30.834  33.046  18.628  1.00  0.00     0.000 A 
ATOM     81  C   UNL     1      30.260  31.785  18.736  1.00  0.00     0.000 A 
ENDBRANCH  75  76
ENDBRANCH  74  75
ENDBRANCH  72  74
ENDBRANCH  70  72
ENDBRANCH  68  70
ENDBRANCH  64  65
ENDBRANCH  63  64
ENDBRANCH  60  63
ENDBRANCH  58  59
ENDBRANCH  55  58
ENDBRANCH   1  55
TORSDOF 34
BEGIN_RES LYS A 131
REMARK  4 active torsions:
REMARK  status: ('A' for Active; 'I' for Inactive)
REMARK    1  A    between atoms: CA   and  CB  
REMARK    2  A    between atoms: CB   and  CG  
REMARK    3  A    between atoms: CG   and  CD  
REMARK    4  A    between atoms: CD   and  CE  
ROOT
ATOM      1  CA  LYS A 131      29.867  25.555  16.977  1.00 20.52     0.186 C 
ENDROOT
BRANCH   1   2
ATOM      2  CB  LYS A 131      28.345  25.722  17.026  1.00 20.94     0.034 C 
BRANCH   2   3
ATOM      3  CG  LYS A 131      27.601  24.404  16.877  1.00 22.96     0.005 C 
BRANCH   3   4
ATOM      4  CD  LYS A 131      26.277  24.417  17.590  1.00 24.33     0.041 C 
BRANCH   4   5
ATOM      5  CE  LYS A 131      25.904  25.853  17.944  1.00 26.91     0.338 C 
ATOM      6  NZ  LYS A 131      24.491  26.125  17.587  1.00 27.40     0.618 N 
ENDBRANCH   4   5
ENDBRANCH   3   4
ENDBRANCH   2   3
ENDBRANCH   1   2
END_RES LYS A 131
BEGIN_RES LYS A 135
REMARK  4 active torsions:
REMARK  status: ('A' for Active; 'I' for Inactive)
REMARK    5  A    between atoms: CA   and  CB  
REMARK    6  A    between atoms: CB   and  CG  
REMARK    7  A    between atoms: CG   and  CD  
REMARK    8  A    between atoms: CD   and  CE  
ROOT
ATOM      7  CA  LYS A 135      33.193  34.663   9.290  1.00 25.02     0.186 C 
ENDROOT
BRANCH   7   8
ATOM      8  CB  LYS A 135      32.060  35.360  10.034  1.00 26.63     0.034 C 
BRANCH   8   9
ATOM      9  CG  LYS A 135      30.746  34.626   9.955  1.00 29.45     0.005 C 
BRANCH   9  10
ATOM     10  CD  LYS A 135      30.466  34.180   8.528  1.00 32.00     0.041 C 
BRANCH  10  11
ATOM     11  CE  LYS A 135      29.159  34.770   8.033  1.00 34.25     0.338 C 
ATOM     12  NZ  LYS A 135      29.316  36.212   7.694  1.00 35.99     0.618 N 
ENDBRANCH  10  11
ENDBRANCH   9  10
ENDBRANCH   8   9
ENDBRANCH   7   8
END_RES LYS A 135
