REMARK VINA RESULT:    -4.710      2.905      6.419
REMARK INTER + INTRA:         -23.081
REMARK INTER:                 -12.421
REMARK INTRA:                 -10.660
REMARK UNBOUND:               -11.213
REMARK SMILES CC(=O)N[C@@H]1[C@@H](O)C[C@](OC[C@H]2O[C@@H](O[C@H]3[C@H](O)[C@@H](O)[C@H](OCCN=[N+]=[N-])O[C@@H]3CO)[C@H](O)[C@@H](O)[C@H]2O)(C(=O)O)O[C@H]1C(O)[C@H](O)CNC(=O)OCc1cn(CC2=CC[C@H]3C[C@@H]2C3(C)C)nn1
REMARK SMILES IDX 9 1 8 2 6 3 5 4 42 5 41 6 10 7 11 8 12 9 14 10 13 11 32 12
REMARK SMILES IDX 34 13 36 14 15 15 16 16 29 17 28 18 21 19 17 20 19 21 30 22
REMARK SMILES IDX 31 23 22 25 23 26 24 27 25 28 26 29 27 30 18 31 20 33 33 35
REMARK SMILES IDX 35 37 37 39 38 41 39 42 40 43 7 45 43 47 44 48 45 50 46 51
REMARK SMILES IDX 47 53 48 54 49 55 50 57 51 58 52 59 53 60 54 61 67 62 55 63
REMARK SMILES IDX 66 64 56 65 57 66 58 67 62 68 59 69 61 70 63 71 60 72 64 73
REMARK SMILES IDX 65 74 4 75 2 76 1 78 3 79
REMARK H PARENT 31 24 18 32 20 34 33 36 35 38 37 40 40 44 7 46 44 49 46 52
REMARK H PARENT 48 56 4 77
REMARK Flexibility Score: inf
ROOT
ATOM      1  C   UNL     1      24.383  35.825  10.448  1.00  0.00     0.272 C 
ATOM      2  C   UNL     1      23.121  35.232  10.983  1.00  0.00     0.113 C 
ATOM      3  C   UNL     1      21.935  35.602  10.074  1.00  0.00     0.145 C 
ATOM      4  C   UNL     1      21.734  37.074  10.051  1.00  0.00     0.142 C 
ATOM      5  C   UNL     1      22.985  37.700  10.632  1.00  0.00     0.178 C 
ATOM      6  O   UNL     1      24.110  37.190  10.093  1.00  0.00    -0.332 OA
ENDROOT
BRANCH   1   7
ATOM      7  O   UNL     1      24.879  35.296   9.341  1.00  0.00    -0.338 OA
BRANCH   7   8
ATOM      8  C   UNL     1      25.833  34.414   9.185  1.00  0.00     0.199 C 
BRANCH   8   9
ATOM      9  C   UNL     1      27.185  34.660   8.663  1.00  0.00     0.179 C 
ATOM     10  C   UNL     1      28.532  36.454   8.100  1.00  0.00     0.282 C 
ATOM     11  O   UNL     1      27.439  36.052   8.858  1.00  0.00    -0.341 OA
ATOM     12  C   UNL     1      29.671  35.537   8.085  1.00  0.00     0.202 C 
ATOM     13  C   UNL     1      29.550  34.213   8.730  1.00  0.00     0.179 C 
ATOM     14  C   UNL     1      28.293  34.055   9.548  1.00  0.00     0.177 C 
BRANCH  10  15
ATOM     15  O   UNL     1      28.918  37.681   8.674  1.00  0.00    -0.341 OA
BRANCH  15  16
ATOM     16  C   UNL     1      28.480  38.771   7.945  1.00  0.00     0.184 C 
ATOM     17  C   UNL     1      29.569  39.799   7.845  1.00  0.00     0.178 C 
ATOM     18  O   UNL     1      29.131  41.054   7.460  1.00  0.00    -0.341 OA
ATOM     19  C   UNL     1      27.843  41.139   7.018  1.00  0.00     0.281 C 
ATOM     20  C   UNL     1      27.348  39.415   8.753  1.00  0.00     0.180 C 
ATOM     21  C   UNL     1      26.829  40.600   7.997  1.00  0.00     0.202 C 
BRANCH  17  22
ATOM     22  C   UNL     1      30.594  39.300   6.818  1.00  0.00     0.191 C 
BRANCH  22  23
ATOM     23  O   UNL     1      31.542  38.547   7.495  1.00  0.00    -0.394 OA
ATOM     24  H   UNL     1      32.124  38.097   6.810  1.00  0.00     0.210 HD
ENDBRANCH  22  23
ENDBRANCH  17  22
BRANCH  19  25
ATOM     25  O   UNL     1      27.668  40.493   5.787  1.00  0.00    -0.350 OA
BRANCH  25  26
ATOM     26  C   UNL     1      26.319  40.271   5.504  1.00  0.00     0.169 C 
BRANCH  26  27
ATOM     27  C   UNL     1      25.944  41.322   4.457  1.00  0.00     0.119 C 
BRANCH  27  28
ATOM     28  N   UNL     1      24.938  42.207   5.006  1.00  0.00    -0.092 NA
ATOM     29  N   UNL     1      24.298  41.928   6.003  1.00  0.00     0.001 N 
ATOM     30  N   UNL     1      23.577  41.545   6.932  1.00  0.00    -0.003 NA
ENDBRANCH  27  28
ENDBRANCH  26  27
ENDBRANCH  25  26
ENDBRANCH  19  25
BRANCH  20  31
ATOM     31  O   UNL     1      26.295  38.495   8.908  1.00  0.00    -0.387 OA
ATOM     32  H   UNL     1      26.293  38.128   9.818  1.00  0.00     0.211 HD
ENDBRANCH  20  31
BRANCH  21  33
ATOM     33  O   UNL     1      26.374  41.615   8.836  1.00  0.00    -0.385 OA
ATOM     34  H   UNL     1      25.438  41.394   9.107  1.00  0.00     0.211 HD
ENDBRANCH  21  33
ENDBRANCH  15  16
ENDBRANCH  10  15
BRANCH  12  35
ATOM     35  O   UNL     1      30.017  35.318   6.724  1.00  0.00    -0.385 OA
ATOM     36  H   UNL     1      29.341  35.707   6.114  1.00  0.00     0.211 HD
ENDBRANCH  12  35
BRANCH  13  37
ATOM     37  O   UNL     1      30.700  33.869   9.448  1.00  0.00    -0.387 OA
ATOM     38  H   UNL     1      31.473  33.773   8.828  1.00  0.00     0.211 HD
ENDBRANCH  13  37
BRANCH  14  39
ATOM     39  O   UNL     1      28.417  34.891  10.676  1.00  0.00    -0.387 OA
ATOM     40  H   UNL     1      29.372  35.019  10.900  1.00  0.00     0.211 HD
ENDBRANCH  14  39
ENDBRANCH   8   9
ENDBRANCH   7   8
ENDBRANCH   1   7
BRANCH   1  41
ATOM     41  C   UNL     1      25.368  36.012  11.546  1.00  0.00     0.364 C 
ATOM     42  O   UNL     1      25.323  35.255  12.578  1.00  0.00    -0.246 OA
BRANCH  41  43
ATOM     43  O   UNL     1      26.336  36.959  11.535  1.00  0.00    -0.477 OA
ATOM     44  H   UNL     1      26.828  37.336  10.743  1.00  0.00     0.296 HD
ENDBRANCH  41  43
ENDBRANCH   1  41
BRANCH   3  45
ATOM     45  O   UNL     1      22.371  35.227   8.795  1.00  0.00    -0.391 OA
ATOM     46  H   UNL     1      23.272  34.832   8.888  1.00  0.00     0.211 HD
ENDBRANCH   3  45
BRANCH   5  47
ATOM     47  C   UNL     1      22.993  39.210  10.378  1.00  0.00     0.176 C 
BRANCH  47  48
ATOM     48  O   UNL     1      23.509  39.488   9.140  1.00  0.00    -0.388 OA
ATOM     49  H   UNL     1      23.599  38.698   8.537  1.00  0.00     0.211 HD
ENDBRANCH  47  48
BRANCH  47  50
ATOM     50  C   UNL     1      23.749  39.925  11.459  1.00  0.00     0.165 C 
BRANCH  50  51
ATOM     51  O   UNL     1      25.115  39.876  11.059  1.00  0.00    -0.388 OA
ATOM     52  H   UNL     1      25.395  40.844  11.096  1.00  0.00     0.211 HD
ENDBRANCH  50  51
BRANCH  50  53
ATOM     53  C   UNL     1      23.681  39.203  12.766  1.00  0.00     0.154 C 
BRANCH  53  54
ATOM     54  N   UNL     1      24.934  39.028  13.428  1.00  0.00    -0.319 N 
ATOM     55  C   UNL     1      25.059  38.100  14.488  1.00  0.00     0.407 C 
ATOM     56  H   UNL     1      25.762  39.591  13.112  1.00  0.00     0.167 HD
ATOM     57  O   UNL     1      24.082  37.432  14.851  1.00  0.00    -0.225 OA
BRANCH  55  58
ATOM     58  O   UNL     1      26.268  37.921  15.134  1.00  0.00    -0.443 OA
BRANCH  58  59
ATOM     59  C   UNL     1      27.510  38.379  14.718  1.00  0.00     0.294 C 
BRANCH  59  60
ATOM     60  C   UNL     1      28.503  37.305  14.428  1.00  0.00     0.120 A 
ATOM     61  C   UNL     1      29.662  37.016  15.109  1.00  0.00     0.138 A 
ATOM     62  N   UNL     1      28.432  36.392  13.420  1.00  0.00    -0.132 NA
ATOM     63  N   UNL     1      30.253  35.971  14.524  1.00  0.00    -0.248 N 
ATOM     64  N   UNL     1      29.491  35.615  13.509  1.00  0.00    -0.067 NA
BRANCH  63  65
ATOM     65  C   UNL     1      31.516  35.324  14.927  1.00  0.00     0.177 C 
BRANCH  65  66
ATOM     66  C   UNL     1      31.101  34.099  15.689  1.00  0.00    -0.049 C 
ATOM     67  C   UNL     1      31.393  32.868  15.222  1.00  0.00    -0.025 C 
ATOM     68  C   UNL     1      30.372  34.170  16.963  1.00  0.00     0.023 C 
ATOM     69  C   UNL     1      30.834  31.687  15.916  1.00  0.00     0.031 C 
ATOM     70  C   UNL     1      31.012  33.131  17.893  1.00  0.00     0.013 C 
ATOM     71  C   UNL     1      29.170  33.277  16.904  1.00  0.00    -0.026 C 
ATOM     72  C   UNL     1      30.126  32.106  17.173  1.00  0.00    -0.000 C 
ATOM     73  C   UNL     1      28.220  33.420  18.069  1.00  0.00     0.012 C 
ATOM     74  C   UNL     1      28.428  33.206  15.612  1.00  0.00     0.012 C 
ENDBRANCH  65  66
ENDBRANCH  63  65
ENDBRANCH  59  60
ENDBRANCH  58  59
ENDBRANCH  55  58
ENDBRANCH  53  54
ENDBRANCH  50  53
ENDBRANCH  47  50
ENDBRANCH   5  47
BRANCH   4  75
ATOM     75  N   UNL     1      20.618  37.585  10.768  1.00  0.00    -0.348 N 
ATOM     76  C   UNL     1      19.409  38.045  10.225  1.00  0.00     0.217 C 
ATOM     77  H   UNL     1      20.726  37.616  11.823  1.00  0.00     0.163 HD
ATOM     78  C   UNL     1      18.318  38.556  11.094  1.00  0.00     0.114 C 
ATOM     79  O   UNL     1      19.296  38.003   8.987  1.00  0.00    -0.275 OA
ENDBRANCH   4  75
TORSDOF 31
BEGIN_RES LYS A 131
REMARK  4 active torsions:
REMARK  status: ('A' for Active; 'I' for Inactive)
REMARK    1  A    between atoms: CA   and  CB  
REMARK    2  A    between atoms: CB   and  CG  
REMARK    3  A    between atoms: CG   and  CD  
REMARK    4  A    between atoms: CD   and  CE  
ROOT
ATOM      1  CA  LYS A 131      29.867  25.555  16.977  1.00 20.52     0.186 C 
ENDROOT
BRANCH   1   2
ATOM      2  CB  LYS A 131      28.345  25.722  17.026  1.00 20.94     0.034 C 
BRANCH   2   3
ATOM      3  CG  LYS A 131      27.601  24.403  16.887  1.00 22.96     0.005 C 
BRANCH   3   4
ATOM      4  CD  LYS A 131      26.158  24.520  17.294  1.00 24.33     0.041 C 
BRANCH   4   5
ATOM      5  CE  LYS A 131      26.064  25.246  18.632  1.00 26.91     0.338 C 
ATOM      6  NZ  LYS A 131      25.055  26.330  18.565  1.00 27.40     0.618 N 
ENDBRANCH   4   5
ENDBRANCH   3   4
ENDBRANCH   2   3
ENDBRANCH   1   2
END_RES LYS A 131
BEGIN_RES LYS A 135
REMARK  4 active torsions:
REMARK  status: ('A' for Active; 'I' for Inactive)
REMARK    5  A    between atoms: CA   and  CB  
REMARK    6  A    between atoms: CB   and  CG  
REMARK    7  A    between atoms: CG   and  CD  
REMARK    8  A    between atoms: CD   and  CE  
ROOT
ATOM      7  CA  LYS A 135      33.193  34.663   9.290  1.00 25.02     0.186 C 
ENDROOT
BRANCH   7   8
ATOM      8  CB  LYS A 135      32.060  35.360  10.034  1.00 26.63     0.034 C 
BRANCH   8   9
ATOM      9  CG  LYS A 135      32.535  36.376  11.040  1.00 29.45     0.005 C 
BRANCH   9  10
ATOM     10  CD  LYS A 135      31.873  37.723  10.797  1.00 32.00     0.041 C 
BRANCH  10  11
ATOM     11  CE  LYS A 135      31.426  38.342  12.108  1.00 34.25     0.338 C 
ATOM     12  NZ  LYS A 135      30.290  39.281  11.898  1.00 35.99     0.618 N 
ENDBRANCH  10  11
ENDBRANCH   9  10
ENDBRANCH   8   9
ENDBRANCH   7   8
END_RES LYS A 135
