REMARK VINA RESULT:    -4.488      2.748      6.367
REMARK INTER + INTRA:         -21.363
REMARK INTER:                  -9.323
REMARK INTRA:                 -12.041
REMARK UNBOUND:                -9.660
REMARK SMILES CC(=O)N[C@@H]1[C@@H](O)C[C@](OC[C@H]2O[C@@H](O[C@H]3[C@H](O)[C@@H](O)[C@H](OCCN=[N+]=[N-])O[C@@H]3CO)[C@H](O)[C@@H](O)[C@H]2O)(C(=O)O)O[C@H]1C(O)[C@H](O)CNC(=O)OCc1cn(CCC(=O)O)nn1
REMARK SMILES IDX 43 1 42 2 9 3 8 4 41 5 6 6 5 7 10 8 11 9 12 10 14 11 13 12
REMARK SMILES IDX 32 13 34 14 36 15 15 16 16 17 29 18 28 19 21 20 17 21 19 22
REMARK SMILES IDX 30 23 31 24 22 26 23 27 24 28 25 29 26 30 27 31 18 32 20 34
REMARK SMILES IDX 33 36 35 38 37 40 38 42 39 43 40 44 7 46 4 48 2 49 1 51 3 52
REMARK SMILES IDX 44 53 45 55 46 56 47 58 48 59 49 60 50 62 51 63 52 64 53 65
REMARK SMILES IDX 54 66 62 67 55 68 61 69 56 70 57 71 58 72 59 73 60 74
REMARK H PARENT 31 25 18 33 20 35 33 37 35 39 37 41 40 45 7 47 4 50 44 54
REMARK H PARENT 46 57 48 61 60 75
REMARK Flexibility Score: inf
ROOT
ATOM      1  C   UNL     1      23.818  35.482   9.682  1.00  0.00     0.176 C 
ENDROOT
BRANCH   1   2
ATOM      2  C   UNL     1      22.325  35.563   9.893  1.00  0.00     0.178 C 
ATOM      3  C   UNL     1      20.430  36.729   9.147  1.00  0.00     0.272 C 
ATOM      4  C   UNL     1      19.870  35.626  10.027  1.00  0.00     0.113 C 
ATOM      5  O   UNL     1      21.805  36.795   9.589  1.00  0.00    -0.332 OA
ATOM      6  C   UNL     1      20.478  35.681  11.444  1.00  0.00     0.145 C 
ATOM      7  C   UNL     1      21.946  35.286  11.342  1.00  0.00     0.142 C 
BRANCH   3   8
ATOM      8  O   UNL     1      19.831  37.904   9.414  1.00  0.00    -0.338 OA
BRANCH   8   9
ATOM      9  C   UNL     1      20.012  39.071   8.860  1.00  0.00     0.199 C 
BRANCH   9  10
ATOM     10  C   UNL     1      21.026  40.074   9.205  1.00  0.00     0.179 C 
ATOM     11  C   UNL     1      22.783  40.767  10.512  1.00  0.00     0.282 C 
ATOM     12  O   UNL     1      21.779  39.860  10.327  1.00  0.00    -0.341 OA
ATOM     13  C   UNL     1      22.879  41.862   9.488  1.00  0.00     0.202 C 
ATOM     14  C   UNL     1      22.777  41.327   8.072  1.00  0.00     0.179 C 
ATOM     15  C   UNL     1      22.082  39.985   8.043  1.00  0.00     0.177 C 
BRANCH  11  16
ATOM     16  O   UNL     1      24.049  40.189  10.590  1.00  0.00    -0.341 OA
BRANCH  16  17
ATOM     17  C   UNL     1      25.034  41.069  11.031  1.00  0.00     0.184 C 
ATOM     18  C   UNL     1      26.275  40.830  10.244  1.00  0.00     0.178 C 
ATOM     19  O   UNL     1      27.339  40.313  11.003  1.00  0.00    -0.341 OA
ATOM     20  C   UNL     1      26.799  39.187  11.657  1.00  0.00     0.281 C 
ATOM     21  C   UNL     1      25.187  40.867  12.509  1.00  0.00     0.180 C 
ATOM     22  C   UNL     1      26.088  39.730  12.876  1.00  0.00     0.202 C 
BRANCH  18  23
ATOM     23  C   UNL     1      26.760  42.105   9.571  1.00  0.00     0.191 C 
BRANCH  23  24
ATOM     24  O   UNL     1      26.548  42.036   8.197  1.00  0.00    -0.394 OA
ATOM     25  H   UNL     1      25.582  41.926   8.036  1.00  0.00     0.210 HD
ENDBRANCH  23  24
ENDBRANCH  18  23
BRANCH  20  26
ATOM     26  O   UNL     1      27.768  38.268  11.983  1.00  0.00    -0.350 OA
BRANCH  26  27
ATOM     27  C   UNL     1      29.023  38.858  11.854  1.00  0.00     0.169 C 
BRANCH  27  28
ATOM     28  C   UNL     1      29.928  38.360  12.973  1.00  0.00     0.119 C 
BRANCH  28  29
ATOM     29  N   UNL     1      31.287  38.522  12.502  1.00  0.00    -0.092 NA
ATOM     30  N   UNL     1      31.531  38.280  11.321  1.00  0.00     0.001 N 
ATOM     31  N   UNL     1      32.028  38.201  10.177  1.00  0.00    -0.003 NA
ENDBRANCH  28  29
ENDBRANCH  27  28
ENDBRANCH  26  27
ENDBRANCH  20  26
BRANCH  21  32
ATOM     32  O   UNL     1      25.718  42.040  13.036  1.00  0.00    -0.387 OA
ATOM     33  H   UNL     1      26.580  42.208  12.607  1.00  0.00     0.211 HD
ENDBRANCH  21  32
BRANCH  22  34
ATOM     34  O   UNL     1      25.380  38.722  13.535  1.00  0.00    -0.385 OA
ATOM     35  H   UNL     1      25.925  37.888  13.574  1.00  0.00     0.211 HD
ENDBRANCH  22  34
ENDBRANCH  16  17
ENDBRANCH  11  16
BRANCH  13  36
ATOM     36  O   UNL     1      21.977  42.912   9.714  1.00  0.00    -0.385 OA
ATOM     37  H   UNL     1      22.242  43.407  10.506  1.00  0.00     0.211 HD
ENDBRANCH  13  36
BRANCH  14  38
ATOM     38  O   UNL     1      24.016  41.309   7.473  1.00  0.00    -0.387 OA
ATOM     39  H   UNL     1      23.953  41.543   6.525  1.00  0.00     0.211 HD
ENDBRANCH  14  38
BRANCH  15  40
ATOM     40  O   UNL     1      22.915  38.947   8.388  1.00  0.00    -0.387 OA
ATOM     41  H   UNL     1      23.453  39.095   9.200  1.00  0.00     0.211 HD
ENDBRANCH  15  40
ENDBRANCH   9  10
ENDBRANCH   8   9
ENDBRANCH   3   8
BRANCH   3  42
ATOM     42  C   UNL     1      20.490  36.385   7.724  1.00  0.00     0.364 C 
ATOM     43  O   UNL     1      19.514  35.821   7.171  1.00  0.00    -0.246 OA
BRANCH  42  44
ATOM     44  O   UNL     1      21.598  36.664   6.965  1.00  0.00    -0.477 OA
ATOM     45  H   UNL     1      21.906  36.148   6.166  1.00  0.00     0.296 HD
ENDBRANCH  42  44
ENDBRANCH   3  42
BRANCH   6  46
ATOM     46  O   UNL     1      20.408  36.992  11.862  1.00  0.00    -0.391 OA
ATOM     47  H   UNL     1      19.571  37.100  12.401  1.00  0.00     0.211 HD
ENDBRANCH   6  46
BRANCH   7  48
ATOM     48  N   UNL     1      22.127  33.916  11.698  1.00  0.00    -0.348 N 
ATOM     49  C   UNL     1      23.014  33.579  12.754  1.00  0.00     0.217 C 
ATOM     50  H   UNL     1      21.632  33.136  11.213  1.00  0.00     0.163 HD
ATOM     51  C   UNL     1      23.262  32.183  13.186  1.00  0.00     0.114 C 
ATOM     52  O   UNL     1      23.644  34.479  13.383  1.00  0.00    -0.275 OA
ENDBRANCH   7  48
ENDBRANCH   1   2
BRANCH   1  53
ATOM     53  O   UNL     1      24.091  35.874   8.370  1.00  0.00    -0.388 OA
ATOM     54  H   UNL     1      23.311  35.755   7.791  1.00  0.00     0.211 HD
ENDBRANCH   1  53
BRANCH   1  55
ATOM     55  C   UNL     1      24.629  36.327  10.612  1.00  0.00     0.165 C 
BRANCH  55  56
ATOM     56  O   UNL     1      24.899  37.548   9.985  1.00  0.00    -0.388 OA
ATOM     57  H   UNL     1      25.115  37.373   9.038  1.00  0.00     0.211 HD
ENDBRANCH  55  56
BRANCH  55  58
ATOM     58  C   UNL     1      25.970  35.610  10.800  1.00  0.00     0.154 C 
BRANCH  58  59
ATOM     59  N   UNL     1      26.910  36.008   9.789  1.00  0.00    -0.319 N 
ATOM     60  C   UNL     1      27.279  35.211   8.672  1.00  0.00     0.407 C 
ATOM     61  H   UNL     1      27.384  36.960   9.840  1.00  0.00     0.167 HD
ATOM     62  O   UNL     1      26.745  34.078   8.562  1.00  0.00    -0.225 OA
BRANCH  60  63
ATOM     63  O   UNL     1      28.190  35.638   7.723  1.00  0.00    -0.443 OA
BRANCH  63  64
ATOM     64  C   UNL     1      27.732  35.999   6.444  1.00  0.00     0.294 C 
BRANCH  64  65
ATOM     65  C   UNL     1      27.260  37.397   6.429  1.00  0.00     0.120 A 
ATOM     66  C   UNL     1      27.697  38.334   5.503  1.00  0.00     0.138 A 
ATOM     67  N   UNL     1      26.359  37.995   7.246  1.00  0.00    -0.132 NA
ATOM     68  N   UNL     1      27.034  39.477   5.799  1.00  0.00    -0.252 N 
ATOM     69  N   UNL     1      26.247  39.243   6.840  1.00  0.00    -0.067 NA
BRANCH  68  70
ATOM     70  C   UNL     1      27.149  40.740   5.102  1.00  0.00     0.158 C 
BRANCH  70  71
ATOM     71  C   UNL     1      25.830  41.247   4.565  1.00  0.00     0.146 C 
BRANCH  71  72
ATOM     72  C   UNL     1      25.790  42.704   4.749  1.00  0.00     0.305 C 
ATOM     73  O   UNL     1      26.262  43.454   3.867  1.00  0.00    -0.252 OA
BRANCH  72  74
ATOM     74  O   UNL     1      25.238  43.286   5.890  1.00  0.00    -0.481 OA
ATOM     75  H   UNL     1      25.425  42.956   6.831  1.00  0.00     0.296 HD
ENDBRANCH  72  74
ENDBRANCH  71  72
ENDBRANCH  70  71
ENDBRANCH  68  70
ENDBRANCH  64  65
ENDBRANCH  63  64
ENDBRANCH  60  63
ENDBRANCH  58  59
ENDBRANCH  55  58
ENDBRANCH   1  55
TORSDOF 33
BEGIN_RES LYS A 131
REMARK  4 active torsions:
REMARK  status: ('A' for Active; 'I' for Inactive)
REMARK    1  A    between atoms: CA   and  CB  
REMARK    2  A    between atoms: CB   and  CG  
REMARK    3  A    between atoms: CG   and  CD  
REMARK    4  A    between atoms: CD   and  CE  
ROOT
ATOM      1  CA  LYS A 131      29.867  25.555  16.977  1.00 20.52     0.186 C 
ENDROOT
BRANCH   1   2
ATOM      2  CB  LYS A 131      28.345  25.722  17.026  1.00 20.94     0.034 C 
BRANCH   2   3
ATOM      3  CG  LYS A 131      27.601  24.403  16.886  1.00 22.96     0.005 C 
BRANCH   3   4
ATOM      4  CD  LYS A 131      26.544  24.234  17.941  1.00 24.33     0.041 C 
BRANCH   4   5
ATOM      5  CE  LYS A 131      25.255  23.736  17.296  1.00 26.91     0.338 C 
ATOM      6  NZ  LYS A 131      24.778  22.506  17.971  1.00 27.40     0.618 N 
ENDBRANCH   4   5
ENDBRANCH   3   4
ENDBRANCH   2   3
ENDBRANCH   1   2
END_RES LYS A 131
BEGIN_RES LYS A 135
REMARK  4 active torsions:
REMARK  status: ('A' for Active; 'I' for Inactive)
REMARK    5  A    between atoms: CA   and  CB  
REMARK    6  A    between atoms: CB   and  CG  
REMARK    7  A    between atoms: CG   and  CD  
REMARK    8  A    between atoms: CD   and  CE  
ROOT
ATOM      7  CA  LYS A 135      33.193  34.663   9.290  1.00 25.02     0.186 C 
ENDROOT
BRANCH   7   8
ATOM      8  CB  LYS A 135      32.060  35.360  10.034  1.00 26.63     0.034 C 
BRANCH   8   9
ATOM      9  CG  LYS A 135      30.744  34.630   9.948  1.00 29.45     0.005 C 
BRANCH   9  10
ATOM     10  CD  LYS A 135      29.916  34.869  11.201  1.00 32.00     0.041 C 
BRANCH  10  11
ATOM     11  CE  LYS A 135      30.796  34.835  12.436  1.00 34.25     0.338 C 
ATOM     12  NZ  LYS A 135      30.132  34.099  13.547  1.00 35.99     0.618 N 
ENDBRANCH  10  11
ENDBRANCH   9  10
ENDBRANCH   8   9
ENDBRANCH   7   8
END_RES LYS A 135
