REMARK VINA RESULT:    -4.795      2.827      6.434
REMARK INTER + INTRA:         -22.102
REMARK INTER:                 -11.497
REMARK INTRA:                 -10.605
REMARK UNBOUND:               -10.018
REMARK SMILES COc1ccc(-n2cc(COC(=O)NC[C@@H](O)C(O)[C@@H]3O[C@@](OC[C@H]4O[C@@H](O[C@H]5[C@H](O)[C@@H](O)[C@H](OCCN=[N+]=[N-])O[C@@H]5CO)[C@H](O)[C@@H](O)[C@H]4O)(C(=O)O)C[C@H](O)[C@H]3NC(C)=O)nn2)cc1
REMARK SMILES IDX 22 1 54 2 55 3 57 4 20 5 21 6 23 7 24 8 25 9 27 10 26 11
REMARK SMILES IDX 45 12 47 13 49 14 28 15 29 16 42 17 41 18 34 19 30 20 32 21
REMARK SMILES IDX 43 22 44 23 35 25 36 26 37 27 38 28 39 29 40 30 31 31 33 33
REMARK SMILES IDX 46 35 48 37 50 39 51 41 52 42 53 43 56 45 18 47 19 48 16 50
REMARK SMILES IDX 17 51 15 53 14 54 12 55 13 57 11 58 10 59 9 60 8 61 62 62
REMARK SMILES IDX 7 63 63 64 6 65 5 66 64 67 4 68 65 69 3 70 2 71 1 72 58 73
REMARK SMILES IDX 59 74 60 76 61 77
REMARK H PARENT 44 24 31 32 33 34 46 36 48 38 50 40 53 44 56 46 19 49 17 52
REMARK H PARENT 14 56 58 75
REMARK Flexibility Score: inf
ROOT
ATOM      1  C   UNL     1      28.553  35.848   8.073  1.00  0.00     0.272 C 
ATOM      2  C   UNL     1      28.450  35.502   6.634  1.00  0.00     0.113 C 
ATOM      3  C   UNL     1      28.147  36.603   5.696  1.00  0.00     0.145 C 
ATOM      4  C   UNL     1      27.460  37.731   6.492  1.00  0.00     0.142 C 
ATOM      5  C   UNL     1      26.595  37.078   7.511  1.00  0.00     0.178 C 
ATOM      6  O   UNL     1      27.434  36.583   8.508  1.00  0.00    -0.332 OA
ENDROOT
BRANCH   1   7
ATOM      7  O   UNL     1      29.611  36.320   8.652  1.00  0.00    -0.338 OA
BRANCH   7   8
ATOM      8  C   UNL     1      30.459  37.276   8.580  1.00  0.00     0.199 C 
BRANCH   8   9
ATOM      9  C   UNL     1      30.132  38.724   8.808  1.00  0.00     0.179 C 
ATOM     10  C   UNL     1      29.352  40.318  10.247  1.00  0.00     0.282 C 
ATOM     11  O   UNL     1      29.804  38.997  10.092  1.00  0.00    -0.341 OA
ATOM     12  C   UNL     1      30.356  41.353   9.851  1.00  0.00     0.202 C 
ATOM     13  C   UNL     1      31.455  40.883   8.973  1.00  0.00     0.179 C 
ATOM     14  C   UNL     1      31.180  39.641   8.226  1.00  0.00     0.177 C 
BRANCH  10  15
ATOM     15  O   UNL     1      29.032  40.483  11.592  1.00  0.00    -0.341 OA
BRANCH  15  16
ATOM     16  C   UNL     1      29.255  39.359  12.339  1.00  0.00     0.184 C 
ATOM     17  C   UNL     1      28.071  38.952  13.137  1.00  0.00     0.178 C 
ATOM     18  O   UNL     1      28.382  37.844  13.970  1.00  0.00    -0.341 OA
ATOM     19  C   UNL     1      29.243  38.364  14.972  1.00  0.00     0.281 C 
ATOM     20  C   UNL     1      30.435  39.645  13.285  1.00  0.00     0.180 C 
ATOM     21  C   UNL     1      30.588  38.503  14.254  1.00  0.00     0.202 C 
BRANCH  17  22
ATOM     22  C   UNL     1      26.896  38.591  12.265  1.00  0.00     0.191 C 
BRANCH  22  23
ATOM     23  O   UNL     1      27.330  37.767  11.241  1.00  0.00    -0.394 OA
ATOM     24  H   UNL     1      26.601  37.471  10.651  1.00  0.00     0.210 HD
ENDBRANCH  22  23
ENDBRANCH  17  22
BRANCH  19  25
ATOM     25  O   UNL     1      29.316  37.541  16.041  1.00  0.00    -0.350 OA
BRANCH  25  26
ATOM     26  C   UNL     1      28.641  37.847  17.181  1.00  0.00     0.169 C 
BRANCH  26  27
ATOM     27  C   UNL     1      28.130  39.240  17.328  1.00  0.00     0.119 C 
BRANCH  27  28
ATOM     28  N   UNL     1      26.706  39.390  17.308  1.00  0.00    -0.092 NA
ATOM     29  N   UNL     1      26.002  38.700  16.578  1.00  0.00     0.001 N 
ATOM     30  N   UNL     1      25.431  38.028  15.714  1.00  0.00    -0.003 NA
ENDBRANCH  27  28
ENDBRANCH  26  27
ENDBRANCH  25  26
ENDBRANCH  19  25
BRANCH  20  31
ATOM     31  O   UNL     1      31.573  39.841  12.526  1.00  0.00    -0.387 OA
ATOM     32  H   UNL     1      32.307  40.106  13.163  1.00  0.00     0.211 HD
ENDBRANCH  20  31
BRANCH  21  33
ATOM     33  O   UNL     1      31.545  38.797  15.199  1.00  0.00    -0.385 OA
ATOM     34  H   UNL     1      32.444  38.873  14.792  1.00  0.00     0.211 HD
ENDBRANCH  21  33
ENDBRANCH  15  16
ENDBRANCH  10  15
BRANCH  12  35
ATOM     35  O   UNL     1      29.748  42.436   9.194  1.00  0.00    -0.385 OA
ATOM     36  H   UNL     1      29.795  42.335   8.217  1.00  0.00     0.211 HD
ENDBRANCH  12  35
BRANCH  13  37
ATOM     37  O   UNL     1      32.660  40.853   9.684  1.00  0.00    -0.387 OA
ATOM     38  H   UNL     1      33.115  41.720   9.712  1.00  0.00     0.211 HD
ENDBRANCH  13  37
BRANCH  14  39
ATOM     39  O   UNL     1      32.387  38.971   8.007  1.00  0.00    -0.387 OA
ATOM     40  H   UNL     1      33.041  39.652   7.708  1.00  0.00     0.211 HD
ENDBRANCH  14  39
ENDBRANCH   8   9
ENDBRANCH   7   8
ENDBRANCH   1   7
BRANCH   1  41
ATOM     41  C   UNL     1      28.264  34.478   8.766  1.00  0.00     0.364 C 
ATOM     42  O   UNL     1      29.191  33.721   9.061  1.00  0.00    -0.246 OA
BRANCH  41  43
ATOM     43  O   UNL     1      26.944  34.192   9.015  1.00  0.00    -0.477 OA
ATOM     44  H   UNL     1      26.654  33.647   9.839  1.00  0.00     0.296 HD
ENDBRANCH  41  43
ENDBRANCH   1  41
BRANCH   3  45
ATOM     45  O   UNL     1      29.176  37.063   4.926  1.00  0.00    -0.391 OA
ATOM     46  H   UNL     1      28.990  37.151   3.964  1.00  0.00     0.211 HD
ENDBRANCH   3  45
BRANCH   5  47
ATOM     47  C   UNL     1      25.659  38.067   8.245  1.00  0.00     0.176 C 
BRANCH  47  48
ATOM     48  O   UNL     1      26.338  39.178   8.640  1.00  0.00    -0.388 OA
ATOM     49  H   UNL     1      26.171  39.346   9.596  1.00  0.00     0.211 HD
ENDBRANCH  47  48
BRANCH  47  50
ATOM     50  C   UNL     1      24.344  38.131   7.655  1.00  0.00     0.165 C 
BRANCH  50  51
ATOM     51  O   UNL     1      24.058  39.294   6.889  1.00  0.00    -0.388 OA
ATOM     52  H   UNL     1      24.536  39.174   6.045  1.00  0.00     0.211 HD
ENDBRANCH  50  51
BRANCH  50  53
ATOM     53  C   UNL     1      23.091  37.847   8.373  1.00  0.00     0.154 C 
BRANCH  53  54
ATOM     54  N   UNL     1      23.109  36.994   9.473  1.00  0.00    -0.319 N 
ATOM     55  C   UNL     1      22.530  35.720   9.561  1.00  0.00     0.407 C 
ATOM     56  H   UNL     1      23.617  37.333  10.361  1.00  0.00     0.167 HD
ATOM     57  O   UNL     1      21.932  35.200   8.605  1.00  0.00    -0.225 OA
BRANCH  55  58
ATOM     58  O   UNL     1      22.628  35.001  10.775  1.00  0.00    -0.443 OA
BRANCH  58  59
ATOM     59  C   UNL     1      22.986  35.724  11.925  1.00  0.00     0.294 C 
BRANCH  59  60
ATOM     60  C   UNL     1      24.384  35.405  12.303  1.00  0.00     0.121 A 
ATOM     61  C   UNL     1      24.931  35.162  13.549  1.00  0.00     0.144 A 
ATOM     62  N   UNL     1      25.394  35.280  11.421  1.00  0.00    -0.131 NA
ATOM     63  N   UNL     1      26.232  34.903  13.374  1.00  0.00    -0.220 N 
ATOM     64  N   UNL     1      26.491  34.982  12.065  1.00  0.00    -0.062 NA
BRANCH  63  65
ATOM     65  C   UNL     1      27.264  34.582  14.294  1.00  0.00     0.067 A 
ATOM     66  C   UNL     1      28.558  34.317  13.936  1.00  0.00     0.032 A 
ATOM     67  C   UNL     1      26.954  34.519  15.651  1.00  0.00     0.032 A 
ATOM     68  C   UNL     1      29.516  33.998  14.887  1.00  0.00     0.048 A 
ATOM     69  C   UNL     1      27.908  34.201  16.598  1.00  0.00     0.048 A 
ATOM     70  C   UNL     1      29.210  33.934  16.235  1.00  0.00     0.119 A 
BRANCH  70  71
ATOM     71  O   UNL     1      30.193  33.609  17.190  1.00  0.00    -0.497 OA
ATOM     72  C   UNL     1      30.384  32.215  17.475  1.00  0.00     0.278 C 
ENDBRANCH  70  71
ENDBRANCH  63  65
ENDBRANCH  59  60
ENDBRANCH  58  59
ENDBRANCH  55  58
ENDBRANCH  53  54
ENDBRANCH  50  53
ENDBRANCH  47  50
ENDBRANCH   5  47
BRANCH   4  73
ATOM     73  N   UNL     1      26.842  38.635   5.563  1.00  0.00    -0.348 N 
ATOM     74  C   UNL     1      27.510  39.805   5.119  1.00  0.00     0.217 C 
ATOM     75  H   UNL     1      25.904  38.414   5.186  1.00  0.00     0.163 HD
ATOM     76  C   UNL     1      26.847  40.725   4.158  1.00  0.00     0.114 C 
ATOM     77  O   UNL     1      28.666  40.117   5.507  1.00  0.00    -0.275 OA
ENDBRANCH   4  73
TORSDOF 31
BEGIN_RES LYS A 131
REMARK  4 active torsions:
REMARK  status: ('A' for Active; 'I' for Inactive)
REMARK    1  A    between atoms: CA   and  CB  
REMARK    2  A    between atoms: CB   and  CG  
REMARK    3  A    between atoms: CG   and  CD  
REMARK    4  A    between atoms: CD   and  CE  
ROOT
ATOM      1  CA  LYS A 131      29.867  25.555  16.977  1.00 20.52     0.186 C 
ENDROOT
BRANCH   1   2
ATOM      2  CB  LYS A 131      28.345  25.722  17.026  1.00 20.94     0.034 C 
BRANCH   2   3
ATOM      3  CG  LYS A 131      27.600  24.410  16.835  1.00 22.96     0.005 C 
BRANCH   3   4
ATOM      4  CD  LYS A 131      26.534  24.207  17.875  1.00 24.33     0.041 C 
BRANCH   4   5
ATOM      5  CE  LYS A 131      25.186  24.004  17.190  1.00 26.91     0.338 C 
ATOM      6  NZ  LYS A 131      24.653  22.652  17.484  1.00 27.40     0.618 N 
ENDBRANCH   4   5
ENDBRANCH   3   4
ENDBRANCH   2   3
ENDBRANCH   1   2
END_RES LYS A 131
BEGIN_RES LYS A 135
REMARK  4 active torsions:
REMARK  status: ('A' for Active; 'I' for Inactive)
REMARK    5  A    between atoms: CA   and  CB  
REMARK    6  A    between atoms: CB   and  CG  
REMARK    7  A    between atoms: CG   and  CD  
REMARK    8  A    between atoms: CD   and  CE  
ROOT
ATOM      7  CA  LYS A 135      33.193  34.663   9.290  1.00 25.02     0.186 C 
ENDROOT
BRANCH   7   8
ATOM      8  CB  LYS A 135      32.060  35.360  10.034  1.00 26.63     0.034 C 
BRANCH   8   9
ATOM      9  CG  LYS A 135      32.511  36.085  11.276  1.00 29.45     0.005 C 
BRANCH   9  10
ATOM     10  CD  LYS A 135      31.771  35.566  12.499  1.00 32.00     0.041 C 
BRANCH  10  11
ATOM     11  CE  LYS A 135      32.689  35.537  13.705  1.00 34.25     0.338 C 
ATOM     12  NZ  LYS A 135      33.904  34.720  13.435  1.00 35.99     0.618 N 
ENDBRANCH  10  11
ENDBRANCH   9  10
ENDBRANCH   8   9
ENDBRANCH   7   8
END_RES LYS A 135
