REMARK VINA RESULT:    -4.648      7.028     13.708
REMARK INTER + INTRA:         -23.457
REMARK INTER:                 -13.099
REMARK INTRA:                 -10.357
REMARK UNBOUND:               -10.521
REMARK SMILES CC(=O)N[C@@H]1[C@@H](O)C[C@](OC[C@H]2O[C@@H](O[C@H]3[C@H](O)[C@@H](O)[C@H](OCCN=[N+]=[N-])O[C@@H]3CO)[C@H](O)[C@@H](O)[C@H]2O)(C(=O)O)O[C@H]1C(O)[C@H](O)CNC(=O)OCc1cn(CCCCCC(=O)O)nn1
REMARK SMILES IDX 47 1 45 2 43 3 42 4 9 5 8 6 41 7 6 8 5 9 10 10 11 11 12 12
REMARK SMILES IDX 14 13 13 14 32 15 34 16 36 17 15 18 16 19 29 20 28 21 21 22
REMARK SMILES IDX 17 23 19 24 30 25 31 26 22 28 23 29 24 30 25 31 26 32 27 33
REMARK SMILES IDX 18 34 20 36 33 38 35 40 37 42 38 44 39 45 40 46 7 48 4 50
REMARK SMILES IDX 2 51 1 53 3 54 44 55 46 57 48 59 49 60 50 62 51 63 52 64
REMARK SMILES IDX 53 65 54 66 65 67 55 68 64 69 56 70 57 71 58 72 59 73 60 74
REMARK SMILES IDX 61 75 62 76 63 77
REMARK H PARENT 31 27 18 35 20 37 33 39 35 41 37 43 40 47 7 49 4 52 44 56
REMARK H PARENT 46 58 48 61 63 78
REMARK Flexibility Score: inf
ROOT
ATOM      1  C   UNL     1      21.318  36.910   9.922  1.00  0.00     0.154 C 
ENDROOT
BRANCH   1   2
ATOM      2  C   UNL     1      21.094  36.864   8.430  1.00  0.00     0.165 C 
BRANCH   2   3
ATOM      3  C   UNL     1      22.443  36.881   7.789  1.00  0.00     0.176 C 
BRANCH   3   4
ATOM      4  C   UNL     1      23.281  38.083   8.056  1.00  0.00     0.178 C 
ATOM      5  C   UNL     1      23.529  40.293   7.694  1.00  0.00     0.272 C 
ATOM      6  C   UNL     1      24.412  40.201   8.896  1.00  0.00     0.113 C 
ATOM      7  O   UNL     1      23.195  39.083   7.101  1.00  0.00    -0.332 OA
ATOM      8  C   UNL     1      25.272  39.003   9.030  1.00  0.00     0.145 C 
ATOM      9  C   UNL     1      24.760  37.808   8.215  1.00  0.00     0.142 C 
BRANCH   5  10
ATOM     10  O   UNL     1      23.990  41.216   6.757  1.00  0.00    -0.338 OA
BRANCH  10  11
ATOM     11  C   UNL     1      24.894  42.136   7.180  1.00  0.00     0.199 C 
BRANCH  11  12
ATOM     12  C   UNL     1      26.091  42.029   6.253  1.00  0.00     0.179 C 
ATOM     13  C   UNL     1      28.314  42.036   6.006  1.00  0.00     0.282 C 
ATOM     14  O   UNL     1      27.262  41.644   6.886  1.00  0.00    -0.341 OA
ATOM     15  C   UNL     1      28.007  41.901   4.583  1.00  0.00     0.202 C 
ATOM     16  C   UNL     1      26.861  41.004   4.206  1.00  0.00     0.179 C 
ATOM     17  C   UNL     1      25.791  40.919   5.261  1.00  0.00     0.177 C 
BRANCH  13  18
ATOM     18  O   UNL     1      29.525  41.539   6.479  1.00  0.00    -0.341 OA
BRANCH  18  19
ATOM     19  C   UNL     1      29.442  40.665   7.498  1.00  0.00     0.184 C 
ATOM     20  C   UNL     1      30.512  40.855   8.530  1.00  0.00     0.178 C 
ATOM     21  O   UNL     1      30.053  40.166   9.672  1.00  0.00    -0.341 OA
ATOM     22  C   UNL     1      30.062  38.828   9.472  1.00  0.00     0.281 C 
ATOM     23  C   UNL     1      29.724  39.210   6.988  1.00  0.00     0.180 C 
ATOM     24  C   UNL     1      30.396  38.424   8.085  1.00  0.00     0.202 C 
BRANCH  20  25
ATOM     25  C   UNL     1      30.721  42.289   8.938  1.00  0.00     0.191 C 
BRANCH  25  26
ATOM     26  O   UNL     1      32.042  42.656   8.794  1.00  0.00    -0.394 OA
ATOM     27  H   UNL     1      32.301  42.481   7.851  1.00  0.00     0.210 HD
ENDBRANCH  25  26
ENDBRANCH  20  25
BRANCH  22  28
ATOM     28  O   UNL     1      28.893  38.189   9.905  1.00  0.00    -0.350 OA
BRANCH  28  29
ATOM     29  C   UNL     1      28.780  38.157  11.272  1.00  0.00     0.169 C 
BRANCH  29  30
ATOM     30  C   UNL     1      27.526  37.389  11.663  1.00  0.00     0.119 C 
BRANCH  30  31
ATOM     31  N   UNL     1      26.635  38.223  12.453  1.00  0.00    -0.092 NA
ATOM     32  N   UNL     1      26.418  37.932  13.645  1.00  0.00     0.001 N 
ATOM     33  N   UNL     1      25.814  37.484  14.621  1.00  0.00    -0.003 NA
ENDBRANCH  30  31
ENDBRANCH  29  30
ENDBRANCH  28  29
ENDBRANCH  22  28
BRANCH  23  34
ATOM     34  O   UNL     1      28.501  38.596   6.719  1.00  0.00    -0.387 OA
ATOM     35  H   UNL     1      28.215  38.843   5.792  1.00  0.00     0.211 HD
ENDBRANCH  23  34
BRANCH  24  36
ATOM     36  O   UNL     1      31.765  38.237   7.857  1.00  0.00    -0.385 OA
ATOM     37  H   UNL     1      32.146  37.518   8.421  1.00  0.00     0.211 HD
ENDBRANCH  24  36
ENDBRANCH  18  19
ENDBRANCH  13  18
BRANCH  15  38
ATOM     38  O   UNL     1      27.703  43.159   3.986  1.00  0.00    -0.385 OA
ATOM     39  H   UNL     1      26.991  43.604   4.479  1.00  0.00     0.211 HD
ENDBRANCH  15  38
BRANCH  16  40
ATOM     40  O   UNL     1      27.273  39.687   3.937  1.00  0.00    -0.387 OA
ATOM     41  H   UNL     1      27.772  39.287   4.671  1.00  0.00     0.211 HD
ENDBRANCH  16  40
BRANCH  17  42
ATOM     42  O   UNL     1      25.947  39.706   5.980  1.00  0.00    -0.387 OA
ATOM     43  H   UNL     1      26.653  39.907   6.672  1.00  0.00     0.211 HD
ENDBRANCH  17  42
ENDBRANCH  11  12
ENDBRANCH  10  11
ENDBRANCH   5  10
BRANCH   5  44
ATOM     44  C   UNL     1      22.232  40.854   8.167  1.00  0.00     0.364 C 
ATOM     45  O   UNL     1      22.118  41.311   9.326  1.00  0.00    -0.246 OA
BRANCH  44  46
ATOM     46  O   UNL     1      21.143  40.875   7.332  1.00  0.00    -0.477 OA
ATOM     47  H   UNL     1      20.239  40.433   7.570  1.00  0.00     0.296 HD
ENDBRANCH  44  46
ENDBRANCH   5  44
BRANCH   8  48
ATOM     48  O   UNL     1      26.634  39.220   8.839  1.00  0.00    -0.391 OA
ATOM     49  H   UNL     1      26.841  39.018   7.899  1.00  0.00     0.211 HD
ENDBRANCH   8  48
BRANCH   9  50
ATOM     50  N   UNL     1      25.078  36.570   8.837  1.00  0.00    -0.348 N 
ATOM     51  C   UNL     1      26.235  35.860   8.435  1.00  0.00     0.217 C 
ATOM     52  H   UNL     1      24.483  36.179   9.580  1.00  0.00     0.163 HD
ATOM     53  C   UNL     1      26.593  34.566   9.072  1.00  0.00     0.114 C 
ATOM     54  O   UNL     1      27.007  36.289   7.528  1.00  0.00    -0.275 OA
ENDBRANCH   9  50
ENDBRANCH   3   4
BRANCH   3  55
ATOM     55  O   UNL     1      22.345  36.699   6.391  1.00  0.00    -0.388 OA
ATOM     56  H   UNL     1      23.037  36.069   6.087  1.00  0.00     0.211 HD
ENDBRANCH   3  55
ENDBRANCH   2   3
BRANCH   2  57
ATOM     57  O   UNL     1      20.363  37.990   8.070  1.00  0.00    -0.388 OA
ATOM     58  H   UNL     1      21.009  38.735   7.976  1.00  0.00     0.211 HD
ENDBRANCH   2  57
ENDBRANCH   1   2
BRANCH   1  59
ATOM     59  N   UNL     1      21.898  35.724  10.467  1.00  0.00    -0.319 N 
ATOM     60  C   UNL     1      23.064  35.855  11.287  1.00  0.00     0.407 C 
ATOM     61  H   UNL     1      21.516  34.781  10.297  1.00  0.00     0.167 HD
ATOM     62  O   UNL     1      23.558  36.987  11.517  1.00  0.00    -0.225 OA
BRANCH  60  63
ATOM     63  O   UNL     1      23.687  34.764  11.847  1.00  0.00    -0.443 OA
BRANCH  63  64
ATOM     64  C   UNL     1      24.976  34.761  12.352  1.00  0.00     0.294 C 
BRANCH  64  65
ATOM     65  C   UNL     1      25.276  33.778  13.400  1.00  0.00     0.120 A 
ATOM     66  C   UNL     1      26.259  33.844  14.353  1.00  0.00     0.138 A 
ATOM     67  N   UNL     1      24.623  32.609  13.589  1.00  0.00    -0.132 NA
ATOM     68  N   UNL     1      26.184  32.734  15.089  1.00  0.00    -0.252 N 
ATOM     69  N   UNL     1      25.192  32.016  14.603  1.00  0.00    -0.067 NA
BRANCH  68  70
ATOM     70  C   UNL     1      27.040  32.400  16.219  1.00  0.00     0.146 C 
BRANCH  70  71
ATOM     71  C   UNL     1      28.472  32.798  15.861  1.00  0.00     0.024 C 
BRANCH  71  72
ATOM     72  C   UNL     1      29.375  31.601  15.811  1.00  0.00     0.002 C 
BRANCH  72  73
ATOM     73  C   UNL     1      30.730  32.005  15.305  1.00  0.00     0.012 C 
BRANCH  73  74
ATOM     74  C   UNL     1      31.459  32.922  16.229  1.00  0.00     0.122 C 
BRANCH  74  75
ATOM     75  C   UNL     1      31.972  34.095  15.466  1.00  0.00     0.303 C 
ATOM     76  O   UNL     1      31.554  35.243  15.732  1.00  0.00    -0.252 OA
BRANCH  75  77
ATOM     77  O   UNL     1      32.914  33.936  14.455  1.00  0.00    -0.481 OA
ATOM     78  H   UNL     1      33.556  33.142  14.484  1.00  0.00     0.296 HD
ENDBRANCH  75  77
ENDBRANCH  74  75
ENDBRANCH  73  74
ENDBRANCH  72  73
ENDBRANCH  71  72
ENDBRANCH  70  71
ENDBRANCH  68  70
ENDBRANCH  64  65
ENDBRANCH  63  64
ENDBRANCH  60  63
ENDBRANCH   1  59
TORSDOF 36
BEGIN_RES LYS A 131
REMARK  4 active torsions:
REMARK  status: ('A' for Active; 'I' for Inactive)
REMARK    1  A    between atoms: CA   and  CB  
REMARK    2  A    between atoms: CB   and  CG  
REMARK    3  A    between atoms: CG   and  CD  
REMARK    4  A    between atoms: CD   and  CE  
ROOT
ATOM      1  CA  LYS A 131      29.867  25.555  16.977  1.00 20.52     0.186 C 
ENDROOT
BRANCH   1   2
ATOM      2  CB  LYS A 131      28.345  25.722  17.026  1.00 20.94     0.034 C 
BRANCH   2   3
ATOM      3  CG  LYS A 131      27.601  24.402  16.896  1.00 22.96     0.005 C 
BRANCH   3   4
ATOM      4  CD  LYS A 131      26.544  24.240  17.953  1.00 24.33     0.041 C 
BRANCH   4   5
ATOM      5  CE  LYS A 131      25.207  24.738  17.416  1.00 26.91     0.338 C 
ATOM      6  NZ  LYS A 131      24.372  23.599  16.965  1.00 27.40     0.618 N 
ENDBRANCH   4   5
ENDBRANCH   3   4
ENDBRANCH   2   3
ENDBRANCH   1   2
END_RES LYS A 131
BEGIN_RES LYS A 135
REMARK  4 active torsions:
REMARK  status: ('A' for Active; 'I' for Inactive)
REMARK    5  A    between atoms: CA   and  CB  
REMARK    6  A    between atoms: CB   and  CG  
REMARK    7  A    between atoms: CG   and  CD  
REMARK    8  A    between atoms: CD   and  CE  
ROOT
ATOM      7  CA  LYS A 135      33.193  34.663   9.290  1.00 25.02     0.186 C 
ENDROOT
BRANCH   7   8
ATOM      8  CB  LYS A 135      32.060  35.360  10.034  1.00 26.63     0.034 C 
BRANCH   8   9
ATOM      9  CG  LYS A 135      30.693  35.042   9.485  1.00 29.45     0.005 C 
BRANCH   9  10
ATOM     10  CD  LYS A 135      29.750  34.624  10.602  1.00 32.00     0.041 C 
BRANCH  10  11
ATOM     11  CE  LYS A 135      30.391  34.859  11.957  1.00 34.25     0.338 C 
ATOM     12  NZ  LYS A 135      29.422  34.611  13.060  1.00 35.99     0.618 N 
ENDBRANCH  10  11
ENDBRANCH   9  10
ENDBRANCH   8   9
ENDBRANCH   7   8
END_RES LYS A 135
