REMARK VINA RESULT:    -3.937      6.308     12.507
REMARK INTER + INTRA:         -21.583
REMARK INTER:                 -10.612
REMARK INTRA:                 -10.971
REMARK UNBOUND:               -10.971
REMARK SMILES C=CCCCCn1cc(COC(=O)NC[C@@H](O)C(O)[C@@H]2O[C@@](OC[C@H]3O[C@@H](O[C@H]4[C@H](O)[C@@H](O)[C@H](OCCN=[N+]=[N-])O[C@@H]4CO)[C@H](O)[C@@H](O)[C@H]3O)(C(=O)O)C[C@H](O)[C@H]2NC(C)=O)nn1
REMARK SMILES IDX 18 1 20 2 22 3 54 4 21 5 55 6 57 7 23 8 24 9 25 10 27 11
REMARK SMILES IDX 26 12 45 13 47 14 49 15 28 16 29 17 42 18 41 19 34 20 30 21
REMARK SMILES IDX 32 22 43 23 44 24 35 26 36 27 37 28 38 29 39 30 40 31 31 32
REMARK SMILES IDX 33 34 46 36 48 38 50 40 51 42 52 43 53 44 56 46 58 48 59 49
REMARK SMILES IDX 60 51 61 52 19 53 16 55 17 56 15 58 14 59 12 60 13 62 11 63
REMARK SMILES IDX 10 64 9 65 8 66 62 67 7 68 63 69 6 70 5 71 4 72 3 73 2 74
REMARK SMILES IDX 1 75
REMARK H PARENT 44 25 31 33 33 35 46 37 48 39 50 41 53 45 56 47 58 50 19 54
REMARK H PARENT 17 57 14 61
REMARK Flexibility Score: inf
ROOT
ATOM      1  C   UNL     1      28.189  37.163  12.402  1.00  0.00     0.176 C 
ENDROOT
BRANCH   1   2
ATOM      2  C   UNL     1      29.515  37.713  11.869  1.00  0.00     0.178 C 
ATOM      3  C   UNL     1      30.471  38.561   9.957  1.00  0.00     0.272 C 
ATOM      4  C   UNL     1      31.721  37.840  10.246  1.00  0.00     0.113 C 
ATOM      5  O   UNL     1      29.402  37.769  10.526  1.00  0.00    -0.332 OA
ATOM      6  C   UNL     1      31.982  37.552  11.660  1.00  0.00     0.145 C 
ATOM      7  C   UNL     1      30.746  37.261  12.494  1.00  0.00     0.142 C 
BRANCH   3   8
ATOM      8  O   UNL     1      30.093  38.524   8.624  1.00  0.00    -0.338 OA
BRANCH   8   9
ATOM      9  C   UNL     1      29.811  39.601   7.918  1.00  0.00     0.199 C 
BRANCH   9  10
ATOM     10  C   UNL     1      28.533  39.745   7.185  1.00  0.00     0.179 C 
ATOM     11  C   UNL     1      26.360  38.871   7.191  1.00  0.00     0.282 C 
ATOM     12  O   UNL     1      27.683  38.645   7.451  1.00  0.00    -0.341 OA
ATOM     13  C   UNL     1      26.096  40.035   6.318  1.00  0.00     0.202 C 
ATOM     14  C   UNL     1      26.741  41.317   6.769  1.00  0.00     0.179 C 
ATOM     15  C   UNL     1      27.832  40.980   7.738  1.00  0.00     0.177 C 
BRANCH  11  16
ATOM     16  O   UNL     1      25.677  38.781   8.374  1.00  0.00    -0.341 OA
BRANCH  16  17
ATOM     17  C   UNL     1      24.331  38.990   8.334  1.00  0.00     0.184 C 
ATOM     18  C   UNL     1      23.803  39.074   9.747  1.00  0.00     0.178 C 
ATOM     19  O   UNL     1      22.561  38.428   9.860  1.00  0.00    -0.341 OA
ATOM     20  C   UNL     1      22.813  37.060   9.895  1.00  0.00     0.281 C 
ATOM     21  C   UNL     1      23.596  37.792   7.690  1.00  0.00     0.180 C 
ATOM     22  C   UNL     1      23.555  36.635   8.663  1.00  0.00     0.202 C 
BRANCH  18  23
ATOM     23  C   UNL     1      23.710  40.500  10.262  1.00  0.00     0.191 C 
BRANCH  23  24
ATOM     24  O   UNL     1      24.927  41.148  10.144  1.00  0.00    -0.394 OA
ATOM     25  H   UNL     1      24.789  42.114  10.288  1.00  0.00     0.210 HD
ENDBRANCH  23  24
ENDBRANCH  18  23
BRANCH  20  26
ATOM     26  O   UNL     1      21.571  36.427   9.964  1.00  0.00    -0.350 OA
BRANCH  26  27
ATOM     27  C   UNL     1      21.487  35.285   9.189  1.00  0.00     0.169 C 
BRANCH  27  28
ATOM     28  C   UNL     1      20.098  35.254   8.578  1.00  0.00     0.119 C 
BRANCH  28  29
ATOM     29  N   UNL     1      19.964  36.199   7.502  1.00  0.00    -0.092 NA
ATOM     30  N   UNL     1      19.050  37.014   7.474  1.00  0.00     0.001 N 
ATOM     31  N   UNL     1      18.204  37.889   7.656  1.00  0.00    -0.003 NA
ENDBRANCH  28  29
ENDBRANCH  27  28
ENDBRANCH  26  27
ENDBRANCH  20  26
BRANCH  21  32
ATOM     32  O   UNL     1      22.283  38.216   7.493  1.00  0.00    -0.387 OA
ATOM     33  H   UNL     1      21.939  38.053   6.591  1.00  0.00     0.211 HD
ENDBRANCH  21  32
BRANCH  22  34
ATOM     34  O   UNL     1      24.840  36.168   8.921  1.00  0.00    -0.385 OA
ATOM     35  H   UNL     1      25.470  36.909   8.706  1.00  0.00     0.211 HD
ENDBRANCH  22  34
ENDBRANCH  16  17
ENDBRANCH  11  16
BRANCH  13  36
ATOM     36  O   UNL     1      26.596  39.731   5.044  1.00  0.00    -0.385 OA
ATOM     37  H   UNL     1      25.894  39.487   4.415  1.00  0.00     0.211 HD
ENDBRANCH  13  36
BRANCH  14  38
ATOM     38  O   UNL     1      25.818  42.205   7.326  1.00  0.00    -0.387 OA
ATOM     39  H   UNL     1      24.928  41.893   7.067  1.00  0.00     0.211 HD
ENDBRANCH  14  38
BRANCH  15  40
ATOM     40  O   UNL     1      27.341  40.733   9.026  1.00  0.00    -0.387 OA
ATOM     41  H   UNL     1      27.988  40.294   9.607  1.00  0.00     0.211 HD
ENDBRANCH  15  40
ENDBRANCH   9  10
ENDBRANCH   8   9
ENDBRANCH   3   8
BRANCH   3  42
ATOM     42  C   UNL     1      30.384  39.842  10.645  1.00  0.00     0.364 C 
ATOM     43  O   UNL     1      31.409  40.512  10.898  1.00  0.00    -0.246 OA
BRANCH  42  44
ATOM     44  O   UNL     1      29.197  40.372  11.057  1.00  0.00    -0.477 OA
ATOM     45  H   UNL     1      29.144  41.214  11.602  1.00  0.00     0.296 HD
ENDBRANCH  42  44
ENDBRANCH   3  42
BRANCH   6  46
ATOM     46  O   UNL     1      32.882  36.460  11.742  1.00  0.00    -0.391 OA
ATOM     47  H   UNL     1      33.719  36.708  12.208  1.00  0.00     0.211 HD
ENDBRANCH   6  46
BRANCH   7  48
ATOM     48  N   UNL     1      30.904  37.907  13.811  1.00  0.00    -0.348 N 
ATOM     49  C   UNL     1      31.631  37.327  14.876  1.00  0.00     0.217 C 
ATOM     50  H   UNL     1      30.470  38.847  14.022  1.00  0.00     0.163 HD
ATOM     51  C   UNL     1      31.748  38.034  16.205  1.00  0.00     0.114 C 
ATOM     52  O   UNL     1      32.178  36.209  14.698  1.00  0.00    -0.275 OA
ENDBRANCH   7  48
ENDBRANCH   1   2
BRANCH   1  53
ATOM     53  O   UNL     1      27.960  37.979  13.631  1.00  0.00    -0.388 OA
ATOM     54  H   UNL     1      27.626  38.830  13.200  1.00  0.00     0.211 HD
ENDBRANCH   1  53
BRANCH   1  55
ATOM     55  C   UNL     1      27.001  37.507  11.621  1.00  0.00     0.165 C 
BRANCH  55  56
ATOM     56  O   UNL     1      26.969  38.824  11.109  1.00  0.00    -0.388 OA
ATOM     57  H   UNL     1      27.047  39.408  11.903  1.00  0.00     0.211 HD
ENDBRANCH  55  56
BRANCH  55  58
ATOM     58  C   UNL     1      25.666  37.145  12.119  1.00  0.00     0.154 C 
BRANCH  58  59
ATOM     59  N   UNL     1      25.604  36.029  12.982  1.00  0.00    -0.319 N 
ATOM     60  C   UNL     1      24.621  35.599  13.880  1.00  0.00     0.407 C 
ATOM     61  H   UNL     1      26.477  35.377  12.946  1.00  0.00     0.167 HD
ATOM     62  O   UNL     1      23.568  36.239  14.038  1.00  0.00    -0.225 OA
BRANCH  60  63
ATOM     63  O   UNL     1      24.783  34.430  14.637  1.00  0.00    -0.443 OA
BRANCH  63  64
ATOM     64  C   UNL     1      25.987  33.681  14.462  1.00  0.00     0.294 C 
BRANCH  64  65
ATOM     65  C   UNL     1      27.081  34.244  15.295  1.00  0.00     0.120 A 
ATOM     66  C   UNL     1      27.400  33.812  16.581  1.00  0.00     0.138 A 
ATOM     67  N   UNL     1      27.945  35.231  15.015  1.00  0.00    -0.132 NA
ATOM     68  N   UNL     1      28.429  34.550  17.007  1.00  0.00    -0.252 N 
ATOM     69  N   UNL     1      28.753  35.400  16.067  1.00  0.00    -0.067 NA
BRANCH  68  70
ATOM     70  C   UNL     1      29.052  34.386  18.328  1.00  0.00     0.146 C 
BRANCH  70  71
ATOM     71  C   UNL     1      30.528  34.654  18.205  1.00  0.00     0.024 C 
BRANCH  71  72
ATOM     72  C   UNL     1      31.219  33.357  17.842  1.00  0.00     0.006 C 
BRANCH  72  73
ATOM     73  C   UNL     1      31.615  33.378  16.384  1.00  0.00     0.027 C 
BRANCH  73  74
ATOM     74  C   UNL     1      31.185  32.142  15.691  1.00  0.00    -0.035 C 
ATOM     75  C   UNL     1      30.216  31.400  16.189  1.00  0.00     0.004 C 
ENDBRANCH  73  74
ENDBRANCH  72  73
ENDBRANCH  71  72
ENDBRANCH  70  71
ENDBRANCH  68  70
ENDBRANCH  64  65
ENDBRANCH  63  64
ENDBRANCH  60  63
ENDBRANCH  58  59
ENDBRANCH  55  58
ENDBRANCH   1  55
TORSDOF 34
BEGIN_RES LYS A 131
REMARK  4 active torsions:
REMARK  status: ('A' for Active; 'I' for Inactive)
REMARK    1  A    between atoms: CA   and  CB  
REMARK    2  A    between atoms: CB   and  CG  
REMARK    3  A    between atoms: CG   and  CD  
REMARK    4  A    between atoms: CD   and  CE  
ROOT
ATOM      1  CA  LYS A 131      29.867  25.555  16.977  1.00 20.52     0.186 C 
ENDROOT
BRANCH   1   2
ATOM      2  CB  LYS A 131      28.345  25.722  17.026  1.00 20.94     0.034 C 
BRANCH   2   3
ATOM      3  CG  LYS A 131      27.601  24.402  16.890  1.00 22.96     0.005 C 
BRANCH   3   4
ATOM      4  CD  LYS A 131      26.152  24.527  17.270  1.00 24.33     0.041 C 
BRANCH   4   5
ATOM      5  CE  LYS A 131      25.634  23.176  17.754  1.00 26.91     0.338 C 
ATOM      6  NZ  LYS A 131      25.517  23.164  19.231  1.00 27.40     0.618 N 
ENDBRANCH   4   5
ENDBRANCH   3   4
ENDBRANCH   2   3
ENDBRANCH   1   2
END_RES LYS A 131
BEGIN_RES LYS A 135
REMARK  4 active torsions:
REMARK  status: ('A' for Active; 'I' for Inactive)
REMARK    5  A    between atoms: CA   and  CB  
REMARK    6  A    between atoms: CB   and  CG  
REMARK    7  A    between atoms: CG   and  CD  
REMARK    8  A    between atoms: CD   and  CE  
ROOT
ATOM      7  CA  LYS A 135      33.193  34.663   9.290  1.00 25.02     0.186 C 
ENDROOT
BRANCH   7   8
ATOM      8  CB  LYS A 135      32.060  35.360  10.034  1.00 26.63     0.034 C 
BRANCH   8   9
ATOM      9  CG  LYS A 135      30.735  34.653   9.912  1.00 29.45     0.005 C 
BRANCH   9  10
ATOM     10  CD  LYS A 135      30.322  34.535   8.453  1.00 32.00     0.041 C 
BRANCH  10  11
ATOM     11  CE  LYS A 135      28.811  34.559   8.324  1.00 34.25     0.338 C 
ATOM     12  NZ  LYS A 135      28.165  33.819   9.443  1.00 35.99     0.618 N 
ENDBRANCH  10  11
ENDBRANCH   9  10
ENDBRANCH   8   9
ENDBRANCH   7   8
END_RES LYS A 135
