REMARK VINA RESULT:    -4.111      6.713     12.693
REMARK INTER + INTRA:         -22.053
REMARK INTER:                 -11.068
REMARK INTRA:                 -10.985
REMARK UNBOUND:               -10.971
REMARK SMILES C=CCCCCn1cc(COC(=O)NC[C@@H](O)C(O)[C@@H]2O[C@@](OC[C@H]3O[C@@H](O[C@H]4[C@H](O)[C@@H](O)[C@H](OCCN=[N+]=[N-])O[C@@H]4CO)[C@H](O)[C@@H](O)[C@H]3O)(C(=O)O)C[C@H](O)[C@H]2NC(C)=O)nn1
REMARK SMILES IDX 18 1 20 2 22 3 54 4 21 5 55 6 57 7 23 8 24 9 25 10 27 11
REMARK SMILES IDX 26 12 45 13 47 14 49 15 28 16 29 17 42 18 41 19 34 20 30 21
REMARK SMILES IDX 32 22 43 23 44 24 35 26 36 27 37 28 38 29 39 30 40 31 31 32
REMARK SMILES IDX 33 34 46 36 48 38 50 40 51 42 52 43 53 44 56 46 58 48 59 49
REMARK SMILES IDX 60 51 61 52 19 53 16 55 17 56 15 58 14 59 12 60 13 62 11 63
REMARK SMILES IDX 10 64 9 65 8 66 62 67 7 68 63 69 6 70 5 71 4 72 3 73 2 74
REMARK SMILES IDX 1 75
REMARK H PARENT 44 25 31 33 33 35 46 37 48 39 50 41 53 45 56 47 58 50 19 54
REMARK H PARENT 17 57 14 61
REMARK Flexibility Score: inf
ROOT
ATOM      1  C   UNL     1      27.752  36.271  12.043  1.00  0.00     0.176 C 
ENDROOT
BRANCH   1   2
ATOM      2  C   UNL     1      28.820  37.368  12.047  1.00  0.00     0.178 C 
ATOM      3  C   UNL     1      30.279  38.460  10.644  1.00  0.00     0.272 C 
ATOM      4  C   UNL     1      31.309  38.463  11.695  1.00  0.00     0.113 C 
ATOM      5  O   UNL     1      29.471  37.281  10.868  1.00  0.00    -0.332 OA
ATOM      6  C   UNL     1      30.816  38.425  13.075  1.00  0.00     0.145 C 
ATOM      7  C   UNL     1      29.546  37.615  13.280  1.00  0.00     0.142 C 
BRANCH   3   8
ATOM      8  O   UNL     1      30.764  38.163   9.379  1.00  0.00    -0.338 OA
BRANCH   8   9
ATOM      9  C   UNL     1      30.683  38.992   8.357  1.00  0.00     0.199 C 
BRANCH   9  10
ATOM     10  C   UNL     1      29.735  38.772   7.243  1.00  0.00     0.179 C 
ATOM     11  C   UNL     1      27.452  38.383   6.887  1.00  0.00     0.282 C 
ATOM     12  O   UNL     1      28.521  38.227   7.726  1.00  0.00    -0.341 OA
ATOM     13  C   UNL     1      27.811  38.710   5.490  1.00  0.00     0.202 C 
ATOM     14  C   UNL     1      28.738  39.886   5.339  1.00  0.00     0.179 C 
ATOM     15  C   UNL     1      29.397  40.139   6.661  1.00  0.00     0.177 C 
BRANCH  11  16
ATOM     16  O   UNL     1      26.531  39.173   7.522  1.00  0.00    -0.341 OA
BRANCH  16  17
ATOM     17  C   UNL     1      25.256  39.154   7.040  1.00  0.00     0.184 C 
ATOM     18  C   UNL     1      24.634  40.516   7.238  1.00  0.00     0.178 C 
ATOM     19  O   UNL     1      23.288  40.404   7.623  1.00  0.00    -0.341 OA
ATOM     20  C   UNL     1      23.276  40.057   8.970  1.00  0.00     0.281 C 
ATOM     21  C   UNL     1      24.368  38.175   7.843  1.00  0.00     0.180 C 
ATOM     22  C   UNL     1      24.028  38.778   9.186  1.00  0.00     0.202 C 
BRANCH  18  23
ATOM     23  C   UNL     1      24.766  41.411   6.017  1.00  0.00     0.191 C 
BRANCH  23  24
ATOM     24  O   UNL     1      25.233  40.696   4.928  1.00  0.00    -0.394 OA
ATOM     25  H   UNL     1      25.120  39.733   5.107  1.00  0.00     0.210 HD
ENDBRANCH  23  24
ENDBRANCH  18  23
BRANCH  20  26
ATOM     26  O   UNL     1      21.937  39.907   9.332  1.00  0.00    -0.350 OA
BRANCH  26  27
ATOM     27  C   UNL     1      21.748  39.100  10.438  1.00  0.00     0.169 C 
BRANCH  27  28
ATOM     28  C   UNL     1      20.569  38.191  10.140  1.00  0.00     0.119 C 
BRANCH  28  29
ATOM     29  N   UNL     1      20.878  36.810  10.396  1.00  0.00    -0.092 NA
ATOM     30  N   UNL     1      21.448  36.115   9.564  1.00  0.00     0.001 N 
ATOM     31  N   UNL     1      22.176  35.584   8.725  1.00  0.00    -0.003 NA
ENDBRANCH  28  29
ENDBRANCH  27  28
ENDBRANCH  26  27
ENDBRANCH  20  26
BRANCH  21  32
ATOM     32  O   UNL     1      23.180  38.066   7.123  1.00  0.00    -0.387 OA
ATOM     33  H   UNL     1      23.303  37.967   6.157  1.00  0.00     0.211 HD
ENDBRANCH  21  32
BRANCH  22  34
ATOM     34  O   UNL     1      25.176  38.932   9.958  1.00  0.00    -0.385 OA
ATOM     35  H   UNL     1      25.000  38.494  10.835  1.00  0.00     0.211 HD
ENDBRANCH  22  34
ENDBRANCH  16  17
ENDBRANCH  11  16
BRANCH  13  36
ATOM     36  O   UNL     1      28.450  37.589   4.943  1.00  0.00    -0.385 OA
ATOM     37  H   UNL     1      29.409  37.723   4.832  1.00  0.00     0.211 HD
ENDBRANCH  13  36
BRANCH  14  38
ATOM     38  O   UNL     1      28.078  41.023   4.871  1.00  0.00    -0.387 OA
ATOM     39  H   UNL     1      27.181  40.742   4.596  1.00  0.00     0.211 HD
ENDBRANCH  14  38
BRANCH  15  40
ATOM     40  O   UNL     1      28.572  40.857   7.536  1.00  0.00    -0.387 OA
ATOM     41  H   UNL     1      27.852  41.334   7.082  1.00  0.00     0.211 HD
ENDBRANCH  15  40
ENDBRANCH   9  10
ENDBRANCH   8   9
ENDBRANCH   3   8
BRANCH   3  42
ATOM     42  C   UNL     1      29.345  39.572  10.762  1.00  0.00     0.364 C 
ATOM     43  O   UNL     1      29.671  40.631  11.342  1.00  0.00    -0.246 OA
BRANCH  42  44
ATOM     44  O   UNL     1      28.078  39.519  10.264  1.00  0.00    -0.477 OA
ATOM     45  H   UNL     1      27.568  38.658  10.182  1.00  0.00     0.296 HD
ENDBRANCH  42  44
ENDBRANCH   3  42
BRANCH   6  46
ATOM     46  O   UNL     1      31.843  37.920  13.911  1.00  0.00    -0.391 OA
ATOM     47  H   UNL     1      32.532  37.434  13.392  1.00  0.00     0.211 HD
ENDBRANCH   6  46
BRANCH   7  48
ATOM     48  N   UNL     1      28.679  38.332  14.235  1.00  0.00    -0.348 N 
ATOM     49  C   UNL     1      28.884  38.311  15.634  1.00  0.00     0.217 C 
ATOM     50  H   UNL     1      27.850  38.902  13.910  1.00  0.00     0.163 HD
ATOM     51  C   UNL     1      27.954  39.058  16.560  1.00  0.00     0.114 C 
ATOM     52  O   UNL     1      29.853  37.657  16.094  1.00  0.00    -0.275 OA
ENDBRANCH   7  48
ENDBRANCH   1   2
BRANCH   1  53
ATOM     53  O   UNL     1      26.592  36.934  12.712  1.00  0.00    -0.388 OA
ATOM     54  H   UNL     1      25.861  36.291  12.441  1.00  0.00     0.211 HD
ENDBRANCH   1  53
BRANCH   1  55
ATOM     55  C   UNL     1      27.170  35.957  10.739  1.00  0.00     0.165 C 
BRANCH  55  56
ATOM     56  O   UNL     1      27.095  37.037   9.830  1.00  0.00    -0.388 OA
ATOM     57  H   UNL     1      26.249  36.896   9.336  1.00  0.00     0.211 HD
ENDBRANCH  55  56
BRANCH  55  58
ATOM     58  C   UNL     1      25.934  35.164  10.658  1.00  0.00     0.154 C 
BRANCH  58  59
ATOM     59  N   UNL     1      25.777  34.155  11.633  1.00  0.00    -0.319 N 
ATOM     60  C   UNL     1      24.650  33.694  12.324  1.00  0.00     0.407 C 
ATOM     61  H   UNL     1      26.695  33.633  11.901  1.00  0.00     0.167 HD
ATOM     62  O   UNL     1      23.528  34.193  12.132  1.00  0.00    -0.225 OA
BRANCH  60  63
ATOM     63  O   UNL     1      24.741  32.653  13.257  1.00  0.00    -0.443 OA
BRANCH  63  64
ATOM     64  C   UNL     1      24.750  32.995  14.644  1.00  0.00     0.294 C 
BRANCH  64  65
ATOM     65  C   UNL     1      25.957  33.793  14.979  1.00  0.00     0.120 A 
ATOM     66  C   UNL     1      27.188  33.251  15.347  1.00  0.00     0.138 A 
ATOM     67  N   UNL     1      26.122  35.124  15.004  1.00  0.00    -0.132 NA
ATOM     68  N   UNL     1      28.023  34.271  15.572  1.00  0.00    -0.252 N 
ATOM     69  N   UNL     1      27.380  35.391  15.366  1.00  0.00    -0.067 NA
BRANCH  68  70
ATOM     70  C   UNL     1      29.423  34.097  15.982  1.00  0.00     0.146 C 
BRANCH  70  71
ATOM     71  C   UNL     1      30.056  33.043  15.113  1.00  0.00     0.024 C 
BRANCH  71  72
ATOM     72  C   UNL     1      31.533  32.981  15.439  1.00  0.00     0.006 C 
BRANCH  72  73
ATOM     73  C   UNL     1      32.205  34.268  15.018  1.00  0.00     0.027 C 
BRANCH  73  74
ATOM     74  C   UNL     1      32.789  34.976  16.179  1.00  0.00    -0.035 C 
ATOM     75  C   UNL     1      33.785  35.824  16.012  1.00  0.00     0.004 C 
ENDBRANCH  73  74
ENDBRANCH  72  73
ENDBRANCH  71  72
ENDBRANCH  70  71
ENDBRANCH  68  70
ENDBRANCH  64  65
ENDBRANCH  63  64
ENDBRANCH  60  63
ENDBRANCH  58  59
ENDBRANCH  55  58
ENDBRANCH   1  55
TORSDOF 34
BEGIN_RES LYS A 131
REMARK  4 active torsions:
REMARK  status: ('A' for Active; 'I' for Inactive)
REMARK    1  A    between atoms: CA   and  CB  
REMARK    2  A    between atoms: CB   and  CG  
REMARK    3  A    between atoms: CG   and  CD  
REMARK    4  A    between atoms: CD   and  CE  
ROOT
ATOM      1  CA  LYS A 131      29.867  25.555  16.977  1.00 20.52     0.186 C 
ENDROOT
BRANCH   1   2
ATOM      2  CB  LYS A 131      28.345  25.722  17.026  1.00 20.94     0.034 C 
BRANCH   2   3
ATOM      3  CG  LYS A 131      27.599  24.442  16.684  1.00 22.96     0.005 C 
BRANCH   3   4
ATOM      4  CD  LYS A 131      27.006  23.789  17.902  1.00 24.33     0.041 C 
BRANCH   4   5
ATOM      5  CE  LYS A 131      25.616  23.257  17.569  1.00 26.91     0.338 C 
ATOM      6  NZ  LYS A 131      24.785  24.322  16.958  1.00 27.40     0.618 N 
ENDBRANCH   4   5
ENDBRANCH   3   4
ENDBRANCH   2   3
ENDBRANCH   1   2
END_RES LYS A 131
BEGIN_RES LYS A 135
REMARK  4 active torsions:
REMARK  status: ('A' for Active; 'I' for Inactive)
REMARK    5  A    between atoms: CA   and  CB  
REMARK    6  A    between atoms: CB   and  CG  
REMARK    7  A    between atoms: CG   and  CD  
REMARK    8  A    between atoms: CD   and  CE  
ROOT
ATOM      7  CA  LYS A 135      33.193  34.663   9.290  1.00 25.02     0.186 C 
ENDROOT
BRANCH   7   8
ATOM      8  CB  LYS A 135      32.060  35.360  10.034  1.00 26.63     0.034 C 
BRANCH   8   9
ATOM      9  CG  LYS A 135      30.876  34.467  10.302  1.00 29.45     0.005 C 
BRANCH   9  10
ATOM     10  CD  LYS A 135      30.296  33.939   8.999  1.00 32.00     0.041 C 
BRANCH  10  11
ATOM     11  CE  LYS A 135      29.874  35.086   8.101  1.00 34.25     0.338 C 
ATOM     12  NZ  LYS A 135      28.497  34.877   7.575  1.00 35.99     0.618 N 
ENDBRANCH  10  11
ENDBRANCH   9  10
ENDBRANCH   8   9
ENDBRANCH   7   8
END_RES LYS A 135
