REMARK VINA RESULT:    -4.389      2.638      7.416
REMARK INTER + INTRA:         -22.383
REMARK INTER:                 -11.747
REMARK INTRA:                 -10.636
REMARK UNBOUND:               -10.809
REMARK SMILES COc1ccc(Cn2cc(COC(=O)NC[C@@H](O)C(O)[C@@H]3O[C@@](OC[C@H]4O[C@@H](O[C@H]5[C@H](O)[C@@H](O)[C@H](OCCN=[N+]=[N-])O[C@@H]5CO)[C@H](O)[C@@H](O)[C@H]4O)(C(=O)O)C[C@H](O)[C@H]3NC(C)=O)nn2)cc1OC
REMARK SMILES IDX 23 1 55 2 56 3 58 4 21 5 22 6 24 7 25 8 26 9 28 10 27 11
REMARK SMILES IDX 46 12 48 13 50 14 29 15 30 16 43 17 42 18 35 19 31 20 33 21
REMARK SMILES IDX 44 22 45 23 36 25 37 26 38 27 39 28 40 29 41 30 32 31 34 33
REMARK SMILES IDX 47 35 49 37 51 39 52 41 53 42 54 43 57 45 19 47 20 48 17 50
REMARK SMILES IDX 18 51 16 53 15 54 13 55 14 57 12 58 11 59 10 60 9 61 63 62
REMARK SMILES IDX 8 63 64 64 7 65 6 66 65 67 5 68 66 69 4 70 3 71 67 72 68 73
REMARK SMILES IDX 2 74 1 75 59 76 60 77 61 79 62 80
REMARK H PARENT 45 24 32 32 34 34 47 36 49 38 51 40 54 44 57 46 20 49 18 52
REMARK H PARENT 15 56 59 78
REMARK Flexibility Score: inf
ROOT
ATOM      1  C   UNL     1      28.857  33.241  15.610  1.00  0.00     0.272 C 
ATOM      2  C   UNL     1      29.832  32.091  15.432  1.00  0.00     0.113 C 
ATOM      3  C   UNL     1      30.016  31.135  16.555  1.00  0.00     0.145 C 
ATOM      4  C   UNL     1      29.582  31.790  17.863  1.00  0.00     0.142 C 
ATOM      5  C   UNL     1      29.874  33.228  17.696  1.00  0.00     0.178 C 
ATOM      6  O   UNL     1      28.902  33.805  16.901  1.00  0.00    -0.332 OA
ENDROOT
BRANCH   1   7
ATOM      7  O   UNL     1      27.606  32.662  15.440  1.00  0.00    -0.338 OA
BRANCH   7   8
ATOM      8  C   UNL     1      26.658  32.926  16.380  1.00  0.00     0.199 C 
BRANCH   8   9
ATOM      9  C   UNL     1      25.319  32.381  15.966  1.00  0.00     0.179 C 
ATOM     10  C   UNL     1      23.817  32.124  14.280  1.00  0.00     0.282 C 
ATOM     11  O   UNL     1      25.230  32.261  14.567  1.00  0.00    -0.341 OA
ATOM     12  C   UNL     1      23.363  30.797  14.679  1.00  0.00     0.202 C 
ATOM     13  C   UNL     1      23.872  30.393  16.053  1.00  0.00     0.179 C 
ATOM     14  C   UNL     1      25.196  30.924  16.437  1.00  0.00     0.177 C 
BRANCH  10  15
ATOM     15  O   UNL     1      23.671  32.423  12.941  1.00  0.00    -0.341 OA
BRANCH  15  16
ATOM     16  C   UNL     1      23.629  33.805  12.755  1.00  0.00     0.184 C 
ATOM     17  C   UNL     1      22.400  34.274  12.083  1.00  0.00     0.178 C 
ATOM     18  O   UNL     1      22.344  35.660  12.206  1.00  0.00    -0.341 OA
ATOM     19  C   UNL     1      23.548  36.258  12.098  1.00  0.00     0.281 C 
ATOM     20  C   UNL     1      24.855  34.177  11.913  1.00  0.00     0.180 C 
ATOM     21  C   UNL     1      24.573  35.535  11.254  1.00  0.00     0.202 C 
BRANCH  17  22
ATOM     22  C   UNL     1      21.145  33.620  12.612  1.00  0.00     0.191 C 
BRANCH  22  23
ATOM     23  O   UNL     1      21.113  32.334  12.073  1.00  0.00    -0.394 OA
ATOM     24  H   UNL     1      22.043  31.957  12.082  1.00  0.00     0.210 HD
ENDBRANCH  22  23
ENDBRANCH  17  22
BRANCH  19  25
ATOM     25  O   UNL     1      24.126  36.338  13.416  1.00  0.00    -0.350 OA
BRANCH  25  26
ATOM     26  C   UNL     1      24.774  37.587  13.496  1.00  0.00     0.169 C 
BRANCH  26  27
ATOM     27  C   UNL     1      24.605  38.251  14.851  1.00  0.00     0.119 C 
BRANCH  27  28
ATOM     28  N   UNL     1      24.629  37.239  15.871  1.00  0.00    -0.092 NA
ATOM     29  N   UNL     1      25.674  36.887  16.425  1.00  0.00     0.001 N 
ATOM     30  N   UNL     1      26.872  36.629  16.659  1.00  0.00    -0.003 NA
ENDBRANCH  27  28
ENDBRANCH  26  27
ENDBRANCH  25  26
ENDBRANCH  19  25
BRANCH  20  31
ATOM     31  O   UNL     1      25.914  34.361  12.787  1.00  0.00    -0.387 OA
ATOM     32  H   UNL     1      26.374  33.476  12.905  1.00  0.00     0.211 HD
ENDBRANCH  20  31
BRANCH  21  33
ATOM     33  O   UNL     1      24.063  35.304   9.998  1.00  0.00    -0.385 OA
ATOM     34  H   UNL     1      24.461  35.906   9.311  1.00  0.00     0.211 HD
ENDBRANCH  21  33
ENDBRANCH  15  16
ENDBRANCH  10  15
BRANCH  12  35
ATOM     35  O   UNL     1      21.982  30.724  14.748  1.00  0.00    -0.385 OA
ATOM     36  H   UNL     1      21.613  30.013  14.148  1.00  0.00     0.211 HD
ENDBRANCH  12  35
BRANCH  13  37
ATOM     37  O   UNL     1      23.855  28.973  16.108  1.00  0.00    -0.387 OA
ATOM     38  H   UNL     1      24.267  28.721  16.975  1.00  0.00     0.211 HD
ENDBRANCH  13  37
BRANCH  14  39
ATOM     39  O   UNL     1      26.241  30.236  15.781  1.00  0.00    -0.387 OA
ATOM     40  H   UNL     1      25.874  29.666  15.022  1.00  0.00     0.211 HD
ENDBRANCH  14  39
ENDBRANCH   8   9
ENDBRANCH   7   8
ENDBRANCH   1   7
BRANCH   1  41
ATOM     41  C   UNL     1      29.208  34.299  14.628  1.00  0.00     0.364 C 
ATOM     42  O   UNL     1      29.820  34.041  13.589  1.00  0.00    -0.246 OA
BRANCH  41  43
ATOM     43  O   UNL     1      28.879  35.670  14.803  1.00  0.00    -0.477 OA
ATOM     44  H   UNL     1      29.658  36.342  14.615  1.00  0.00     0.296 HD
ENDBRANCH  41  43
ENDBRANCH   1  41
BRANCH   3  45
ATOM     45  O   UNL     1      29.276  29.990  16.377  1.00  0.00    -0.391 OA
ATOM     46  H   UNL     1      28.571  30.138  15.683  1.00  0.00     0.211 HD
ENDBRANCH   3  45
BRANCH   5  47
ATOM     47  C   UNL     1      30.230  33.923  18.928  1.00  0.00     0.176 C 
BRANCH  47  48
ATOM     48  O   UNL     1      31.507  33.690  19.425  1.00  0.00    -0.388 OA
ATOM     49  H   UNL     1      31.710  34.109  20.268  1.00  0.00     0.211 HD
ENDBRANCH  47  48
BRANCH  47  50
ATOM     50  C   UNL     1      30.432  35.490  18.556  1.00  0.00     0.165 C 
BRANCH  50  51
ATOM     51  O   UNL     1      29.214  36.049  18.529  1.00  0.00    -0.388 OA
ATOM     52  H   UNL     1      29.149  36.888  19.074  1.00  0.00     0.211 HD
ENDBRANCH  50  51
BRANCH  50  53
ATOM     53  C   UNL     1      31.399  35.630  17.494  1.00  0.00     0.154 C 
BRANCH  53  54
ATOM     54  N   UNL     1      31.342  36.613  16.464  1.00  0.00    -0.319 N 
ATOM     55  C   UNL     1      32.140  36.371  15.318  1.00  0.00     0.407 C 
ATOM     56  H   UNL     1      30.803  37.475  16.472  1.00  0.00     0.167 HD
ATOM     57  O   UNL     1      32.869  35.326  15.245  1.00  0.00    -0.225 OA
BRANCH  55  58
ATOM     58  O   UNL     1      32.218  37.197  14.202  1.00  0.00    -0.443 OA
BRANCH  58  59
ATOM     59  C   UNL     1      32.091  36.534  12.898  1.00  0.00     0.294 C 
BRANCH  59  60
ATOM     60  C   UNL     1      30.973  37.288  12.261  1.00  0.00     0.120 A 
ATOM     61  C   UNL     1      31.128  38.235  11.221  1.00  0.00     0.138 A 
ATOM     62  N   UNL     1      29.671  37.161  12.486  1.00  0.00    -0.132 NA
ATOM     63  N   UNL     1      29.871  38.612  10.887  1.00  0.00    -0.248 N 
ATOM     64  N   UNL     1      29.029  37.983  11.629  1.00  0.00    -0.067 NA
BRANCH  63  65
ATOM     65  C   UNL     1      29.553  39.557   9.782  1.00  0.00     0.181 C 
BRANCH  65  66
ATOM     66  C   UNL     1      28.301  38.937   9.160  1.00  0.00    -0.023 A 
ATOM     67  C   UNL     1      28.369  37.955   8.196  1.00  0.00     0.056 A 
ATOM     68  C   UNL     1      27.103  39.303   9.684  1.00  0.00     0.010 A 
ATOM     69  C   UNL     1      27.121  37.380   7.822  1.00  0.00     0.161 A 
ATOM     70  C   UNL     1      25.861  38.713   9.294  1.00  0.00     0.051 A 
ATOM     71  C   UNL     1      25.942  37.734   8.340  1.00  0.00     0.160 A 
BRANCH  69  72
ATOM     72  O   UNL     1      27.121  36.384   6.844  1.00  0.00    -0.493 OA
ATOM     73  C   UNL     1      28.324  35.720   6.442  1.00  0.00     0.278 C 
ENDBRANCH  69  72
BRANCH  71  74
ATOM     74  O   UNL     1      24.762  37.066   7.907  1.00  0.00    -0.493 OA
ATOM     75  C   UNL     1      23.591  37.866   7.639  1.00  0.00     0.278 C 
ENDBRANCH  71  74
ENDBRANCH  65  66
ENDBRANCH  63  65
ENDBRANCH  59  60
ENDBRANCH  58  59
ENDBRANCH  55  58
ENDBRANCH  53  54
ENDBRANCH  50  53
ENDBRANCH  47  50
ENDBRANCH   5  47
BRANCH   4  76
ATOM     76  N   UNL     1      30.275  31.146  18.946  1.00  0.00    -0.348 N 
ATOM     77  C   UNL     1      29.630  30.142  19.676  1.00  0.00     0.217 C 
ATOM     78  H   UNL     1      31.270  31.374  19.221  1.00  0.00     0.163 HD
ATOM     79  C   UNL     1      30.198  29.396  20.841  1.00  0.00     0.114 C 
ATOM     80  O   UNL     1      28.425  29.746  19.401  1.00  0.00    -0.275 OA
ENDBRANCH   4  76
TORSDOF 33
BEGIN_RES LYS A 131
REMARK  4 active torsions:
REMARK  status: ('A' for Active; 'I' for Inactive)
REMARK    1  A    between atoms: CA   and  CB  
REMARK    2  A    between atoms: CB   and  CG  
REMARK    3  A    between atoms: CG   and  CD  
REMARK    4  A    between atoms: CD   and  CE  
ROOT
ATOM      1  CA  LYS A 131      29.867  25.555  16.977  1.00 20.52     0.186 C 
ENDROOT
BRANCH   1   2
ATOM      2  CB  LYS A 131      28.345  25.722  17.026  1.00 20.94     0.034 C 
BRANCH   2   3
ATOM      3  CG  LYS A 131      27.601  24.401  16.903  1.00 22.96     0.005 C 
BRANCH   3   4
ATOM      4  CD  LYS A 131      26.527  24.256  17.945  1.00 24.33     0.041 C 
BRANCH   4   5
ATOM      5  CE  LYS A 131      25.188  23.998  17.263  1.00 26.91     0.338 C 
ATOM      6  NZ  LYS A 131      24.753  22.599  17.486  1.00 27.40     0.618 N 
ENDBRANCH   4   5
ENDBRANCH   3   4
ENDBRANCH   2   3
ENDBRANCH   1   2
END_RES LYS A 131
BEGIN_RES LYS A 135
REMARK  4 active torsions:
REMARK  status: ('A' for Active; 'I' for Inactive)
REMARK    5  A    between atoms: CA   and  CB  
REMARK    6  A    between atoms: CB   and  CG  
REMARK    7  A    between atoms: CG   and  CD  
REMARK    8  A    between atoms: CD   and  CE  
ROOT
ATOM      7  CA  LYS A 135      33.193  34.663   9.290  1.00 25.02     0.186 C 
ENDROOT
BRANCH   7   8
ATOM      8  CB  LYS A 135      32.060  35.360  10.034  1.00 26.63     0.034 C 
BRANCH   8   9
ATOM      9  CG  LYS A 135      30.748  35.337   9.293  1.00 29.45     0.005 C 
BRANCH   9  10
ATOM     10  CD  LYS A 135      29.879  34.186   9.776  1.00 32.00     0.041 C 
BRANCH  10  11
ATOM     11  CE  LYS A 135      28.478  34.674  10.093  1.00 34.25     0.338 C 
ATOM     12  NZ  LYS A 135      27.451  33.820   9.433  1.00 35.99     0.618 N 
ENDBRANCH  10  11
ENDBRANCH   9  10
ENDBRANCH   8   9
ENDBRANCH   7   8
END_RES LYS A 135
