REMARK VINA RESULT:    -5.269      2.465      7.352
REMARK INTER + INTRA:         -21.076
REMARK INTER:                 -11.407
REMARK INTRA:                  -9.668
REMARK UNBOUND:                -8.107
REMARK SMILES CC(=O)N[C@@H]1[C@@H](O)C[C@](OC[C@H]2O[C@@H](O[C@H]3[C@H](O)[C@@H](O)[C@H](OCCN=[N+]=[N-])O[C@@H]3CO)[C@H](O)[C@@H](O)[C@H]2O)(C(=O)O)O[C@H]1C(O)[C@H](O)CNC(=O)OCc1cn(C2CCN(C)CC2)nn1
REMARK SMILES IDX 9 1 8 2 6 3 5 4 42 5 41 6 10 7 11 8 12 9 14 10 13 11 32 12
REMARK SMILES IDX 34 13 36 14 15 15 16 16 29 17 28 18 21 19 17 20 19 21 30 22
REMARK SMILES IDX 31 23 22 25 23 26 24 27 25 28 26 29 27 30 18 31 20 33 33 35
REMARK SMILES IDX 35 37 37 39 38 41 39 42 40 43 7 45 43 47 44 48 45 50 46 51
REMARK SMILES IDX 47 53 48 54 49 55 50 57 51 58 52 59 53 60 54 61 64 62 55 63
REMARK SMILES IDX 63 64 56 65 57 66 62 67 58 68 61 69 59 70 60 71 4 72 2 73
REMARK SMILES IDX 1 75 3 76
REMARK H PARENT 31 24 18 32 20 34 33 36 35 38 37 40 40 44 7 46 44 49 46 52
REMARK H PARENT 48 56 4 74
REMARK Flexibility Score: inf
ROOT
ATOM      1  C   UNL     1      24.284  37.258   9.230  1.00  0.00     0.272 C 
ATOM      2  C   UNL     1      24.316  37.804  10.646  1.00  0.00     0.113 C 
ATOM      3  C   UNL     1      23.133  38.564  11.081  1.00  0.00     0.145 C 
ATOM      4  C   UNL     1      21.810  38.011  10.599  1.00  0.00     0.142 C 
ATOM      5  C   UNL     1      21.931  37.147   9.404  1.00  0.00     0.178 C 
ATOM      6  O   UNL     1      23.065  36.511   9.134  1.00  0.00    -0.332 OA
ENDROOT
BRANCH   1   7
ATOM      7  O   UNL     1      25.216  36.299   9.124  1.00  0.00    -0.338 OA
BRANCH   7   8
ATOM      8  C   UNL     1      26.423  36.280   8.671  1.00  0.00     0.199 C 
BRANCH   8   9
ATOM      9  C   UNL     1      27.045  35.111   7.971  1.00  0.00     0.179 C 
ATOM     10  C   UNL     1      29.066  35.859   6.944  1.00  0.00     0.282 C 
ATOM     11  O   UNL     1      27.735  35.616   6.904  1.00  0.00    -0.341 OA
ATOM     12  C   UNL     1      29.700  35.603   8.241  1.00  0.00     0.202 C 
ATOM     13  C   UNL     1      29.297  34.169   8.626  1.00  0.00     0.179 C 
ATOM     14  C   UNL     1      27.831  34.211   8.865  1.00  0.00     0.177 C 
BRANCH  10  15
ATOM     15  O   UNL     1      29.199  37.125   6.389  1.00  0.00    -0.341 OA
BRANCH  15  16
ATOM     16  C   UNL     1      29.039  38.177   7.193  1.00  0.00     0.184 C 
ATOM     17  C   UNL     1      28.083  39.164   6.618  1.00  0.00     0.178 C 
ATOM     18  O   UNL     1      27.635  40.001   7.646  1.00  0.00    -0.341 OA
ATOM     19  C   UNL     1      28.671  40.788   8.093  1.00  0.00     0.281 C 
ATOM     20  C   UNL     1      30.322  38.994   7.414  1.00  0.00     0.180 C 
ATOM     21  C   UNL     1      29.929  40.044   8.449  1.00  0.00     0.202 C 
BRANCH  17  22
ATOM     22  C   UNL     1      26.963  38.582   5.827  1.00  0.00     0.191 C 
BRANCH  22  23
ATOM     23  O   UNL     1      27.378  38.423   4.512  1.00  0.00    -0.394 OA
ATOM     24  H   UNL     1      27.642  37.488   4.316  1.00  0.00     0.210 HD
ENDBRANCH  22  23
ENDBRANCH  17  22
BRANCH  19  25
ATOM     25  O   UNL     1      28.229  41.386   9.281  1.00  0.00    -0.350 OA
BRANCH  25  26
ATOM     26  C   UNL     1      27.440  40.577  10.058  1.00  0.00     0.169 C 
BRANCH  26  27
ATOM     27  C   UNL     1      27.852  40.546  11.516  1.00  0.00     0.119 C 
BRANCH  27  28
ATOM     28  N   UNL     1      28.667  39.381  11.802  1.00  0.00    -0.092 NA
ATOM     29  N   UNL     1      28.257  38.247  11.563  1.00  0.00     0.001 N 
ATOM     30  N   UNL     1      27.833  37.116  11.810  1.00  0.00    -0.003 NA
ENDBRANCH  27  28
ENDBRANCH  26  27
ENDBRANCH  25  26
ENDBRANCH  19  25
BRANCH  20  31
ATOM     31  O   UNL     1      31.340  38.262   7.963  1.00  0.00    -0.387 OA
ATOM     32  H   UNL     1      31.296  37.343   7.621  1.00  0.00     0.211 HD
ENDBRANCH  20  31
BRANCH  21  33
ATOM     33  O   UNL     1      30.970  40.921   8.624  1.00  0.00    -0.385 OA
ATOM     34  H   UNL     1      30.713  41.731   9.093  1.00  0.00     0.211 HD
ENDBRANCH  21  33
ENDBRANCH  15  16
ENDBRANCH  10  15
BRANCH  12  35
ATOM     35  O   UNL     1      31.092  35.545   8.218  1.00  0.00    -0.385 OA
ATOM     36  H   UNL     1      31.475  36.449   8.340  1.00  0.00     0.211 HD
ENDBRANCH  12  35
BRANCH  13  37
ATOM     37  O   UNL     1      30.002  33.694   9.703  1.00  0.00    -0.387 OA
ATOM     38  H   UNL     1      30.966  33.825   9.514  1.00  0.00     0.211 HD
ENDBRANCH  13  37
BRANCH  14  39
ATOM     39  O   UNL     1      27.611  34.585  10.188  1.00  0.00    -0.387 OA
ATOM     40  H   UNL     1      27.524  35.559  10.306  1.00  0.00     0.211 HD
ENDBRANCH  14  39
ENDBRANCH   8   9
ENDBRANCH   7   8
ENDBRANCH   1   7
BRANCH   1  41
ATOM     41  C   UNL     1      24.216  38.370   8.294  1.00  0.00     0.364 C 
ATOM     42  O   UNL     1      23.617  38.149   7.163  1.00  0.00    -0.246 OA
BRANCH  41  43
ATOM     43  O   UNL     1      24.689  39.652   8.389  1.00  0.00    -0.477 OA
ATOM     44  H   UNL     1      25.609  39.900   8.751  1.00  0.00     0.296 HD
ENDBRANCH  41  43
ENDBRANCH   1  41
BRANCH   3  45
ATOM     45  O   UNL     1      23.113  38.600  12.507  1.00  0.00    -0.391 OA
ATOM     46  H   UNL     1      23.976  38.318  12.877  1.00  0.00     0.211 HD
ENDBRANCH   3  45
BRANCH   5  47
ATOM     47  C   UNL     1      20.799  36.083   9.379  1.00  0.00     0.176 C 
BRANCH  47  48
ATOM     48  O   UNL     1      21.354  34.826   9.579  1.00  0.00    -0.388 OA
ATOM     49  H   UNL     1      22.106  34.833  10.206  1.00  0.00     0.211 HD
ENDBRANCH  47  48
BRANCH  47  50
ATOM     50  C   UNL     1      20.047  36.157   8.130  1.00  0.00     0.165 C 
BRANCH  50  51
ATOM     51  O   UNL     1      20.999  36.561   7.115  1.00  0.00    -0.388 OA
ATOM     52  H   UNL     1      20.511  36.754   6.279  1.00  0.00     0.211 HD
ENDBRANCH  50  51
BRANCH  50  53
ATOM     53  C   UNL     1      18.881  37.038   7.999  1.00  0.00     0.154 C 
BRANCH  53  54
ATOM     54  N   UNL     1      18.943  38.318   7.430  1.00  0.00    -0.319 N 
ATOM     55  C   UNL     1      17.945  39.324   7.465  1.00  0.00     0.407 C 
ATOM     56  H   UNL     1      19.845  38.577   6.903  1.00  0.00     0.167 HD
ATOM     57  O   UNL     1      16.873  39.156   8.077  1.00  0.00    -0.225 OA
BRANCH  55  58
ATOM     58  O   UNL     1      18.192  40.536   6.782  1.00  0.00    -0.443 OA
BRANCH  58  59
ATOM     59  C   UNL     1      18.711  41.625   7.502  1.00  0.00     0.294 C 
BRANCH  59  60
ATOM     60  C   UNL     1      20.191  41.581   7.426  1.00  0.00     0.120 A 
ATOM     61  C   UNL     1      20.992  42.343   6.557  1.00  0.00     0.138 A 
ATOM     62  N   UNL     1      21.078  40.860   8.126  1.00  0.00    -0.132 NA
ATOM     63  N   UNL     1      22.288  42.056   6.767  1.00  0.00    -0.249 N 
ATOM     64  N   UNL     1      22.311  41.159   7.718  1.00  0.00    -0.067 NA
BRANCH  63  65
ATOM     65  C   UNL     1      23.418  42.631   6.075  1.00  0.00     0.111 C 
ATOM     66  C   UNL     1      24.043  43.647   6.988  1.00  0.00     0.043 C 
ATOM     67  C   UNL     1      24.445  41.598   5.703  1.00  0.00     0.043 C 
ATOM     68  C   UNL     1      25.299  43.066   7.594  1.00  0.00     0.086 C 
ATOM     69  C   UNL     1      25.801  42.187   5.420  1.00  0.00     0.086 C 
ATOM     70  N   UNL     1      26.300  42.971   6.531  1.00  0.00    -0.306 NA
ATOM     71  C   UNL     1      26.581  44.320   6.071  1.00  0.00     0.105 C 
ENDBRANCH  63  65
ENDBRANCH  59  60
ENDBRANCH  58  59
ENDBRANCH  55  58
ENDBRANCH  53  54
ENDBRANCH  50  53
ENDBRANCH  47  50
ENDBRANCH   5  47
BRANCH   4  72
ATOM     72  N   UNL     1      20.835  39.065  10.394  1.00  0.00    -0.348 N 
ATOM     73  C   UNL     1      19.673  39.098  11.198  1.00  0.00     0.217 C 
ATOM     74  H   UNL     1      20.960  39.810   9.666  1.00  0.00     0.163 HD
ATOM     75  C   UNL     1      18.634  40.163  11.026  1.00  0.00     0.114 C 
ATOM     76  O   UNL     1      19.495  38.209  12.092  1.00  0.00    -0.275 OA
ENDBRANCH   4  72
TORSDOF 30
BEGIN_RES LYS A 131
REMARK  4 active torsions:
REMARK  status: ('A' for Active; 'I' for Inactive)
REMARK    1  A    between atoms: CA   and  CB  
REMARK    2  A    between atoms: CB   and  CG  
REMARK    3  A    between atoms: CG   and  CD  
REMARK    4  A    between atoms: CD   and  CE  
ROOT
ATOM      1  CA  LYS A 131      29.867  25.555  16.977  1.00 20.52     0.186 C 
ENDROOT
BRANCH   1   2
ATOM      2  CB  LYS A 131      28.345  25.722  17.026  1.00 20.94     0.034 C 
BRANCH   2   3
ATOM      3  CG  LYS A 131      27.601  24.405  16.864  1.00 22.96     0.005 C 
BRANCH   3   4
ATOM      4  CD  LYS A 131      26.535  24.225  17.910  1.00 24.33     0.041 C 
BRANCH   4   5
ATOM      5  CE  LYS A 131      25.649  23.042  17.535  1.00 26.91     0.338 C 
ATOM      6  NZ  LYS A 131      24.306  23.512  17.120  1.00 27.40     0.618 N 
ENDBRANCH   4   5
ENDBRANCH   3   4
ENDBRANCH   2   3
ENDBRANCH   1   2
END_RES LYS A 131
BEGIN_RES LYS A 135
REMARK  4 active torsions:
REMARK  status: ('A' for Active; 'I' for Inactive)
REMARK    5  A    between atoms: CA   and  CB  
REMARK    6  A    between atoms: CB   and  CG  
REMARK    7  A    between atoms: CG   and  CD  
REMARK    8  A    between atoms: CD   and  CE  
ROOT
ATOM      7  CA  LYS A 135      33.193  34.663   9.290  1.00 25.02     0.186 C 
ENDROOT
BRANCH   7   8
ATOM      8  CB  LYS A 135      32.060  35.360  10.034  1.00 26.63     0.034 C 
BRANCH   8   9
ATOM      9  CG  LYS A 135      32.460  35.879  11.391  1.00 29.45     0.005 C 
BRANCH   9  10
ATOM     10  CD  LYS A 135      31.571  35.289  12.475  1.00 32.00     0.041 C 
BRANCH  10  11
ATOM     11  CE  LYS A 135      31.041  36.381  13.383  1.00 34.25     0.338 C 
ATOM     12  NZ  LYS A 135      31.554  37.717  12.971  1.00 35.99     0.618 N 
ENDBRANCH  10  11
ENDBRANCH   9  10
ENDBRANCH   8   9
ENDBRANCH   7   8
END_RES LYS A 135
