REMARK VINA RESULT:    -4.617      2.646      4.583
REMARK INTER + INTRA:         -21.905
REMARK INTER:                 -10.944
REMARK INTRA:                 -10.961
REMARK UNBOUND:               -10.541
REMARK SMILES CC(=O)N[C@@H]1[C@@H](O)C[C@](OC[C@H]2O[C@@H](O[C@H]3[C@H](O)[C@@H](O)[C@H](OCCN=[N+]=[N-])O[C@@H]3CO)[C@H](O)[C@@H](O)[C@H]2O)(C(=O)O)O[C@H]1C(O)[C@H](O)CNC(=O)OCc1cn(-c2ccccc2)nn1
REMARK SMILES IDX 9 1 8 2 6 3 5 4 42 5 41 6 10 7 11 8 12 9 14 10 13 11 32 12
REMARK SMILES IDX 34 13 36 14 15 15 16 16 29 17 28 18 21 19 17 20 19 21 30 22
REMARK SMILES IDX 31 23 22 25 23 26 24 27 25 28 26 29 27 30 18 31 20 33 33 35
REMARK SMILES IDX 35 37 37 39 38 41 39 42 40 43 7 45 43 47 44 48 45 50 46 51
REMARK SMILES IDX 47 53 48 54 49 55 50 57 51 58 52 59 53 60 54 61 63 62 55 63
REMARK SMILES IDX 62 64 56 65 57 66 61 67 58 68 60 69 59 70 4 71 2 72 1 74
REMARK SMILES IDX 3 75
REMARK H PARENT 31 24 18 32 20 34 33 36 35 38 37 40 40 44 7 46 44 49 46 52
REMARK H PARENT 48 56 4 73
REMARK Flexibility Score: inf
ROOT
ATOM      1  C   UNL     1      30.410  32.555  17.907  1.00  0.00     0.272 C 
ATOM      2  C   UNL     1      30.090  31.123  18.128  1.00  0.00     0.113 C 
ATOM      3  C   UNL     1      28.661  30.828  18.391  1.00  0.00     0.145 C 
ATOM      4  C   UNL     1      27.771  31.648  17.476  1.00  0.00     0.142 C 
ATOM      5  C   UNL     1      28.116  33.096  17.743  1.00  0.00     0.178 C 
ATOM      6  O   UNL     1      29.376  33.274  17.234  1.00  0.00    -0.332 OA
ENDROOT
BRANCH   1   7
ATOM      7  O   UNL     1      31.486  32.797  17.104  1.00  0.00    -0.338 OA
BRANCH   7   8
ATOM      8  C   UNL     1      31.485  32.676  15.790  1.00  0.00     0.199 C 
BRANCH   8   9
ATOM      9  C   UNL     1      31.916  33.753  14.872  1.00  0.00     0.179 C 
ATOM     10  C   UNL     1      30.961  35.344  13.457  1.00  0.00     0.282 C 
ATOM     11  O   UNL     1      30.719  34.173  14.208  1.00  0.00    -0.341 OA
ATOM     12  C   UNL     1      32.398  35.740  13.382  1.00  0.00     0.202 C 
ATOM     13  C   UNL     1      32.981  35.961  14.761  1.00  0.00     0.179 C 
ATOM     14  C   UNL     1      32.359  34.967  15.698  1.00  0.00     0.177 C 
BRANCH  10  15
ATOM     15  O   UNL     1      30.255  36.344  14.019  1.00  0.00    -0.341 OA
BRANCH  15  16
ATOM     16  C   UNL     1      29.937  37.465  13.346  1.00  0.00     0.184 C 
ATOM     17  C   UNL     1      28.889  38.336  13.999  1.00  0.00     0.178 C 
ATOM     18  O   UNL     1      28.311  39.083  12.954  1.00  0.00    -0.341 OA
ATOM     19  C   UNL     1      27.342  38.227  12.387  1.00  0.00     0.281 C 
ATOM     20  C   UNL     1      29.498  37.194  11.906  1.00  0.00     0.180 C 
ATOM     21  C   UNL     1      28.001  36.972  11.852  1.00  0.00     0.202 C 
BRANCH  17  22
ATOM     22  C   UNL     1      29.488  39.333  14.968  1.00  0.00     0.191 C 
BRANCH  22  23
ATOM     23  O   UNL     1      30.238  38.630  15.915  1.00  0.00    -0.394 OA
ATOM     24  H   UNL     1      30.054  38.964  16.848  1.00  0.00     0.210 HD
ENDBRANCH  22  23
ENDBRANCH  17  22
BRANCH  19  25
ATOM     25  O   UNL     1      26.652  38.825  11.377  1.00  0.00    -0.350 OA
BRANCH  25  26
ATOM     26  C   UNL     1      25.342  39.149  11.602  1.00  0.00     0.169 C 
BRANCH  26  27
ATOM     27  C   UNL     1      24.360  38.051  11.342  1.00  0.00     0.119 C 
BRANCH  27  28
ATOM     28  N   UNL     1      24.399  37.607   9.997  1.00  0.00    -0.092 NA
ATOM     29  N   UNL     1      23.797  36.583   9.623  1.00  0.00     0.001 N 
ATOM     30  N   UNL     1      23.436  35.401   9.507  1.00  0.00    -0.003 NA
ENDBRANCH  27  28
ENDBRANCH  26  27
ENDBRANCH  25  26
ENDBRANCH  19  25
BRANCH  20  31
ATOM     31  O   UNL     1      29.788  38.242  11.044  1.00  0.00    -0.387 OA
ATOM     32  H   UNL     1      30.140  37.916  10.180  1.00  0.00     0.211 HD
ENDBRANCH  20  31
BRANCH  21  33
ATOM     33  O   UNL     1      27.603  35.862  12.568  1.00  0.00    -0.385 OA
ATOM     34  H   UNL     1      26.848  36.034  13.176  1.00  0.00     0.211 HD
ENDBRANCH  21  33
ENDBRANCH  15  16
ENDBRANCH  10  15
BRANCH  12  35
ATOM     35  O   UNL     1      33.183  34.935  12.567  1.00  0.00    -0.385 OA
ATOM     36  H   UNL     1      33.372  34.100  13.069  1.00  0.00     0.211 HD
ENDBRANCH  12  35
BRANCH  13  37
ATOM     37  O   UNL     1      32.651  37.235  15.183  1.00  0.00    -0.387 OA
ATOM     38  H   UNL     1      32.129  37.263  16.024  1.00  0.00     0.211 HD
ENDBRANCH  13  37
BRANCH  14  39
ATOM     39  O   UNL     1      31.175  35.484  16.272  1.00  0.00    -0.387 OA
ATOM     40  H   UNL     1      30.399  35.320  15.697  1.00  0.00     0.211 HD
ENDBRANCH  14  39
ENDBRANCH   8   9
ENDBRANCH   7   8
ENDBRANCH   1   7
BRANCH   1  41
ATOM     41  C   UNL     1      30.474  33.262  19.206  1.00  0.00     0.364 C 
ATOM     42  O   UNL     1      30.551  32.657  20.275  1.00  0.00    -0.246 OA
BRANCH  41  43
ATOM     43  O   UNL     1      30.444  34.672  19.246  1.00  0.00    -0.477 OA
ATOM     44  H   UNL     1      30.294  35.174  18.373  1.00  0.00     0.296 HD
ENDBRANCH  41  43
ENDBRANCH   1  41
BRANCH   3  45
ATOM     45  O   UNL     1      28.430  29.463  18.239  1.00  0.00    -0.391 OA
ATOM     46  H   UNL     1      29.165  28.997  18.672  1.00  0.00     0.211 HD
ENDBRANCH   3  45
BRANCH   5  47
ATOM     47  C   UNL     1      27.198  34.033  16.966  1.00  0.00     0.176 C 
BRANCH  47  48
ATOM     48  O   UNL     1      26.103  34.289  17.745  1.00  0.00    -0.388 OA
ATOM     49  H   UNL     1      25.403  33.601  17.708  1.00  0.00     0.211 HD
ENDBRANCH  47  48
BRANCH  47  50
ATOM     50  C   UNL     1      27.826  35.256  16.441  1.00  0.00     0.165 C 
BRANCH  50  51
ATOM     51  O   UNL     1      28.537  35.839  17.537  1.00  0.00    -0.388 OA
ATOM     52  H   UNL     1      27.883  36.362  18.035  1.00  0.00     0.211 HD
ENDBRANCH  50  51
BRANCH  50  53
ATOM     53  C   UNL     1      26.784  36.332  16.089  1.00  0.00     0.154 C 
BRANCH  53  54
ATOM     54  N   UNL     1      25.936  35.925  14.998  1.00  0.00    -0.319 N 
ATOM     55  C   UNL     1      24.522  35.730  15.173  1.00  0.00     0.407 C 
ATOM     56  H   UNL     1      26.290  35.752  14.034  1.00  0.00     0.167 HD
ATOM     57  O   UNL     1      23.982  35.923  16.286  1.00  0.00    -0.225 OA
BRANCH  55  58
ATOM     58  O   UNL     1      23.723  35.329  14.118  1.00  0.00    -0.443 OA
BRANCH  58  59
ATOM     59  C   UNL     1      24.283  34.749  12.946  1.00  0.00     0.294 C 
BRANCH  59  60
ATOM     60  C   UNL     1      23.841  33.323  12.954  1.00  0.00     0.121 A 
ATOM     61  C   UNL     1      22.569  32.916  12.577  1.00  0.00     0.144 A 
ATOM     62  N   UNL     1      24.491  32.205  13.291  1.00  0.00    -0.131 NA
ATOM     63  N   UNL     1      22.484  31.565  12.695  1.00  0.00    -0.220 N 
ATOM     64  N   UNL     1      23.660  31.171  13.128  1.00  0.00    -0.062 NA
BRANCH  63  65
ATOM     65  C   UNL     1      21.353  30.756  12.414  1.00  0.00     0.066 A 
ATOM     66  C   UNL     1      20.095  31.294  12.272  1.00  0.00     0.028 A 
ATOM     67  C   UNL     1      21.500  29.395  12.267  1.00  0.00     0.028 A 
ATOM     68  C   UNL     1      18.991  30.515  11.991  1.00  0.00     0.002 A 
ATOM     69  C   UNL     1      20.388  28.616  11.985  1.00  0.00     0.002 A 
ATOM     70  C   UNL     1      19.124  29.134  11.841  1.00  0.00     0.000 A 
ENDBRANCH  63  65
ENDBRANCH  59  60
ENDBRANCH  58  59
ENDBRANCH  55  58
ENDBRANCH  53  54
ENDBRANCH  50  53
ENDBRANCH  47  50
ENDBRANCH   5  47
BRANCH   4  71
ATOM     71  N   UNL     1      26.403  31.291  17.601  1.00  0.00    -0.348 N 
ATOM     72  C   UNL     1      25.754  30.645  16.516  1.00  0.00     0.217 C 
ATOM     73  H   UNL     1      25.856  31.471  18.463  1.00  0.00     0.163 HD
ATOM     74  C   UNL     1      24.315  30.257  16.621  1.00  0.00     0.114 C 
ATOM     75  O   UNL     1      26.352  30.371  15.432  1.00  0.00    -0.275 OA
ENDBRANCH   4  71
TORSDOF 30
BEGIN_RES LYS A 131
REMARK  4 active torsions:
REMARK  status: ('A' for Active; 'I' for Inactive)
REMARK    1  A    between atoms: CA   and  CB  
REMARK    2  A    between atoms: CB   and  CG  
REMARK    3  A    between atoms: CG   and  CD  
REMARK    4  A    between atoms: CD   and  CE  
ROOT
ATOM      1  CA  LYS A 131      29.867  25.555  16.977  1.00 20.52     0.186 C 
ENDROOT
BRANCH   1   2
ATOM      2  CB  LYS A 131      28.345  25.722  17.026  1.00 20.94     0.034 C 
BRANCH   2   3
ATOM      3  CG  LYS A 131      27.600  24.415  16.805  1.00 22.96     0.005 C 
BRANCH   3   4
ATOM      4  CD  LYS A 131      26.871  23.963  18.041  1.00 24.33     0.041 C 
BRANCH   4   5
ATOM      5  CE  LYS A 131      25.454  23.539  17.669  1.00 26.91     0.338 C 
ATOM      6  NZ  LYS A 131      24.766  24.622  16.927  1.00 27.40     0.618 N 
ENDBRANCH   4   5
ENDBRANCH   3   4
ENDBRANCH   2   3
ENDBRANCH   1   2
END_RES LYS A 131
BEGIN_RES LYS A 135
REMARK  4 active torsions:
REMARK  status: ('A' for Active; 'I' for Inactive)
REMARK    5  A    between atoms: CA   and  CB  
REMARK    6  A    between atoms: CB   and  CG  
REMARK    7  A    between atoms: CG   and  CD  
REMARK    8  A    between atoms: CD   and  CE  
ROOT
ATOM      7  CA  LYS A 135      33.193  34.663   9.290  1.00 25.02     0.186 C 
ENDROOT
BRANCH   7   8
ATOM      8  CB  LYS A 135      32.060  35.360  10.034  1.00 26.63     0.034 C 
BRANCH   8   9
ATOM      9  CG  LYS A 135      30.737  34.648   9.920  1.00 29.45     0.005 C 
BRANCH   9  10
ATOM     10  CD  LYS A 135      30.319  34.521   8.463  1.00 32.00     0.041 C 
BRANCH  10  11
ATOM     11  CE  LYS A 135      28.809  34.574   8.335  1.00 34.25     0.338 C 
ATOM     12  NZ  LYS A 135      28.151  33.821   9.438  1.00 35.99     0.618 N 
ENDBRANCH  10  11
ENDBRANCH   9  10
ENDBRANCH   8   9
ENDBRANCH   7   8
END_RES LYS A 135
