REMARK VINA RESULT:    -7.585      3.071      8.199
REMARK INTER + INTRA:         -21.651
REMARK INTER:                  -9.173
REMARK INTRA:                 -12.478
REMARK UNBOUND:                -1.206
REMARK SMILES CC(=O)N[C@@H]1[C@@H](O)C[C@](OC[C@H]2O[C@@H](O[C@H]3[C@H](O)[C@@H](O)[C@H](OCCN=[N+]=[N-])O[C@@H]3CO)[C@H](O)[C@@H](O)[C@H]2O)(C(=O)O)O[C@H]1C(O)[C@H](O)CNC(=O)OCc1cn(C2CCc3ccccc3NC2=O)nn1
REMARK SMILES IDX 43 1 42 2 9 3 8 4 41 5 6 6 5 7 10 8 11 9 12 10 14 11 13 12
REMARK SMILES IDX 32 13 34 14 36 15 15 16 16 17 29 18 28 19 21 20 17 21 19 22
REMARK SMILES IDX 30 23 31 24 22 26 23 27 24 28 25 29 26 30 27 31 18 32 20 34
REMARK SMILES IDX 33 36 35 38 37 40 38 42 39 43 40 44 7 46 4 48 2 49 1 51 3 52
REMARK SMILES IDX 44 53 45 55 46 56 47 58 48 59 49 60 50 62 51 63 52 64 53 65
REMARK SMILES IDX 54 66 69 67 55 68 68 69 56 70 57 71 66 73 65 74 67 75 64 77
REMARK SMILES IDX 59 78 63 79 60 80 62 81 61 82 58 83
REMARK H PARENT 31 25 18 33 20 35 33 37 35 39 37 41 40 45 7 47 4 50 44 54
REMARK H PARENT 46 57 48 61 65 76
REMARK Flexibility Score: 90.00
ROOT
ATOM      1  C   UNL     1      25.194  39.030   7.559  1.00  0.00     0.176 C 
ENDROOT
BRANCH   1   2
ATOM      2  C   UNL     1      26.419  39.580   6.800  1.00  0.00     0.178 C 
ATOM      3  C   UNL     1      28.645  39.388   7.634  1.00  0.00     0.272 C 
ATOM      4  C   UNL     1      28.719  40.848   7.828  1.00  0.00     0.113 C 
ATOM      5  O   UNL     1      27.524  38.879   6.976  1.00  0.00    -0.332 OA
ATOM      6  C   UNL     1      27.389  41.463   8.108  1.00  0.00     0.145 C 
ATOM      7  C   UNL     1      26.459  41.074   6.968  1.00  0.00     0.142 C 
BRANCH   3   8
ATOM      8  O   UNL     1      28.771  38.635   8.748  1.00  0.00    -0.338 OA
BRANCH   8   9
ATOM      9  C   UNL     1      29.846  38.575   9.516  1.00  0.00     0.199 C 
BRANCH   9  10
ATOM     10  C   UNL     1      29.947  39.050  10.900  1.00  0.00     0.179 C 
ATOM     11  C   UNL     1      28.662  40.176  12.460  1.00  0.00     0.282 C 
ATOM     12  O   UNL     1      28.619  39.453  11.269  1.00  0.00    -0.341 OA
ATOM     13  C   UNL     1      29.886  40.021  13.274  1.00  0.00     0.202 C 
ATOM     14  C   UNL     1      30.603  38.717  13.195  1.00  0.00     0.179 C 
ATOM     15  C   UNL     1      30.228  37.968  11.941  1.00  0.00     0.177 C 
BRANCH  11  16
ATOM     16  O   UNL     1      27.464  39.935  13.165  1.00  0.00    -0.341 OA
BRANCH  16  17
ATOM     17  C   UNL     1      26.371  39.890  12.341  1.00  0.00     0.184 C 
ATOM     18  C   UNL     1      25.264  40.853  12.678  1.00  0.00     0.178 C 
ATOM     19  O   UNL     1      24.333  40.743  11.643  1.00  0.00    -0.341 OA
ATOM     20  C   UNL     1      23.562  39.597  11.769  1.00  0.00     0.281 C 
ATOM     21  C   UNL     1      25.748  38.502  12.328  1.00  0.00     0.180 C 
ATOM     22  C   UNL     1      24.271  38.492  12.494  1.00  0.00     0.202 C 
BRANCH  18  23
ATOM     23  C   UNL     1      25.744  42.291  12.676  1.00  0.00     0.191 C 
BRANCH  23  24
ATOM     24  O   UNL     1      26.524  42.575  11.557  1.00  0.00    -0.394 OA
ATOM     25  H   UNL     1      26.266  42.057  10.765  1.00  0.00     0.210 HD
ENDBRANCH  23  24
ENDBRANCH  18  23
BRANCH  20  26
ATOM     26  O   UNL     1      23.134  39.216  10.510  1.00  0.00    -0.350 OA
BRANCH  26  27
ATOM     27  C   UNL     1      21.828  39.604  10.270  1.00  0.00     0.169 C 
BRANCH  27  28
ATOM     28  C   UNL     1      21.318  39.292   8.900  1.00  0.00     0.119 C 
BRANCH  28  29
ATOM     29  N   UNL     1      21.188  40.528   8.148  1.00  0.00    -0.092 NA
ATOM     30  N   UNL     1      22.028  41.442   8.236  1.00  0.00     0.001 N 
ATOM     31  N   UNL     1      23.120  41.999   8.053  1.00  0.00    -0.003 NA
ENDBRANCH  28  29
ENDBRANCH  27  28
ENDBRANCH  26  27
ENDBRANCH  20  26
BRANCH  21  32
ATOM     32  O   UNL     1      26.171  37.762  11.214  1.00  0.00    -0.387 OA
ATOM     33  H   UNL     1      26.751  38.341  10.655  1.00  0.00     0.211 HD
ENDBRANCH  21  32
BRANCH  22  34
ATOM     34  O   UNL     1      23.878  38.502  13.852  1.00  0.00    -0.385 OA
ATOM     35  H   UNL     1      22.979  38.143  13.979  1.00  0.00     0.211 HD
ENDBRANCH  22  34
ENDBRANCH  16  17
ENDBRANCH  11  16
BRANCH  13  36
ATOM     36  O   UNL     1      30.731  41.117  13.074  1.00  0.00    -0.385 OA
ATOM     37  H   UNL     1      31.616  40.801  12.755  1.00  0.00     0.211 HD
ENDBRANCH  13  36
BRANCH  14  38
ATOM     38  O   UNL     1      30.459  37.941  14.344  1.00  0.00    -0.387 OA
ATOM     39  H   UNL     1      31.166  38.245  14.971  1.00  0.00     0.211 HD
ENDBRANCH  14  38
BRANCH  15  40
ATOM     40  O   UNL     1      29.041  37.228  12.163  1.00  0.00    -0.387 OA
ATOM     41  H   UNL     1      28.389  37.873  12.514  1.00  0.00     0.211 HD
ENDBRANCH  15  40
ENDBRANCH   9  10
ENDBRANCH   8   9
ENDBRANCH   3   8
BRANCH   3  42
ATOM     42  C   UNL     1      29.720  39.049   6.624  1.00  0.00     0.364 C 
ATOM     43  O   UNL     1      30.663  39.778   6.423  1.00  0.00    -0.246 OA
BRANCH  42  44
ATOM     44  O   UNL     1      29.630  37.859   5.895  1.00  0.00    -0.477 OA
ATOM     45  H   UNL     1      29.022  37.104   6.166  1.00  0.00     0.296 HD
ENDBRANCH  42  44
ENDBRANCH   3  42
BRANCH   6  46
ATOM     46  O   UNL     1      26.921  40.917   9.314  1.00  0.00    -0.391 OA
ATOM     47  H   UNL     1      26.094  41.324   9.622  1.00  0.00     0.211 HD
ENDBRANCH   6  46
BRANCH   7  48
ATOM     48  N   UNL     1      26.846  41.805   5.809  1.00  0.00    -0.348 N 
ATOM     49  C   UNL     1      25.890  42.146   4.812  1.00  0.00     0.217 C 
ATOM     50  H   UNL     1      27.838  42.106   5.660  1.00  0.00     0.163 HD
ATOM     51  C   UNL     1      26.246  42.906   3.583  1.00  0.00     0.114 C 
ATOM     52  O   UNL     1      24.720  41.788   4.990  1.00  0.00    -0.275 OA
ENDBRANCH   7  48
ENDBRANCH   1   2
BRANCH   1  53
ATOM     53  O   UNL     1      24.036  39.293   6.820  1.00  0.00    -0.388 OA
ATOM     54  H   UNL     1      24.194  39.870   6.040  1.00  0.00     0.211 HD
ENDBRANCH   1  53
BRANCH   1  55
ATOM     55  C   UNL     1      25.265  37.567   7.803  1.00  0.00     0.165 C 
BRANCH  55  56
ATOM     56  O   UNL     1      25.905  36.834   6.811  1.00  0.00    -0.388 OA
ATOM     57  H   UNL     1      25.252  36.690   6.075  1.00  0.00     0.211 HD
ENDBRANCH  55  56
BRANCH  55  58
ATOM     58  C   UNL     1      23.972  36.882   8.105  1.00  0.00     0.154 C 
BRANCH  58  59
ATOM     59  N   UNL     1      23.785  36.491   9.469  1.00  0.00    -0.319 N 
ATOM     60  C   UNL     1      22.611  35.880   9.969  1.00  0.00     0.407 C 
ATOM     61  H   UNL     1      24.561  36.666  10.139  1.00  0.00     0.167 HD
ATOM     62  O   UNL     1      21.636  35.640   9.216  1.00  0.00    -0.225 OA
BRANCH  60  63
ATOM     63  O   UNL     1      22.546  35.547  11.301  1.00  0.00    -0.443 OA
BRANCH  63  64
ATOM     64  C   UNL     1      23.095  34.396  11.839  1.00  0.00     0.294 C 
BRANCH  64  65
ATOM     65  C   UNL     1      24.380  34.683  12.481  1.00  0.00     0.120 A 
ATOM     66  C   UNL     1      24.610  34.810  13.829  1.00  0.00     0.139 A 
ATOM     67  N   UNL     1      25.585  34.885  11.896  1.00  0.00    -0.132 NA
ATOM     68  N   UNL     1      25.923  35.080  14.036  1.00  0.00    -0.240 N 
ATOM     69  N   UNL     1      26.480  35.118  12.843  1.00  0.00    -0.066 NA
BRANCH  68  70
ATOM     70  C   UNL     1      26.588  35.286  15.334  1.00  0.00     0.198 C 
BRANCH  70  71
ATOM     71  C   UNL     1      26.701  33.948  15.962  1.00  0.00     0.042 CG0
ATOM     72  G   UNL     1      27.730  33.786  17.026  1.00  0.00     0.000 G0
ENDBRANCH  70  71
BRANCH  70  73
ATOM     73  C   UNL     1      27.846  35.975  15.032  1.00  0.00     0.249 C 
ATOM     74  N   UNL     1      29.154  35.456  14.848  1.00  0.00    -0.324 N 
ATOM     75  O   UNL     1      27.746  37.227  14.918  1.00  0.00    -0.272 OA
ATOM     76  H   UNL     1      29.840  36.009  14.290  1.00  0.00     0.170 HD
BRANCH  74  77
ATOM     77  C   UNL     1      29.601  34.194  15.389  1.00  0.00     0.044 A 
ATOM     78  C   UNL     1      29.008  33.398  16.361  1.00  0.00    -0.024 A 
ATOM     79  C   UNL     1      30.787  33.788  14.816  1.00  0.00     0.026 A 
ATOM     80  C   UNL     1      29.573  32.211  16.766  1.00  0.00     0.006 A 
ATOM     81  C   UNL     1      31.376  32.600  15.203  1.00  0.00     0.002 A 
ATOM     82  C   UNL     1      30.754  31.820  16.184  1.00  0.00     0.000 A 
BRANCH  78  83
ATOM     83  C   UNL     1      27.728  33.749  17.040  1.00  0.00     0.040 CG0
ATOM     84  G   UNL     1      26.710  33.945  15.971  1.00  0.00     0.000 G0
ENDBRANCH  78  83
ENDBRANCH  74  77
ENDBRANCH  70  73
ENDBRANCH  68  70
ENDBRANCH  64  65
ENDBRANCH  63  64
ENDBRANCH  60  63
ENDBRANCH  58  59
ENDBRANCH  55  58
ENDBRANCH   1  55
TORSDOF 30
BEGIN_RES LYS A 131
REMARK  4 active torsions:
REMARK  status: ('A' for Active; 'I' for Inactive)
REMARK    1  A    between atoms: CA   and  CB  
REMARK    2  A    between atoms: CB   and  CG  
REMARK    3  A    between atoms: CG   and  CD  
REMARK    4  A    between atoms: CD   and  CE  
ROOT
ATOM      1  CA  LYS A 131      29.867  25.555  16.977  1.00 20.52     0.186 C 
ENDROOT
BRANCH   1   2
ATOM      2  CB  LYS A 131      28.345  25.722  17.026  1.00 20.94     0.034 C 
BRANCH   2   3
ATOM      3  CG  LYS A 131      27.599  24.481  16.560  1.00 22.96     0.005 C 
BRANCH   3   4
ATOM      4  CD  LYS A 131      27.368  23.505  17.680  1.00 24.33     0.041 C 
BRANCH   4   5
ATOM      5  CE  LYS A 131      26.076  23.863  18.408  1.00 26.91     0.338 C 
ATOM      6  NZ  LYS A 131      24.964  22.997  17.948  1.00 27.40     0.618 N 
ENDBRANCH   4   5
ENDBRANCH   3   4
ENDBRANCH   2   3
ENDBRANCH   1   2
END_RES LYS A 131
BEGIN_RES LYS A 135
REMARK  4 active torsions:
REMARK  status: ('A' for Active; 'I' for Inactive)
REMARK    5  A    between atoms: CA   and  CB  
REMARK    6  A    between atoms: CB   and  CG  
REMARK    7  A    between atoms: CG   and  CD  
REMARK    8  A    between atoms: CD   and  CE  
ROOT
ATOM      7  CA  LYS A 135      33.193  34.663   9.290  1.00 25.02     0.186 C 
ENDROOT
BRANCH   7   8
ATOM      8  CB  LYS A 135      32.060  35.360  10.034  1.00 26.63     0.034 C 
BRANCH   8   9
ATOM      9  CG  LYS A 135      30.829  35.575   9.192  1.00 29.45     0.005 C 
BRANCH   9  10
ATOM     10  CD  LYS A 135      29.725  34.611   9.598  1.00 32.00     0.041 C 
BRANCH  10  11
ATOM     11  CE  LYS A 135      28.683  34.502   8.502  1.00 34.25     0.338 C 
ATOM     12  NZ  LYS A 135      27.355  34.125   9.061  1.00 35.99     0.618 N 
ENDBRANCH  10  11
ENDBRANCH   9  10
ENDBRANCH   8   9
ENDBRANCH   7   8
END_RES LYS A 135
