REMARK VINA RESULT:    -4.758      2.387      4.678
REMARK INTER + INTRA:         -23.203
REMARK INTER:                 -14.019
REMARK INTRA:                  -9.184
REMARK UNBOUND:               -11.213
REMARK SMILES CC(=O)N[C@@H]1[C@@H](O)C[C@](OC[C@H]2O[C@@H](O[C@H]3[C@H](O)[C@@H](O)[C@H](OCCN=[N+]=[N-])O[C@@H]3CO)[C@H](O)[C@@H](O)[C@H]2O)(C(=O)O)O[C@H]1C(O)[C@H](O)CNC(=O)OCc1cn(CC2=CC[C@H]3C[C@@H]2C3(C)C)nn1
REMARK SMILES IDX 9 1 8 2 6 3 5 4 42 5 41 6 10 7 11 8 12 9 14 10 13 11 32 12
REMARK SMILES IDX 34 13 36 14 15 15 16 16 29 17 28 18 21 19 17 20 19 21 30 22
REMARK SMILES IDX 31 23 22 25 23 26 24 27 25 28 26 29 27 30 18 31 20 33 33 35
REMARK SMILES IDX 35 37 37 39 38 41 39 42 40 43 7 45 43 47 44 48 45 50 46 51
REMARK SMILES IDX 47 53 48 54 49 55 50 57 51 58 52 59 53 60 54 61 67 62 55 63
REMARK SMILES IDX 66 64 56 65 57 66 58 67 62 68 59 69 61 70 63 71 60 72 64 73
REMARK SMILES IDX 65 74 4 75 2 76 1 78 3 79
REMARK H PARENT 31 24 18 32 20 34 33 36 35 38 37 40 40 44 7 46 44 49 46 52
REMARK H PARENT 48 56 4 77
REMARK Flexibility Score: inf
ROOT
ATOM      1  C   UNL     1      28.199  39.451   5.452  1.00  0.00     0.272 C 
ATOM      2  C   UNL     1      28.961  38.257   4.977  1.00  0.00     0.113 C 
ATOM      3  C   UNL     1      28.382  36.976   5.605  1.00  0.00     0.145 C 
ATOM      4  C   UNL     1      28.524  37.008   7.084  1.00  0.00     0.142 C 
ATOM      5  C   UNL     1      28.850  38.437   7.465  1.00  0.00     0.178 C 
ATOM      6  O   UNL     1      28.027  39.325   6.873  1.00  0.00    -0.332 OA
ENDROOT
BRANCH   1   7
ATOM      7  O   UNL     1      26.969  39.607   4.990  1.00  0.00    -0.338 OA
BRANCH   7   8
ATOM      8  C   UNL     1      26.268  40.698   4.818  1.00  0.00     0.199 C 
BRANCH   8   9
ATOM      9  C   UNL     1      25.218  41.222   5.704  1.00  0.00     0.179 C 
ATOM     10  C   UNL     1      23.827  40.462   7.389  1.00  0.00     0.282 C 
ATOM     11  O   UNL     1      25.018  40.228   6.712  1.00  0.00    -0.341 OA
ATOM     12  C   UNL     1      23.546  41.857   7.725  1.00  0.00     0.202 C 
ATOM     13  C   UNL     1      24.434  42.923   7.218  1.00  0.00     0.179 C 
ATOM     14  C   UNL     1      25.695  42.400   6.576  1.00  0.00     0.177 C 
BRANCH  10  15
ATOM     15  O   UNL     1      23.947  39.704   8.570  1.00  0.00    -0.341 OA
BRANCH  15  16
ATOM     16  C   UNL     1      22.990  38.710   8.664  1.00  0.00     0.184 C 
ATOM     17  C   UNL     1      22.359  38.726  10.027  1.00  0.00     0.178 C 
ATOM     18  O   UNL     1      21.667  37.570  10.344  1.00  0.00    -0.341 OA
ATOM     19  C   UNL     1      21.463  36.685   9.326  1.00  0.00     0.281 C 
ATOM     20  C   UNL     1      23.730  37.374   8.543  1.00  0.00     0.180 C 
ATOM     21  C   UNL     1      22.731  36.260   8.628  1.00  0.00     0.202 C 
BRANCH  17  22
ATOM     22  C   UNL     1      21.388  39.911  10.082  1.00  0.00     0.191 C 
BRANCH  22  23
ATOM     23  O   UNL     1      20.819  40.054   8.825  1.00  0.00    -0.394 OA
ATOM     24  H   UNL     1      21.535  39.881   8.140  1.00  0.00     0.210 HD
ENDBRANCH  22  23
ENDBRANCH  17  22
BRANCH  19  25
ATOM     25  O   UNL     1      20.568  37.184   8.369  1.00  0.00    -0.350 OA
BRANCH  25  26
ATOM     26  C   UNL     1      20.173  36.198   7.464  1.00  0.00     0.169 C 
BRANCH  26  27
ATOM     27  C   UNL     1      18.793  35.737   7.940  1.00  0.00     0.119 C 
BRANCH  27  28
ATOM     28  N   UNL     1      18.865  34.349   8.346  1.00  0.00    -0.092 NA
ATOM     29  N   UNL     1      18.014  33.535   8.039  1.00  0.00     0.001 N 
ATOM     30  N   UNL     1      17.062  32.775   7.824  1.00  0.00    -0.003 NA
ENDBRANCH  27  28
ENDBRANCH  26  27
ENDBRANCH  25  26
ENDBRANCH  19  25
BRANCH  20  31
ATOM     31  O   UNL     1      24.369  37.298   7.292  1.00  0.00    -0.387 OA
ATOM     32  H   UNL     1      23.705  37.294   6.569  1.00  0.00     0.211 HD
ENDBRANCH  20  31
BRANCH  21  33
ATOM     33  O   UNL     1      23.254  35.114   9.225  1.00  0.00    -0.385 OA
ATOM     34  H   UNL     1      22.992  34.329   8.664  1.00  0.00     0.211 HD
ENDBRANCH  21  33
ENDBRANCH  15  16
ENDBRANCH  10  15
BRANCH  12  35
ATOM     35  O   UNL     1      22.232  42.145   7.267  1.00  0.00    -0.385 OA
ATOM     36  H   UNL     1      21.553  41.645   7.788  1.00  0.00     0.211 HD
ENDBRANCH  12  35
BRANCH  13  37
ATOM     37  O   UNL     1      24.695  43.899   8.185  1.00  0.00    -0.387 OA
ATOM     38  H   UNL     1      25.105  43.480   8.990  1.00  0.00     0.211 HD
ENDBRANCH  13  37
BRANCH  14  39
ATOM     39  O   UNL     1      26.494  41.853   7.601  1.00  0.00    -0.387 OA
ATOM     40  H   UNL     1      26.241  42.245   8.473  1.00  0.00     0.211 HD
ENDBRANCH  14  39
ENDBRANCH   8   9
ENDBRANCH   7   8
ENDBRANCH   1   7
BRANCH   1  41
ATOM     41  C   UNL     1      29.053  40.666   5.379  1.00  0.00     0.364 C 
ATOM     42  O   UNL     1      29.146  41.442   6.393  1.00  0.00    -0.246 OA
BRANCH  41  43
ATOM     43  O   UNL     1      29.756  41.026   4.279  1.00  0.00    -0.477 OA
ATOM     44  H   UNL     1      30.102  41.938   4.033  1.00  0.00     0.296 HD
ENDBRANCH  41  43
ENDBRANCH   1  41
BRANCH   3  45
ATOM     45  O   UNL     1      27.010  37.061   5.323  1.00  0.00    -0.391 OA
ATOM     46  H   UNL     1      26.890  36.873   4.359  1.00  0.00     0.211 HD
ENDBRANCH   3  45
BRANCH   5  47
ATOM     47  C   UNL     1      28.724  38.626   8.979  1.00  0.00     0.176 C 
BRANCH  47  48
ATOM     48  O   UNL     1      29.701  37.925   9.636  1.00  0.00    -0.388 OA
ATOM     49  H   UNL     1      30.547  38.431   9.792  1.00  0.00     0.211 HD
ENDBRANCH  47  48
BRANCH  47  50
ATOM     50  C   UNL     1      27.357  38.231   9.451  1.00  0.00     0.165 C 
BRANCH  50  51
ATOM     51  O   UNL     1      26.577  39.422   9.391  1.00  0.00    -0.388 OA
ATOM     52  H   UNL     1      27.243  40.138   9.639  1.00  0.00     0.211 HD
ENDBRANCH  50  51
BRANCH  50  53
ATOM     53  C   UNL     1      27.354  37.815  10.887  1.00  0.00     0.154 C 
BRANCH  53  54
ATOM     54  N   UNL     1      27.244  36.410  11.112  1.00  0.00    -0.319 N 
ATOM     55  C   UNL     1      25.982  35.826  11.374  1.00  0.00     0.407 C 
ATOM     56  H   UNL     1      28.108  35.815  11.071  1.00  0.00     0.167 HD
ATOM     57  O   UNL     1      24.964  36.529  11.412  1.00  0.00    -0.225 OA
BRANCH  55  58
ATOM     58  O   UNL     1      25.862  34.466  11.590  1.00  0.00    -0.443 OA
BRANCH  58  59
ATOM     59  C   UNL     1      25.199  33.845  12.640  1.00  0.00     0.294 C 
BRANCH  59  60
ATOM     60  C   UNL     1      25.778  34.115  13.987  1.00  0.00     0.120 A 
ATOM     61  C   UNL     1      26.482  33.255  14.796  1.00  0.00     0.138 A 
ATOM     62  N   UNL     1      25.718  35.294  14.668  1.00  0.00    -0.132 NA
ATOM     63  N   UNL     1      26.825  33.901  15.913  1.00  0.00    -0.248 N 
ATOM     64  N   UNL     1      26.352  35.128  15.810  1.00  0.00    -0.067 NA
BRANCH  63  65
ATOM     65  C   UNL     1      27.591  33.362  17.052  1.00  0.00     0.177 C 
BRANCH  65  66
ATOM     66  C   UNL     1      28.945  33.035  16.493  1.00  0.00    -0.049 C 
ATOM     67  C   UNL     1      29.361  31.755  16.402  1.00  0.00    -0.025 C 
ATOM     68  C   UNL     1      29.874  34.070  16.017  1.00  0.00     0.023 C 
ATOM     69  C   UNL     1      30.757  31.483  15.995  1.00  0.00     0.031 C 
ATOM     70  C   UNL     1      30.473  33.550  14.703  1.00  0.00     0.013 C 
ATOM     71  C   UNL     1      31.222  33.858  16.636  1.00  0.00    -0.026 C 
ATOM     72  C   UNL     1      31.441  32.757  15.590  1.00  0.00    -0.000 C 
ATOM     73  C   UNL     1      32.209  34.975  16.395  1.00  0.00     0.012 C 
ATOM     74  C   UNL     1      31.263  33.402  18.055  1.00  0.00     0.012 C 
ENDBRANCH  65  66
ENDBRANCH  63  65
ENDBRANCH  59  60
ENDBRANCH  58  59
ENDBRANCH  55  58
ENDBRANCH  53  54
ENDBRANCH  50  53
ENDBRANCH  47  50
ENDBRANCH   5  47
BRANCH   4  75
ATOM     75  N   UNL     1      29.517  36.166   7.655  1.00  0.00    -0.348 N 
ATOM     76  C   UNL     1      29.318  34.902   8.230  1.00  0.00     0.217 C 
ATOM     77  H   UNL     1      30.507  36.549   7.638  1.00  0.00     0.163 HD
ATOM     78  C   UNL     1      30.452  34.125   8.794  1.00  0.00     0.114 C 
ATOM     79  O   UNL     1      28.154  34.467   8.244  1.00  0.00    -0.275 OA
ENDBRANCH   4  75
TORSDOF 31
BEGIN_RES LYS A 131
REMARK  4 active torsions:
REMARK  status: ('A' for Active; 'I' for Inactive)
REMARK    1  A    between atoms: CA   and  CB  
REMARK    2  A    between atoms: CB   and  CG  
REMARK    3  A    between atoms: CG   and  CD  
REMARK    4  A    between atoms: CD   and  CE  
ROOT
ATOM      1  CA  LYS A 131      29.867  25.555  16.977  1.00 20.52     0.186 C 
ENDROOT
BRANCH   1   2
ATOM      2  CB  LYS A 131      28.345  25.722  17.026  1.00 20.94     0.034 C 
BRANCH   2   3
ATOM      3  CG  LYS A 131      27.603  24.395  16.973  1.00 22.96     0.005 C 
BRANCH   3   4
ATOM      4  CD  LYS A 131      26.544  24.296  18.036  1.00 24.33     0.041 C 
BRANCH   4   5
ATOM      5  CE  LYS A 131      25.234  23.832  17.407  1.00 26.91     0.338 C 
ATOM      6  NZ  LYS A 131      25.110  22.358  17.493  1.00 27.40     0.618 N 
ENDBRANCH   4   5
ENDBRANCH   3   4
ENDBRANCH   2   3
ENDBRANCH   1   2
END_RES LYS A 131
BEGIN_RES LYS A 135
REMARK  4 active torsions:
REMARK  status: ('A' for Active; 'I' for Inactive)
REMARK    5  A    between atoms: CA   and  CB  
REMARK    6  A    between atoms: CB   and  CG  
REMARK    7  A    between atoms: CG   and  CD  
REMARK    8  A    between atoms: CD   and  CE  
ROOT
ATOM      7  CA  LYS A 135      33.193  34.663   9.290  1.00 25.02     0.186 C 
ENDROOT
BRANCH   7   8
ATOM      8  CB  LYS A 135      32.060  35.360  10.034  1.00 26.63     0.034 C 
BRANCH   8   9
ATOM      9  CG  LYS A 135      32.320  35.525  11.509  1.00 29.45     0.005 C 
BRANCH   9  10
ATOM     10  CD  LYS A 135      32.102  36.970  11.934  1.00 32.00     0.041 C 
BRANCH  10  11
ATOM     11  CE  LYS A 135      31.792  37.048  13.416  1.00 34.25     0.338 C 
ATOM     12  NZ  LYS A 135      30.329  37.195  13.651  1.00 35.99     0.618 N 
ENDBRANCH  10  11
ENDBRANCH   9  10
ENDBRANCH   8   9
ENDBRANCH   7   8
END_RES LYS A 135
