REMARK VINA RESULT:    -4.676      0.000      0.000
REMARK INTER + INTRA:         -22.455
REMARK INTER:                 -11.713
REMARK INTRA:                 -10.742
REMARK UNBOUND:               -10.944
REMARK SMILES CC(=O)N[C@@H]1[C@@H](O)C[C@](OC[C@H]2O[C@@H](O[C@H]3[C@H](O)[C@@H](O)[C@H](OCCN=[N+]=[N-])O[C@@H]3CO)[C@H](O)[C@@H](O)[C@H]2O)(C(=O)O)O[C@H]1C(O)[C@H](O)CNC(=O)OCc1cn(-c2cccnc2)nn1
REMARK SMILES IDX 9 1 8 2 6 3 5 4 42 5 41 6 10 7 11 8 12 9 14 10 13 11 32 12
REMARK SMILES IDX 34 13 36 14 15 15 16 16 29 17 28 18 21 19 17 20 19 21 30 22
REMARK SMILES IDX 31 23 22 25 23 26 24 27 25 28 26 29 27 30 18 31 20 33 33 35
REMARK SMILES IDX 35 37 37 39 38 41 39 42 40 43 7 45 43 47 44 48 45 50 46 51
REMARK SMILES IDX 47 53 48 54 49 55 50 57 51 58 52 59 53 60 54 61 63 62 55 63
REMARK SMILES IDX 62 64 56 65 57 66 61 67 58 68 60 69 59 70 4 71 2 72 1 74
REMARK SMILES IDX 3 75
REMARK H PARENT 31 24 18 32 20 34 33 36 35 38 37 40 40 44 7 46 44 49 46 52
REMARK H PARENT 48 56 4 73
REMARK Flexibility Score: inf
ROOT
ATOM      1  C   UNL     1      30.712  32.120  21.314  1.00  0.00     0.272 C 
ATOM      2  C   UNL     1      32.125  32.430  21.026  1.00  0.00     0.113 C 
ATOM      3  C   UNL     1      33.026  32.054  22.149  1.00  0.00     0.145 C 
ATOM      4  C   UNL     1      32.674  30.746  22.812  1.00  0.00     0.142 C 
ATOM      5  C   UNL     1      31.491  30.076  22.209  1.00  0.00     0.178 C 
ATOM      6  O   UNL     1      30.431  30.942  21.984  1.00  0.00    -0.332 OA
ENDROOT
BRANCH   1   7
ATOM      7  O   UNL     1      29.937  32.054  20.159  1.00  0.00    -0.338 OA
BRANCH   7   8
ATOM      8  C   UNL     1      30.462  32.600  19.031  1.00  0.00     0.199 C 
BRANCH   8   9
ATOM      9  C   UNL     1      29.306  32.749  18.023  1.00  0.00     0.179 C 
ATOM     10  C   UNL     1      30.598  33.653  16.291  1.00  0.00     0.282 C 
ATOM     11  O   UNL     1      29.550  33.763  17.179  1.00  0.00    -0.341 OA
ATOM     12  C   UNL     1      30.635  32.287  15.697  1.00  0.00     0.202 C 
ATOM     13  C   UNL     1      29.237  31.673  15.860  1.00  0.00     0.179 C 
ATOM     14  C   UNL     1      28.996  31.427  17.342  1.00  0.00     0.177 C 
BRANCH  10  15
ATOM     15  O   UNL     1      31.747  34.009  16.994  1.00  0.00    -0.341 OA
BRANCH  15  16
ATOM     16  C   UNL     1      32.025  35.336  16.989  1.00  0.00     0.184 C 
ATOM     17  C   UNL     1      33.314  35.736  16.341  1.00  0.00     0.178 C 
ATOM     18  O   UNL     1      33.174  37.059  15.920  1.00  0.00    -0.341 OA
ATOM     19  C   UNL     1      32.576  37.885  16.865  1.00  0.00     0.281 C 
ATOM     20  C   UNL     1      32.099  35.944  18.387  1.00  0.00     0.180 C 
ATOM     21  C   UNL     1      32.693  37.355  18.275  1.00  0.00     0.202 C 
BRANCH  17  22
ATOM     22  C   UNL     1      33.773  34.901  15.203  1.00  0.00     0.191 C 
BRANCH  22  23
ATOM     23  O   UNL     1      32.805  34.723  14.251  1.00  0.00    -0.394 OA
ATOM     24  H   UNL     1      33.246  34.381  13.432  1.00  0.00     0.210 HD
ENDBRANCH  22  23
ENDBRANCH  17  22
BRANCH  19  25
ATOM     25  O   UNL     1      31.266  38.161  16.599  1.00  0.00    -0.350 OA
BRANCH  25  26
ATOM     26  C   UNL     1      30.875  38.426  15.337  1.00  0.00     0.169 C 
BRANCH  26  27
ATOM     27  C   UNL     1      29.894  37.514  14.688  1.00  0.00     0.119 C 
BRANCH  27  28
ATOM     28  N   UNL     1      30.421  36.459  13.892  1.00  0.00    -0.092 NA
ATOM     29  N   UNL     1      29.695  35.640  13.292  1.00  0.00     0.001 N 
ATOM     30  N   UNL     1      28.977  34.628  13.207  1.00  0.00    -0.003 NA
ENDBRANCH  27  28
ENDBRANCH  26  27
ENDBRANCH  25  26
ENDBRANCH  19  25
BRANCH  20  31
ATOM     31  O   UNL     1      30.815  36.083  18.895  1.00  0.00    -0.387 OA
ATOM     32  H   UNL     1      30.439  36.991  18.749  1.00  0.00     0.211 HD
ENDBRANCH  20  31
BRANCH  21  33
ATOM     33  O   UNL     1      34.018  37.390  18.705  1.00  0.00    -0.385 OA
ATOM     34  H   UNL     1      34.028  37.676  19.651  1.00  0.00     0.211 HD
ENDBRANCH  21  33
ENDBRANCH  15  16
ENDBRANCH  10  15
BRANCH  12  35
ATOM     35  O   UNL     1      30.796  32.385  14.302  1.00  0.00    -0.385 OA
ATOM     36  H   UNL     1      29.907  32.632  13.904  1.00  0.00     0.211 HD
ENDBRANCH  12  35
BRANCH  13  37
ATOM     37  O   UNL     1      29.058  30.547  15.100  1.00  0.00    -0.387 OA
ATOM     38  H   UNL     1      29.928  30.241  14.740  1.00  0.00     0.211 HD
ENDBRANCH  13  37
BRANCH  14  39
ATOM     39  O   UNL     1      29.766  30.382  17.811  1.00  0.00    -0.387 OA
ATOM     40  H   UNL     1      30.473  30.768  18.394  1.00  0.00     0.211 HD
ENDBRANCH  14  39
ENDBRANCH   8   9
ENDBRANCH   7   8
ENDBRANCH   1   7
BRANCH   1  41
ATOM     41  C   UNL     1      30.169  33.273  22.134  1.00  0.00     0.364 C 
ATOM     42  O   UNL     1      29.925  33.081  23.337  1.00  0.00    -0.246 OA
BRANCH  41  43
ATOM     43  O   UNL     1      29.932  34.518  21.605  1.00  0.00    -0.477 OA
ATOM     44  H   UNL     1      29.173  34.751  20.977  1.00  0.00     0.296 HD
ENDBRANCH  41  43
ENDBRANCH   1  41
BRANCH   3  45
ATOM     45  O   UNL     1      34.330  31.987  21.605  1.00  0.00    -0.391 OA
ATOM     46  H   UNL     1      35.019  32.179  22.269  1.00  0.00     0.211 HD
ENDBRANCH   3  45
BRANCH   5  47
ATOM     47  C   UNL     1      31.769  29.207  21.029  1.00  0.00     0.176 C 
BRANCH  47  48
ATOM     48  O   UNL     1      30.680  29.344  20.130  1.00  0.00    -0.388 OA
ATOM     49  H   UNL     1      30.370  28.434  19.868  1.00  0.00     0.211 HD
ENDBRANCH  47  48
BRANCH  47  50
ATOM     50  C   UNL     1      31.903  27.740  21.286  1.00  0.00     0.165 C 
BRANCH  50  51
ATOM     51  O   UNL     1      31.926  27.201  19.929  1.00  0.00    -0.388 OA
ATOM     52  H   UNL     1      32.551  27.790  19.441  1.00  0.00     0.211 HD
ENDBRANCH  50  51
BRANCH  50  53
ATOM     53  C   UNL     1      30.702  27.069  21.870  1.00  0.00     0.154 C 
BRANCH  53  54
ATOM     54  N   UNL     1      29.692  26.639  20.957  1.00  0.00    -0.319 N 
ATOM     55  C   UNL     1      28.442  27.364  20.946  1.00  0.00     0.407 C 
ATOM     56  H   UNL     1      29.758  25.878  20.290  1.00  0.00     0.167 HD
ATOM     57  O   UNL     1      28.316  28.327  21.731  1.00  0.00    -0.225 OA
BRANCH  55  58
ATOM     58  O   UNL     1      27.415  27.017  20.105  1.00  0.00    -0.443 OA
BRANCH  58  59
ATOM     59  C   UNL     1      26.326  27.889  19.928  1.00  0.00     0.294 C 
BRANCH  59  60
ATOM     60  C   UNL     1      26.369  28.433  18.554  1.00  0.00     0.121 A 
ATOM     61  C   UNL     1      25.458  29.234  17.904  1.00  0.00     0.144 A 
ATOM     62  N   UNL     1      27.369  28.228  17.645  1.00  0.00    -0.131 NA
ATOM     63  N   UNL     1      25.902  29.492  16.664  1.00  0.00    -0.219 N 
ATOM     64  N   UNL     1      27.060  28.869  16.538  1.00  0.00    -0.062 NA
BRANCH  63  65
ATOM     65  C   UNL     1      25.333  30.266  15.612  1.00  0.00     0.085 A 
ATOM     66  C   UNL     1      25.668  31.585  15.393  1.00  0.00     0.031 A 
ATOM     67  C   UNL     1      24.397  29.719  14.754  1.00  0.00     0.139 A 
ATOM     68  C   UNL     1      25.099  32.314  14.373  1.00  0.00     0.022 A 
ATOM     69  N   UNL     1      23.843  30.448  13.754  1.00  0.00    -0.262 NA
ATOM     70  C   UNL     1      24.170  31.735  13.540  1.00  0.00     0.111 A 
ENDBRANCH  63  65
ENDBRANCH  59  60
ENDBRANCH  58  59
ENDBRANCH  55  58
ENDBRANCH  53  54
ENDBRANCH  50  53
ENDBRANCH  47  50
ENDBRANCH   5  47
BRANCH   4  71
ATOM     71  N   UNL     1      32.458  30.937  24.243  1.00  0.00    -0.348 N 
ATOM     72  C   UNL     1      32.880  30.019  25.236  1.00  0.00     0.217 C 
ATOM     73  H   UNL     1      31.961  31.800  24.596  1.00  0.00     0.163 HD
ATOM     74  C   UNL     1      32.630  30.256  26.693  1.00  0.00     0.114 C 
ATOM     75  O   UNL     1      33.486  28.963  24.907  1.00  0.00    -0.275 OA
ENDBRANCH   4  71
TORSDOF 30
BEGIN_RES LYS A 131
REMARK  4 active torsions:
REMARK  status: ('A' for Active; 'I' for Inactive)
REMARK    1  A    between atoms: CA   and  CB  
REMARK    2  A    between atoms: CB   and  CG  
REMARK    3  A    between atoms: CG   and  CD  
REMARK    4  A    between atoms: CD   and  CE  
ROOT
ATOM      1  CA  LYS A 131      29.867  25.555  16.977  1.00 20.52     0.186 C 
ENDROOT
BRANCH   1   2
ATOM      2  CB  LYS A 131      28.345  25.722  17.026  1.00 20.94     0.034 C 
BRANCH   2   3
ATOM      3  CG  LYS A 131      27.602  24.400  16.913  1.00 22.96     0.005 C 
BRANCH   3   4
ATOM      4  CD  LYS A 131      26.525  24.264  17.953  1.00 24.33     0.041 C 
BRANCH   4   5
ATOM      5  CE  LYS A 131      25.158  24.276  17.277  1.00 26.91     0.338 C 
ATOM      6  NZ  LYS A 131      24.486  25.580  17.488  1.00 27.40     0.618 N 
ENDBRANCH   4   5
ENDBRANCH   3   4
ENDBRANCH   2   3
ENDBRANCH   1   2
END_RES LYS A 131
BEGIN_RES LYS A 135
REMARK  4 active torsions:
REMARK  status: ('A' for Active; 'I' for Inactive)
REMARK    5  A    between atoms: CA   and  CB  
REMARK    6  A    between atoms: CB   and  CG  
REMARK    7  A    between atoms: CG   and  CD  
REMARK    8  A    between atoms: CD   and  CE  
ROOT
ATOM      7  CA  LYS A 135      33.193  34.663   9.290  1.00 25.02     0.186 C 
ENDROOT
BRANCH   7   8
ATOM      8  CB  LYS A 135      32.060  35.360  10.034  1.00 26.63     0.034 C 
BRANCH   8   9
ATOM      9  CG  LYS A 135      30.711  34.728   9.806  1.00 29.45     0.005 C 
BRANCH   9  10
ATOM     10  CD  LYS A 135      30.454  34.533   8.320  1.00 32.00     0.041 C 
BRANCH  10  11
ATOM     11  CE  LYS A 135      29.004  34.826   7.987  1.00 34.25     0.338 C 
ATOM     12  NZ  LYS A 135      28.885  35.537   6.684  1.00 35.99     0.618 N 
ENDBRANCH  10  11
ENDBRANCH   9  10
ENDBRANCH   8   9
ENDBRANCH   7   8
END_RES LYS A 135
