REMARK VINA RESULT:    -4.748      3.276      7.046
REMARK INTER + INTRA:         -24.545
REMARK INTER:                 -12.748
REMARK INTRA:                 -11.796
REMARK UNBOUND:               -11.748
REMARK SMILES CC(=O)N[C@@H]1[C@@H](O)C[C@](OC[C@H]2O[C@@H](O[C@H]3[C@H](O)[C@@H](O)[C@H](OCCN=[N+]=[N-])O[C@@H]3CO)[C@H](O)[C@@H](O)[C@H]2O)(C(=O)O)O[C@H]1C(O)[C@H](O)CNC(=O)OCc1cn([C@@H](C)C(=O)OCc2ccccc2)nn1
REMARK SMILES IDX 43 1 42 2 9 3 8 4 41 5 6 6 5 7 10 8 11 9 12 10 14 11 13 12
REMARK SMILES IDX 32 13 34 14 36 15 15 16 16 17 29 18 28 19 21 20 17 21 19 22
REMARK SMILES IDX 30 23 31 24 22 26 23 27 24 28 25 29 26 30 27 31 18 32 20 34
REMARK SMILES IDX 33 36 35 38 37 40 38 42 39 43 40 44 7 46 4 48 2 49 1 51 3 52
REMARK SMILES IDX 44 53 45 55 46 56 47 58 48 59 49 60 50 62 51 63 52 64 53 65
REMARK SMILES IDX 54 66 69 67 55 68 68 69 56 70 57 71 58 72 59 73 60 74 61 75
REMARK SMILES IDX 62 76 63 77 67 78 64 79 66 80 65 81
REMARK H PARENT 31 25 18 33 20 35 33 37 35 39 37 41 40 45 7 47 4 50 44 54
REMARK H PARENT 46 57 48 61
REMARK Flexibility Score: inf
ROOT
ATOM      1  C   UNL     1      27.977  35.905  13.999  1.00  0.00     0.176 C 
ENDROOT
BRANCH   1   2
ATOM      2  C   UNL     1      29.030  36.147  12.990  1.00  0.00     0.178 C 
ATOM      3  C   UNL     1      30.995  35.828  14.209  1.00  0.00     0.272 C 
ATOM      4  C   UNL     1      31.301  37.266  14.041  1.00  0.00     0.113 C 
ATOM      5  O   UNL     1      30.169  35.396  13.111  1.00  0.00    -0.332 OA
ATOM      6  C   UNL     1      30.076  38.142  13.920  1.00  0.00     0.145 C 
ATOM      7  C   UNL     1      29.248  37.623  12.784  1.00  0.00     0.142 C 
BRANCH   3   8
ATOM      8  O   UNL     1      30.400  35.374  15.283  1.00  0.00    -0.338 OA
BRANCH   8   9
ATOM      9  C   UNL     1      30.657  35.472  16.555  1.00  0.00     0.199 C 
BRANCH   9  10
ATOM     10  C   UNL     1      30.133  34.507  17.581  1.00  0.00     0.179 C 
ATOM     11  C   UNL     1      28.256  33.177  17.932  1.00  0.00     0.282 C 
ATOM     12  O   UNL     1      28.789  34.352  17.408  1.00  0.00    -0.341 OA
ATOM     13  C   UNL     1      29.100  32.591  19.005  1.00  0.00     0.202 C 
ATOM     14  C   UNL     1      30.450  32.194  18.476  1.00  0.00     0.179 C 
ATOM     15  C   UNL     1      30.874  33.161  17.429  1.00  0.00     0.177 C 
BRANCH  11  16
ATOM     16  O   UNL     1      27.945  32.370  16.872  1.00  0.00    -0.341 OA
BRANCH  16  17
ATOM     17  C   UNL     1      27.042  31.381  17.125  1.00  0.00     0.184 C 
ATOM     18  C   UNL     1      27.072  30.378  16.000  1.00  0.00     0.178 C 
ATOM     19  O   UNL     1      26.045  29.442  16.167  1.00  0.00    -0.341 OA
ATOM     20  C   UNL     1      24.898  30.067  15.616  1.00  0.00     0.281 C 
ATOM     21  C   UNL     1      25.614  31.895  17.221  1.00  0.00     0.180 C 
ATOM     22  C   UNL     1      24.717  31.463  16.121  1.00  0.00     0.202 C 
BRANCH  18  23
ATOM     23  C   UNL     1      28.402  29.717  15.794  1.00  0.00     0.191 C 
BRANCH  23  24
ATOM     24  O   UNL     1      29.219  30.653  15.152  1.00  0.00    -0.394 OA
ATOM     25  H   UNL     1      30.113  30.298  14.932  1.00  0.00     0.210 HD
ENDBRANCH  23  24
ENDBRANCH  18  23
BRANCH  20  26
ATOM     26  O   UNL     1      23.838  29.244  15.829  1.00  0.00    -0.350 OA
BRANCH  26  27
ATOM     27  C   UNL     1      22.904  29.104  14.857  1.00  0.00     0.169 C 
BRANCH  27  28
ATOM     28  C   UNL     1      23.373  28.862  13.467  1.00  0.00     0.119 C 
BRANCH  28  29
ATOM     29  N   UNL     1      23.037  29.830  12.486  1.00  0.00    -0.092 NA
ATOM     30  N   UNL     1      22.685  30.967  12.777  1.00  0.00     0.001 N 
ATOM     31  N   UNL     1      22.488  32.176  12.997  1.00  0.00    -0.003 NA
ENDBRANCH  28  29
ENDBRANCH  27  28
ENDBRANCH  26  27
ENDBRANCH  20  26
BRANCH  21  32
ATOM     32  O   UNL     1      25.030  31.546  18.442  1.00  0.00    -0.387 OA
ATOM     33  H   UNL     1      25.685  31.241  19.110  1.00  0.00     0.211 HD
ENDBRANCH  21  32
BRANCH  22  34
ATOM     34  O   UNL     1      24.742  32.420  15.101  1.00  0.00    -0.385 OA
ATOM     35  H   UNL     1      24.890  31.924  14.251  1.00  0.00     0.211 HD
ENDBRANCH  22  34
ENDBRANCH  16  17
ENDBRANCH  11  16
BRANCH  13  36
ATOM     36  O   UNL     1      29.226  33.547  20.041  1.00  0.00    -0.385 OA
ATOM     37  H   UNL     1      28.478  33.326  20.675  1.00  0.00     0.211 HD
ENDBRANCH  13  36
BRANCH  14  38
ATOM     38  O   UNL     1      30.388  30.888  18.034  1.00  0.00    -0.387 OA
ATOM     39  H   UNL     1      31.172  30.640  17.472  1.00  0.00     0.211 HD
ENDBRANCH  14  38
BRANCH  15  40
ATOM     40  O   UNL     1      30.745  32.653  16.144  1.00  0.00    -0.387 OA
ATOM     41  H   UNL     1      30.932  31.664  16.162  1.00  0.00     0.211 HD
ENDBRANCH  15  40
ENDBRANCH   9  10
ENDBRANCH   8   9
ENDBRANCH   3   8
BRANCH   3  42
ATOM     42  C   UNL     1      32.253  35.055  13.865  1.00  0.00     0.364 C 
ATOM     43  O   UNL     1      33.043  35.455  12.999  1.00  0.00    -0.246 OA
BRANCH  42  44
ATOM     44  O   UNL     1      32.556  33.863  14.519  1.00  0.00    -0.477 OA
ATOM     45  H   UNL     1      32.993  33.066  14.067  1.00  0.00     0.296 HD
ENDBRANCH  42  44
ENDBRANCH   3  42
BRANCH   6  46
ATOM     46  O   UNL     1      29.359  38.238  15.109  1.00  0.00    -0.391 OA
ATOM     47  H   UNL     1      29.941  37.884  15.820  1.00  0.00     0.211 HD
ENDBRANCH   6  46
BRANCH   7  48
ATOM     48  N   UNL     1      29.951  37.889  11.535  1.00  0.00    -0.348 N 
ATOM     49  C   UNL     1      29.186  37.982  10.330  1.00  0.00     0.217 C 
ATOM     50  H   UNL     1      30.980  38.016  11.467  1.00  0.00     0.163 HD
ATOM     51  C   UNL     1      29.907  38.254   9.051  1.00  0.00     0.114 C 
ATOM     52  O   UNL     1      27.934  37.835  10.359  1.00  0.00    -0.275 OA
ENDBRANCH   7  48
ENDBRANCH   1   2
BRANCH   1  53
ATOM     53  O   UNL     1      26.858  36.715  13.685  1.00  0.00    -0.388 OA
ATOM     54  H   UNL     1      27.096  37.679  13.770  1.00  0.00     0.211 HD
ENDBRANCH   1  53
BRANCH   1  55
ATOM     55  C   UNL     1      27.407  34.478  13.965  1.00  0.00     0.165 C 
BRANCH  55  56
ATOM     56  O   UNL     1      28.250  33.567  14.520  1.00  0.00    -0.388 OA
ATOM     57  H   UNL     1      28.223  32.711  14.031  1.00  0.00     0.211 HD
ENDBRANCH  55  56
BRANCH  55  58
ATOM     58  C   UNL     1      26.885  34.144  12.605  1.00  0.00     0.154 C 
BRANCH  58  59
ATOM     59  N   UNL     1      25.450  34.197  12.581  1.00  0.00    -0.319 N 
ATOM     60  C   UNL     1      24.663  35.104  11.834  1.00  0.00     0.407 C 
ATOM     61  H   UNL     1      24.878  33.506  13.164  1.00  0.00     0.167 HD
ATOM     62  O   UNL     1      25.184  35.971  11.128  1.00  0.00    -0.225 OA
BRANCH  60  63
ATOM     63  O   UNL     1      23.261  35.049  11.873  1.00  0.00    -0.443 OA
BRANCH  63  64
ATOM     64  C   UNL     1      22.473  36.195  12.072  1.00  0.00     0.294 C 
BRANCH  64  65
ATOM     65  C   UNL     1      22.194  36.786  10.743  1.00  0.00     0.120 A 
ATOM     66  C   UNL     1      22.306  38.102  10.356  1.00  0.00     0.139 A 
ATOM     67  N   UNL     1      21.768  36.109   9.670  1.00  0.00    -0.132 NA
ATOM     68  N   UNL     1      21.941  38.198   9.047  1.00  0.00    -0.238 N 
ATOM     69  N   UNL     1      21.622  36.978   8.660  1.00  0.00    -0.066 NA
BRANCH  68  70
ATOM     70  C   UNL     1      21.939  39.455   8.341  1.00  0.00     0.215 C 
ATOM     71  C   UNL     1      21.621  40.610   9.273  1.00  0.00     0.046 C 
BRANCH  70  72
ATOM     72  C   UNL     1      23.274  39.693   7.685  1.00  0.00     0.331 C 
ATOM     73  O   UNL     1      23.367  40.569   6.808  1.00  0.00    -0.250 OA
BRANCH  72  74
ATOM     74  O   UNL     1      24.385  38.962   8.037  1.00  0.00    -0.459 OA
BRANCH  74  75
ATOM     75  C   UNL     1      25.707  39.443   8.020  1.00  0.00     0.268 C 
BRANCH  75  76
ATOM     76  C   UNL     1      26.533  38.872   6.936  1.00  0.00    -0.011 A 
ATOM     77  C   UNL     1      26.887  37.549   6.901  1.00  0.00     0.007 A 
ATOM     78  C   UNL     1      26.976  39.677   5.915  1.00  0.00     0.007 A 
ATOM     79  C   UNL     1      27.658  37.014   5.894  1.00  0.00     0.000 A 
ATOM     80  C   UNL     1      27.748  39.186   4.888  1.00  0.00     0.000 A 
ATOM     81  C   UNL     1      28.088  37.839   4.886  1.00  0.00     0.000 A 
ENDBRANCH  75  76
ENDBRANCH  74  75
ENDBRANCH  72  74
ENDBRANCH  70  72
ENDBRANCH  68  70
ENDBRANCH  64  65
ENDBRANCH  63  64
ENDBRANCH  60  63
ENDBRANCH  58  59
ENDBRANCH  55  58
ENDBRANCH   1  55
TORSDOF 34
BEGIN_RES LYS A 131
REMARK  4 active torsions:
REMARK  status: ('A' for Active; 'I' for Inactive)
REMARK    1  A    between atoms: CA   and  CB  
REMARK    2  A    between atoms: CB   and  CG  
REMARK    3  A    between atoms: CG   and  CD  
REMARK    4  A    between atoms: CD   and  CE  
ROOT
ATOM      1  CA  LYS A 131      29.867  25.555  16.977  1.00 20.52     0.186 C 
ENDROOT
BRANCH   1   2
ATOM      2  CB  LYS A 131      28.345  25.722  17.026  1.00 20.94     0.034 C 
BRANCH   2   3
ATOM      3  CG  LYS A 131      27.601  24.405  16.865  1.00 22.96     0.005 C 
BRANCH   3   4
ATOM      4  CD  LYS A 131      26.715  24.108  18.043  1.00 24.33     0.041 C 
BRANCH   4   5
ATOM      5  CE  LYS A 131      26.039  25.394  18.509  1.00 26.91     0.338 C 
ATOM      6  NZ  LYS A 131      24.804  25.643  17.729  1.00 27.40     0.618 N 
ENDBRANCH   4   5
ENDBRANCH   3   4
ENDBRANCH   2   3
ENDBRANCH   1   2
END_RES LYS A 131
BEGIN_RES LYS A 135
REMARK  4 active torsions:
REMARK  status: ('A' for Active; 'I' for Inactive)
REMARK    5  A    between atoms: CA   and  CB  
REMARK    6  A    between atoms: CB   and  CG  
REMARK    7  A    between atoms: CG   and  CD  
REMARK    8  A    between atoms: CD   and  CE  
ROOT
ATOM      7  CA  LYS A 135      33.193  34.663   9.290  1.00 25.02     0.186 C 
ENDROOT
BRANCH   7   8
ATOM      8  CB  LYS A 135      32.060  35.360  10.034  1.00 26.63     0.034 C 
BRANCH   8   9
ATOM      9  CG  LYS A 135      30.733  34.657   9.906  1.00 29.45     0.005 C 
BRANCH   9  10
ATOM     10  CD  LYS A 135      30.317  34.556   8.447  1.00 32.00     0.041 C 
BRANCH  10  11
ATOM     11  CE  LYS A 135      28.806  34.584   8.321  1.00 34.25     0.338 C 
ATOM     12  NZ  LYS A 135      28.161  33.824   9.427  1.00 35.99     0.618 N 
ENDBRANCH  10  11
ENDBRANCH   9  10
ENDBRANCH   8   9
ENDBRANCH   7   8
END_RES LYS A 135
