REMARK VINA RESULT:    -5.979      3.545      7.625
REMARK INTER + INTRA:         -22.643
REMARK INTER:                 -11.693
REMARK INTRA:                 -10.950
REMARK UNBOUND:                -7.575
REMARK SMILES CC(=O)N[C@@H]1[C@@H](O)C[C@](OC[C@H]2O[C@@H](O[C@H]3[C@H](O)[C@@H](O)[C@H](OCCN=[N+]=[N-])O[C@@H]3CO)[C@H](O)[C@@H](O)[C@H]2O)(C(=O)O)O[C@H]1C(O)[C@H](O)CNC(=O)OCc1cn(Cc2ccccc2Br)nn1
REMARK SMILES IDX 9 1 8 2 6 3 5 4 42 5 41 6 10 7 11 8 12 9 14 10 13 11 32 12
REMARK SMILES IDX 34 13 36 14 15 15 16 16 29 17 28 18 21 19 17 20 19 21 30 22
REMARK SMILES IDX 31 23 22 25 23 26 24 27 25 28 26 29 27 30 18 31 20 33 33 35
REMARK SMILES IDX 35 37 37 39 38 41 39 42 40 43 7 45 43 47 44 48 45 50 46 51
REMARK SMILES IDX 47 53 48 54 49 55 50 57 51 58 52 59 53 60 54 61 65 62 55 63
REMARK SMILES IDX 64 64 56 65 57 66 58 67 62 68 59 69 61 70 63 71 60 72 4 73
REMARK SMILES IDX 2 74 1 76 3 77
REMARK H PARENT 31 24 18 32 20 34 33 36 35 38 37 40 40 44 7 46 44 49 46 52
REMARK H PARENT 48 56 4 75
REMARK Flexibility Score: inf
ROOT
ATOM      1  C   UNL     1      25.830  35.161  11.528  1.00  0.00     0.272 C 
ATOM      2  C   UNL     1      25.573  34.277  12.684  1.00  0.00     0.113 C 
ATOM      3  C   UNL     1      26.550  34.509  13.780  1.00  0.00     0.145 C 
ATOM      4  C   UNL     1      26.506  35.955  14.187  1.00  0.00     0.142 C 
ATOM      5  C   UNL     1      26.251  36.894  13.071  1.00  0.00     0.178 C 
ATOM      6  O   UNL     1      25.466  36.490  12.050  1.00  0.00    -0.332 OA
ENDROOT
BRANCH   1   7
ATOM      7  O   UNL     1      25.010  35.002  10.473  1.00  0.00    -0.338 OA
BRANCH   7   8
ATOM      8  C   UNL     1      23.866  35.544  10.201  1.00  0.00     0.199 C 
BRANCH   8   9
ATOM      9  C   UNL     1      23.545  36.831   9.582  1.00  0.00     0.179 C 
ATOM     10  C   UNL     1      24.097  38.582   8.207  1.00  0.00     0.282 C 
ATOM     11  O   UNL     1      24.268  37.196   8.442  1.00  0.00    -0.341 OA
ATOM     12  C   UNL     1      22.740  38.736   7.578  1.00  0.00     0.202 C 
ATOM     13  C   UNL     1      21.688  38.037   8.368  1.00  0.00     0.179 C 
ATOM     14  C   UNL     1      22.142  37.317   9.607  1.00  0.00     0.177 C 
BRANCH  10  15
ATOM     15  O   UNL     1      25.120  38.966   7.393  1.00  0.00    -0.341 OA
BRANCH  15  16
ATOM     16  C   UNL     1      26.325  39.247   7.962  1.00  0.00     0.184 C 
ATOM     17  C   UNL     1      26.826  40.639   7.796  1.00  0.00     0.178 C 
ATOM     18  O   UNL     1      28.144  40.580   7.351  1.00  0.00    -0.341 OA
ATOM     19  C   UNL     1      28.089  39.992   6.061  1.00  0.00     0.281 C 
ATOM     20  C   UNL     1      27.408  38.245   7.592  1.00  0.00     0.180 C 
ATOM     21  C   UNL     1      27.932  38.501   6.194  1.00  0.00     0.202 C 
BRANCH  17  22
ATOM     22  C   UNL     1      26.854  41.405   9.117  1.00  0.00     0.191 C 
BRANCH  22  23
ATOM     23  O   UNL     1      27.884  40.936   9.933  1.00  0.00    -0.394 OA
ATOM     24  H   UNL     1      27.846  41.311  10.842  1.00  0.00     0.210 HD
ENDBRANCH  22  23
ENDBRANCH  17  22
BRANCH  19  25
ATOM     25  O   UNL     1      29.269  40.368   5.426  1.00  0.00    -0.350 OA
BRANCH  25  26
ATOM     26  C   UNL     1      30.310  39.480   5.698  1.00  0.00     0.169 C 
BRANCH  26  27
ATOM     27  C   UNL     1      31.362  40.231   6.496  1.00  0.00     0.119 C 
BRANCH  27  28
ATOM     28  N   UNL     1      31.463  39.611   7.794  1.00  0.00    -0.092 NA
ATOM     29  N   UNL     1      31.081  40.184   8.818  1.00  0.00     0.001 N 
ATOM     30  N   UNL     1      31.079  40.994   9.768  1.00  0.00    -0.003 NA
ENDBRANCH  27  28
ENDBRANCH  26  27
ENDBRANCH  25  26
ENDBRANCH  19  25
BRANCH  20  31
ATOM     31  O   UNL     1      28.506  38.364   8.446  1.00  0.00    -0.387 OA
ATOM     32  H   UNL     1      28.704  37.444   8.778  1.00  0.00     0.211 HD
ENDBRANCH  20  31
BRANCH  21  33
ATOM     33  O   UNL     1      27.165  37.926   5.214  1.00  0.00    -0.385 OA
ATOM     34  H   UNL     1      26.723  37.121   5.571  1.00  0.00     0.211 HD
ENDBRANCH  21  33
ENDBRANCH  15  16
ENDBRANCH  10  15
BRANCH  12  35
ATOM     35  O   UNL     1      22.357  40.086   7.520  1.00  0.00    -0.385 OA
ATOM     36  H   UNL     1      21.373  40.099   7.531  1.00  0.00     0.211 HD
ENDBRANCH  12  35
BRANCH  13  37
ATOM     37  O   UNL     1      21.041  37.108   7.540  1.00  0.00    -0.387 OA
ATOM     38  H   UNL     1      21.057  37.375   6.599  1.00  0.00     0.211 HD
ENDBRANCH  13  37
BRANCH  14  39
ATOM     39  O   UNL     1      21.220  36.307   9.839  1.00  0.00    -0.387 OA
ATOM     40  H   UNL     1      21.554  35.515  10.284  1.00  0.00     0.211 HD
ENDBRANCH  14  39
ENDBRANCH   8   9
ENDBRANCH   7   8
ENDBRANCH   1   7
BRANCH   1  41
ATOM     41  C   UNL     1      27.236  35.408  11.147  1.00  0.00     0.364 C 
ATOM     42  O   UNL     1      27.683  36.429  10.577  1.00  0.00    -0.246 OA
BRANCH  41  43
ATOM     43  O   UNL     1      28.179  34.432  11.426  1.00  0.00    -0.477 OA
ATOM     44  H   UNL     1      28.904  34.176  10.754  1.00  0.00     0.296 HD
ENDBRANCH  41  43
ENDBRANCH   1  41
BRANCH   3  45
ATOM     45  O   UNL     1      26.070  33.728  14.881  1.00  0.00    -0.391 OA
ATOM     46  H   UNL     1      26.683  33.790  15.640  1.00  0.00     0.211 HD
ENDBRANCH   3  45
BRANCH   5  47
ATOM     47  C   UNL     1      25.623  38.178  13.621  1.00  0.00     0.176 C 
BRANCH  47  48
ATOM     48  O   UNL     1      24.262  37.948  13.748  1.00  0.00    -0.388 OA
ATOM     49  H   UNL     1      24.000  37.030  13.562  1.00  0.00     0.211 HD
ENDBRANCH  47  48
BRANCH  47  50
ATOM     50  C   UNL     1      25.849  39.354  12.737  1.00  0.00     0.165 C 
BRANCH  50  51
ATOM     51  O   UNL     1      26.446  38.989  11.518  1.00  0.00    -0.388 OA
ATOM     52  H   UNL     1      25.976  39.427  10.762  1.00  0.00     0.211 HD
ENDBRANCH  50  51
BRANCH  50  53
ATOM     53  C   UNL     1      26.805  40.325  13.380  1.00  0.00     0.154 C 
BRANCH  53  54
ATOM     54  N   UNL     1      28.128  40.118  12.908  1.00  0.00    -0.319 N 
ATOM     55  C   UNL     1      29.176  39.588  13.688  1.00  0.00     0.407 C 
ATOM     56  H   UNL     1      28.336  40.382  11.900  1.00  0.00     0.167 HD
ATOM     57  O   UNL     1      28.997  39.254  14.886  1.00  0.00    -0.225 OA
BRANCH  55  58
ATOM     58  O   UNL     1      30.461  39.411  13.160  1.00  0.00    -0.443 OA
BRANCH  58  59
ATOM     59  C   UNL     1      30.756  38.374  12.263  1.00  0.00     0.294 C 
BRANCH  59  60
ATOM     60  C   UNL     1      30.858  37.037  12.891  1.00  0.00     0.120 A 
ATOM     61  C   UNL     1      32.016  36.557  13.523  1.00  0.00     0.138 A 
ATOM     62  N   UNL     1      29.959  36.055  12.997  1.00  0.00    -0.132 NA
ATOM     63  N   UNL     1      31.763  35.332  13.971  1.00  0.00    -0.248 N 
ATOM     64  N   UNL     1      30.501  35.043  13.640  1.00  0.00    -0.067 NA
BRANCH  63  65
ATOM     65  C   UNL     1      32.634  34.417  14.707  1.00  0.00     0.182 C 
BRANCH  65  66
ATOM     66  C   UNL     1      31.937  33.669  15.775  1.00  0.00    -0.012 A 
ATOM     67  C   UNL     1      31.305  32.469  15.408  1.00  0.00     0.007 A 
ATOM     68  C   UNL     1      31.847  34.081  17.076  1.00  0.00     0.023 A 
ATOM     69  C   UNL     1      30.627  31.763  16.354  1.00  0.00     0.000 A 
ATOM     70  C   UNL     1      31.151  33.352  18.027  1.00  0.00     0.016 A 
ATOM     71  Br  UNL     1      32.729  35.663  17.650  1.00  0.00    -0.050 Br
ATOM     72  C   UNL     1      30.540  32.185  17.653  1.00  0.00     0.001 A 
ENDBRANCH  65  66
ENDBRANCH  63  65
ENDBRANCH  59  60
ENDBRANCH  58  59
ENDBRANCH  55  58
ENDBRANCH  53  54
ENDBRANCH  50  53
ENDBRANCH  47  50
ENDBRANCH   5  47
BRANCH   4  73
ATOM     73  N   UNL     1      27.739  36.291  14.851  1.00  0.00    -0.348 N 
ATOM     74  C   UNL     1      27.915  36.212  16.266  1.00  0.00     0.217 C 
ATOM     75  H   UNL     1      28.577  36.617  14.325  1.00  0.00     0.163 HD
ATOM     76  C   UNL     1      29.225  36.579  16.890  1.00  0.00     0.114 C 
ATOM     77  O   UNL     1      26.959  35.833  16.954  1.00  0.00    -0.275 OA
ENDBRANCH   4  73
TORSDOF 31
BEGIN_RES LYS A 131
REMARK  4 active torsions:
REMARK  status: ('A' for Active; 'I' for Inactive)
REMARK    1  A    between atoms: CA   and  CB  
REMARK    2  A    between atoms: CB   and  CG  
REMARK    3  A    between atoms: CG   and  CD  
REMARK    4  A    between atoms: CD   and  CE  
ROOT
ATOM      1  CA  LYS A 131      29.867  25.555  16.977  1.00 20.52     0.186 C 
ENDROOT
BRANCH   1   2
ATOM      2  CB  LYS A 131      28.345  25.722  17.026  1.00 20.94     0.034 C 
BRANCH   2   3
ATOM      3  CG  LYS A 131      27.601  24.401  16.905  1.00 22.96     0.005 C 
BRANCH   3   4
ATOM      4  CD  LYS A 131      26.158  24.524  17.308  1.00 24.33     0.041 C 
BRANCH   4   5
ATOM      5  CE  LYS A 131      25.933  23.785  18.623  1.00 26.91     0.338 C 
ATOM      6  NZ  LYS A 131      25.552  24.736  19.694  1.00 27.40     0.618 N 
ENDBRANCH   4   5
ENDBRANCH   3   4
ENDBRANCH   2   3
ENDBRANCH   1   2
END_RES LYS A 131
BEGIN_RES LYS A 135
REMARK  4 active torsions:
REMARK  status: ('A' for Active; 'I' for Inactive)
REMARK    5  A    between atoms: CA   and  CB  
REMARK    6  A    between atoms: CB   and  CG  
REMARK    7  A    between atoms: CG   and  CD  
REMARK    8  A    between atoms: CD   and  CE  
ROOT
ATOM      7  CA  LYS A 135      33.193  34.663   9.290  1.00 25.02     0.186 C 
ENDROOT
BRANCH   7   8
ATOM      8  CB  LYS A 135      32.060  35.360  10.034  1.00 26.63     0.034 C 
BRANCH   8   9
ATOM      9  CG  LYS A 135      30.855  35.637   9.173  1.00 29.45     0.005 C 
BRANCH   9  10
ATOM     10  CD  LYS A 135      30.242  34.338   8.674  1.00 32.00     0.041 C 
BRANCH  10  11
ATOM     11  CE  LYS A 135      28.934  34.608   7.954  1.00 34.25     0.338 C 
ATOM     12  NZ  LYS A 135      29.164  35.347   6.683  1.00 35.99     0.618 N 
ENDBRANCH  10  11
ENDBRANCH   9  10
ENDBRANCH   8   9
ENDBRANCH   7   8
END_RES LYS A 135
