REMARK VINA RESULT:    -5.002      3.185      9.182
REMARK INTER + INTRA:         -22.775
REMARK INTER:                 -12.311
REMARK INTRA:                 -10.465
REMARK UNBOUND:               -10.464
REMARK SMILES CC(=O)N[C@@H]1[C@@H](O)C[C@](OC[C@H]2O[C@@H](O[C@H]3[C@H](O)[C@@H](O)[C@H](OCCN=[N+]=[N-])O[C@@H]3CO)[C@H](O)[C@@H](O)[C@H]2O)(C(=O)O)O[C@H]1C(O)[C@H](O)CNC(=O)OCc1cn(-c2c3ccccc3nc3ccccc23)nn1
REMARK SMILES IDX 9 1 8 2 6 3 5 4 42 5 41 6 10 7 11 8 12 9 14 10 13 11 32 12
REMARK SMILES IDX 34 13 36 14 15 15 16 16 29 17 28 18 21 19 17 20 19 21 30 22
REMARK SMILES IDX 31 23 22 25 23 26 24 27 25 28 26 29 27 30 18 31 20 33 33 35
REMARK SMILES IDX 35 37 37 39 38 41 39 42 40 43 7 45 43 47 44 48 45 50 46 51
REMARK SMILES IDX 47 53 48 54 49 55 50 57 51 58 52 59 53 60 54 61 71 62 55 63
REMARK SMILES IDX 70 64 56 65 57 66 69 67 58 68 62 69 64 70 68 71 59 72 61 73
REMARK SMILES IDX 63 74 65 75 67 76 60 77 66 78 4 79 2 80 1 82 3 83
REMARK H PARENT 31 24 18 32 20 34 33 36 35 38 37 40 40 44 7 46 44 49 46 52
REMARK H PARENT 48 56 4 81
REMARK Flexibility Score: inf
ROOT
ATOM      1  C   UNL     1      27.278  38.087   7.632  1.00  0.00     0.272 C 
ATOM      2  C   UNL     1      28.779  37.747   8.093  1.00  0.00     0.113 C 
ATOM      3  C   UNL     1      29.585  38.830   7.474  1.00  0.00     0.145 C 
ATOM      4  C   UNL     1      29.132  40.234   7.816  1.00  0.00     0.142 C 
ATOM      5  C   UNL     1      27.701  40.352   8.136  1.00  0.00     0.178 C 
ATOM      6  O   UNL     1      26.999  39.206   8.298  1.00  0.00    -0.332 OA
ENDROOT
BRANCH   1   7
ATOM      7  O   UNL     1      26.623  37.011   8.235  1.00  0.00    -0.338 OA
BRANCH   7   8
ATOM      8  C   UNL     1      25.364  36.745   7.816  1.00  0.00     0.199 C 
BRANCH   8   9
ATOM      9  C   UNL     1      24.375  36.476   8.885  1.00  0.00     0.179 C 
ATOM     10  C   UNL     1      23.971  35.408  10.920  1.00  0.00     0.282 C 
ATOM     11  O   UNL     1      24.863  35.638   9.850  1.00  0.00    -0.341 OA
ATOM     12  C   UNL     1      22.612  35.925  10.701  1.00  0.00     0.202 C 
ATOM     13  C   UNL     1      22.614  37.380  10.294  1.00  0.00     0.179 C 
ATOM     14  C   UNL     1      23.827  37.761   9.509  1.00  0.00     0.177 C 
BRANCH  10  15
ATOM     15  O   UNL     1      24.545  35.843  12.107  1.00  0.00    -0.341 OA
BRANCH  15  16
ATOM     16  C   UNL     1      25.811  35.257  12.344  1.00  0.00     0.184 C 
ATOM     17  C   UNL     1      25.766  34.450  13.579  1.00  0.00     0.178 C 
ATOM     18  O   UNL     1      27.044  34.216  14.151  1.00  0.00    -0.341 OA
ATOM     19  C   UNL     1      27.536  35.456  14.538  1.00  0.00     0.281 C 
ATOM     20  C   UNL     1      26.749  36.466  12.490  1.00  0.00     0.180 C 
ATOM     21  C   UNL     1      28.008  36.113  13.231  1.00  0.00     0.202 C 
BRANCH  17  22
ATOM     22  C   UNL     1      25.157  33.078  13.331  1.00  0.00     0.191 C 
BRANCH  22  23
ATOM     23  O   UNL     1      25.168  32.268  14.437  1.00  0.00    -0.394 OA
ATOM     24  H   UNL     1      24.689  31.425  14.223  1.00  0.00     0.210 HD
ENDBRANCH  22  23
ENDBRANCH  17  22
BRANCH  19  25
ATOM     25  O   UNL     1      28.561  35.247  15.426  1.00  0.00    -0.350 OA
BRANCH  25  26
ATOM     26  C   UNL     1      28.226  35.476  16.757  1.00  0.00     0.169 C 
BRANCH  26  27
ATOM     27  C   UNL     1      29.135  36.497  17.407  1.00  0.00     0.119 C 
BRANCH  27  28
ATOM     28  N   UNL     1      28.347  37.711  17.594  1.00  0.00    -0.092 NA
ATOM     29  N   UNL     1      27.938  38.352  16.619  1.00  0.00     0.001 N 
ATOM     30  N   UNL     1      27.449  38.991  15.685  1.00  0.00    -0.003 NA
ENDBRANCH  27  28
ENDBRANCH  26  27
ENDBRANCH  25  26
ENDBRANCH  19  25
BRANCH  20  31
ATOM     31  O   UNL     1      26.994  37.023  11.245  1.00  0.00    -0.387 OA
ATOM     32  H   UNL     1      26.184  37.404  10.824  1.00  0.00     0.211 HD
ENDBRANCH  20  31
BRANCH  21  33
ATOM     33  O   UNL     1      28.729  37.259  13.483  1.00  0.00    -0.385 OA
ATOM     34  H   UNL     1      29.151  37.149  14.388  1.00  0.00     0.211 HD
ENDBRANCH  21  33
ENDBRANCH  15  16
ENDBRANCH  10  15
BRANCH  12  35
ATOM     35  O   UNL     1      21.909  35.121   9.791  1.00  0.00    -0.385 OA
ATOM     36  H   UNL     1      21.550  35.755   9.101  1.00  0.00     0.211 HD
ENDBRANCH  12  35
BRANCH  13  37
ATOM     37  O   UNL     1      22.498  38.148  11.468  1.00  0.00    -0.387 OA
ATOM     38  H   UNL     1      21.530  38.438  11.496  1.00  0.00     0.211 HD
ENDBRANCH  13  37
BRANCH  14  39
ATOM     39  O   UNL     1      24.776  38.432  10.252  1.00  0.00    -0.387 OA
ATOM     40  H   UNL     1      24.412  39.220  10.729  1.00  0.00     0.211 HD
ENDBRANCH  14  39
ENDBRANCH   8   9
ENDBRANCH   7   8
ENDBRANCH   1   7
BRANCH   1  41
ATOM     41  C   UNL     1      27.357  38.002   6.212  1.00  0.00     0.364 C 
ATOM     42  O   UNL     1      27.836  36.969   5.643  1.00  0.00    -0.246 OA
BRANCH  41  43
ATOM     43  O   UNL     1      26.940  38.982   5.303  1.00  0.00    -0.477 OA
ATOM     44  H   UNL     1      27.563  39.242   4.549  1.00  0.00     0.296 HD
ENDBRANCH  41  43
ENDBRANCH   1  41
BRANCH   3  45
ATOM     45  O   UNL     1      30.920  38.632   7.903  1.00  0.00    -0.391 OA
ATOM     46  H   UNL     1      31.475  39.392   7.586  1.00  0.00     0.211 HD
ENDBRANCH   3  45
BRANCH   5  47
ATOM     47  C   UNL     1      27.473  41.143   9.454  1.00  0.00     0.176 C 
BRANCH  47  48
ATOM     48  O   UNL     1      26.323  41.872   9.383  1.00  0.00    -0.388 OA
ATOM     49  H   UNL     1      26.408  42.814   9.730  1.00  0.00     0.211 HD
ENDBRANCH  47  48
BRANCH  47  50
ATOM     50  C   UNL     1      27.768  40.373  10.660  1.00  0.00     0.165 C 
BRANCH  50  51
ATOM     51  O   UNL     1      26.679  39.955  11.428  1.00  0.00    -0.388 OA
ATOM     52  H   UNL     1      26.953  39.699  12.344  1.00  0.00     0.211 HD
ENDBRANCH  50  51
BRANCH  50  53
ATOM     53  C   UNL     1      28.966  40.717  11.457  1.00  0.00     0.154 C 
BRANCH  53  54
ATOM     54  N   UNL     1      29.687  39.706  12.135  1.00  0.00    -0.319 N 
ATOM     55  C   UNL     1      30.917  39.155  11.716  1.00  0.00     0.407 C 
ATOM     56  H   UNL     1      29.265  39.316  13.059  1.00  0.00     0.167 HD
ATOM     57  O   UNL     1      31.517  39.470  10.677  1.00  0.00    -0.225 OA
BRANCH  55  58
ATOM     58  O   UNL     1      31.562  38.172  12.491  1.00  0.00    -0.443 OA
BRANCH  58  59
ATOM     59  C   UNL     1      32.020  36.944  11.951  1.00  0.00     0.294 C 
BRANCH  59  60
ATOM     60  C   UNL     1      32.406  36.028  13.063  1.00  0.00     0.121 A 
ATOM     61  C   UNL     1      31.786  35.854  14.282  1.00  0.00     0.144 A 
ATOM     62  N   UNL     1      33.458  35.197  13.085  1.00  0.00    -0.131 NA
ATOM     63  N   UNL     1      32.455  34.937  15.017  1.00  0.00    -0.219 N 
ATOM     64  N   UNL     1      33.471  34.556  14.259  1.00  0.00    -0.062 NA
BRANCH  63  65
ATOM     65  C   UNL     1      32.120  34.488  16.343  1.00  0.00     0.085 A 
ATOM     66  C   UNL     1      32.556  35.203  17.448  1.00  0.00     0.027 A 
ATOM     67  C   UNL     1      31.372  33.355  16.564  1.00  0.00     0.027 A 
ATOM     68  C   UNL     1      33.308  36.347  17.292  1.00  0.00     0.012 A 
ATOM     69  C   UNL     1      32.262  34.808  18.751  1.00  0.00     0.073 A 
ATOM     70  C   UNL     1      31.103  33.000  17.867  1.00  0.00     0.073 A 
ATOM     71  C   UNL     1      30.909  32.605  15.523  1.00  0.00     0.012 A 
ATOM     72  C   UNL     1      33.740  37.059  18.390  1.00  0.00     0.001 A 
ATOM     73  C   UNL     1      32.696  35.522  19.846  1.00  0.00     0.029 A 
ATOM     74  N   UNL     1      31.532  33.700  18.932  1.00  0.00    -0.248 NA
ATOM     75  C   UNL     1      30.356  31.870  18.129  1.00  0.00     0.029 A 
ATOM     76  C   UNL     1      30.160  31.473  15.816  1.00  0.00     0.001 A 
ATOM     77  C   UNL     1      33.446  36.664  19.692  1.00  0.00     0.002 A 
ATOM     78  C   UNL     1      29.867  31.081  17.104  1.00  0.00     0.002 A 
ENDBRANCH  63  65
ENDBRANCH  59  60
ENDBRANCH  58  59
ENDBRANCH  55  58
ENDBRANCH  53  54
ENDBRANCH  50  53
ENDBRANCH  47  50
ENDBRANCH   5  47
BRANCH   4  79
ATOM     79  N   UNL     1      29.580  41.136   6.779  1.00  0.00    -0.348 N 
ATOM     80  C   UNL     1      30.010  40.725   5.482  1.00  0.00     0.217 C 
ATOM     81  H   UNL     1      29.614  42.168   6.946  1.00  0.00     0.163 HD
ATOM     82  C   UNL     1      30.459  41.761   4.493  1.00  0.00     0.114 C 
ATOM     83  O   UNL     1      29.993  39.511   5.224  1.00  0.00    -0.275 OA
ENDBRANCH   4  79
TORSDOF 30
BEGIN_RES LYS A 131
REMARK  4 active torsions:
REMARK  status: ('A' for Active; 'I' for Inactive)
REMARK    1  A    between atoms: CA   and  CB  
REMARK    2  A    between atoms: CB   and  CG  
REMARK    3  A    between atoms: CG   and  CD  
REMARK    4  A    between atoms: CD   and  CE  
ROOT
ATOM      1  CA  LYS A 131      29.867  25.555  16.977  1.00 20.52     0.186 C 
ENDROOT
BRANCH   1   2
ATOM      2  CB  LYS A 131      28.345  25.722  17.026  1.00 20.94     0.034 C 
BRANCH   2   3
ATOM      3  CG  LYS A 131      27.602  24.398  16.932  1.00 22.96     0.005 C 
BRANCH   3   4
ATOM      4  CD  LYS A 131      26.628  24.214  18.062  1.00 24.33     0.041 C 
BRANCH   4   5
ATOM      5  CE  LYS A 131      26.272  25.574  18.655  1.00 26.91     0.338 C 
ATOM      6  NZ  LYS A 131      24.913  25.985  18.230  1.00 27.40     0.618 N 
ENDBRANCH   4   5
ENDBRANCH   3   4
ENDBRANCH   2   3
ENDBRANCH   1   2
END_RES LYS A 131
BEGIN_RES LYS A 135
REMARK  4 active torsions:
REMARK  status: ('A' for Active; 'I' for Inactive)
REMARK    5  A    between atoms: CA   and  CB  
REMARK    6  A    between atoms: CB   and  CG  
REMARK    7  A    between atoms: CG   and  CD  
REMARK    8  A    between atoms: CD   and  CE  
ROOT
ATOM      7  CA  LYS A 135      33.193  34.663   9.290  1.00 25.02     0.186 C 
ENDROOT
BRANCH   7   8
ATOM      8  CB  LYS A 135      32.060  35.360  10.034  1.00 26.63     0.034 C 
BRANCH   8   9
ATOM      9  CG  LYS A 135      30.784  35.454   9.238  1.00 29.45     0.005 C 
BRANCH   9  10
ATOM     10  CD  LYS A 135      30.030  34.134   9.275  1.00 32.00     0.041 C 
BRANCH  10  11
ATOM     11  CE  LYS A 135      28.766  34.266  10.104  1.00 34.25     0.338 C 
ATOM     12  NZ  LYS A 135      27.582  33.748   9.363  1.00 35.99     0.618 N 
ENDBRANCH  10  11
ENDBRANCH   9  10
ENDBRANCH   8   9
ENDBRANCH   7   8
END_RES LYS A 135
