REMARK VINA RESULT:    -4.784      4.154     10.685
REMARK INTER + INTRA:         -22.986
REMARK INTER:                 -13.705
REMARK INTRA:                  -9.281
REMARK UNBOUND:               -10.372
REMARK SMILES CC(=O)N[C@@H]1[C@@H](O)C[C@](OC[C@H]2O[C@@H](O[C@H]3[C@H](O)[C@@H](O)[C@H](OCCN=[N+]=[N-])O[C@@H]3CO)[C@H](O)[C@@H](O)[C@H]2O)(C(=O)O)O[C@H]1C(O)[C@H](O)CNC(=O)OCc1cn(CC(=O)NCc2cccs2)nn1
REMARK SMILES IDX 43 1 42 2 9 3 8 4 41 5 6 6 5 7 10 8 11 9 12 10 14 11 13 12
REMARK SMILES IDX 32 13 34 14 36 15 15 16 16 17 29 18 28 19 21 20 17 21 19 22
REMARK SMILES IDX 30 23 31 24 22 26 23 27 24 28 25 29 26 30 27 31 18 32 20 34
REMARK SMILES IDX 33 36 35 38 37 40 38 42 39 43 40 44 7 46 4 48 2 49 1 51 3 52
REMARK SMILES IDX 44 53 45 55 46 56 47 58 48 59 49 60 50 62 51 63 52 64 53 65
REMARK SMILES IDX 54 66 67 67 55 68 66 69 56 70 57 71 58 72 59 73 60 75 61 76
REMARK SMILES IDX 62 77 65 78 63 79 64 80
REMARK H PARENT 31 25 18 33 20 35 33 37 35 39 37 41 40 45 7 47 4 50 44 54
REMARK H PARENT 46 57 48 61 59 74
REMARK Flexibility Score: inf
ROOT
ATOM      1  C   UNL     1      28.355  28.322  19.955  1.00  0.00     0.176 C 
ENDROOT
BRANCH   1   2
ATOM      2  C   UNL     1      29.104  28.736  21.195  1.00  0.00     0.178 C 
ATOM      3  C   UNL     1      30.803  30.337  20.817  1.00  0.00     0.272 C 
ATOM      4  C   UNL     1      31.732  29.161  20.475  1.00  0.00     0.113 C 
ATOM      5  O   UNL     1      29.525  30.009  21.032  1.00  0.00    -0.332 OA
ATOM      6  C   UNL     1      31.520  28.090  21.467  1.00  0.00     0.145 C 
ATOM      7  C   UNL     1      30.074  27.754  21.726  1.00  0.00     0.142 C 
BRANCH   3   8
ATOM      8  O   UNL     1      30.929  31.183  19.740  1.00  0.00    -0.338 OA
BRANCH   8   9
ATOM      9  C   UNL     1      30.045  32.156  19.510  1.00  0.00     0.199 C 
BRANCH   9  10
ATOM     10  C   UNL     1      29.687  32.517  18.097  1.00  0.00     0.179 C 
ATOM     11  C   UNL     1      30.806  33.290  16.248  1.00  0.00     0.282 C 
ATOM     12  O   UNL     1      30.915  32.488  17.392  1.00  0.00    -0.341 OA
ATOM     13  C   UNL     1      29.524  33.050  15.523  1.00  0.00     0.202 C 
ATOM     14  C   UNL     1      28.772  31.830  15.939  1.00  0.00     0.179 C 
ATOM     15  C   UNL     1      28.835  31.484  17.392  1.00  0.00     0.177 C 
BRANCH  11  16
ATOM     16  O   UNL     1      31.874  33.156  15.405  1.00  0.00    -0.341 OA
BRANCH  16  17
ATOM     17  C   UNL     1      32.641  34.314  15.293  1.00  0.00     0.184 C 
ATOM     18  C   UNL     1      32.072  35.479  15.975  1.00  0.00     0.178 C 
ATOM     19  O   UNL     1      31.588  36.511  15.217  1.00  0.00    -0.341 OA
ATOM     20  C   UNL     1      31.453  36.317  13.880  1.00  0.00     0.281 C 
ATOM     21  C   UNL     1      33.000  34.474  13.843  1.00  0.00     0.180 C 
ATOM     22  C   UNL     1      32.832  35.888  13.347  1.00  0.00     0.202 C 
BRANCH  18  23
ATOM     23  C   UNL     1      33.132  36.127  16.889  1.00  0.00     0.191 C 
BRANCH  23  24
ATOM     24  O   UNL     1      34.417  35.798  16.516  1.00  0.00    -0.394 OA
ATOM     25  H   UNL     1      34.533  36.051  15.560  1.00  0.00     0.210 HD
ENDBRANCH  23  24
ENDBRANCH  18  23
BRANCH  20  26
ATOM     26  O   UNL     1      31.226  37.562  13.269  1.00  0.00    -0.350 OA
BRANCH  26  27
ATOM     27  C   UNL     1      29.879  37.845  13.165  1.00  0.00     0.169 C 
BRANCH  27  28
ATOM     28  C   UNL     1      29.186  36.570  12.675  1.00  0.00     0.119 C 
BRANCH  28  29
ATOM     29  N   UNL     1      28.034  36.297  13.523  1.00  0.00    -0.092 NA
ATOM     30  N   UNL     1      27.205  37.183  13.723  1.00  0.00     0.001 N 
ATOM     31  N   UNL     1      26.238  37.964  13.800  1.00  0.00    -0.003 NA
ENDBRANCH  28  29
ENDBRANCH  27  28
ENDBRANCH  26  27
ENDBRANCH  20  26
BRANCH  21  32
ATOM     32  O   UNL     1      34.273  33.982  13.537  1.00  0.00    -0.387 OA
ATOM     33  H   UNL     1      34.212  33.174  12.941  1.00  0.00     0.211 HD
ENDBRANCH  21  32
BRANCH  22  34
ATOM     34  O   UNL     1      32.842  35.869  11.967  1.00  0.00    -0.385 OA
ATOM     35  H   UNL     1      32.153  35.247  11.619  1.00  0.00     0.211 HD
ENDBRANCH  22  34
ENDBRANCH  16  17
ENDBRANCH  11  16
BRANCH  13  36
ATOM     36  O   UNL     1      28.675  34.180  15.579  1.00  0.00    -0.385 OA
ATOM     37  H   UNL     1      28.870  34.845  14.900  1.00  0.00     0.211 HD
ENDBRANCH  13  36
BRANCH  14  38
ATOM     38  O   UNL     1      29.125  30.728  15.125  1.00  0.00    -0.387 OA
ATOM     39  H   UNL     1      28.522  30.685  14.343  1.00  0.00     0.211 HD
ENDBRANCH  14  38
BRANCH  15  40
ATOM     40  O   UNL     1      29.488  30.231  17.474  1.00  0.00    -0.387 OA
ATOM     41  H   UNL     1      29.033  29.539  16.943  1.00  0.00     0.211 HD
ENDBRANCH  15  40
ENDBRANCH   9  10
ENDBRANCH   8   9
ENDBRANCH   3   8
BRANCH   3  42
ATOM     42  C   UNL     1      31.404  30.930  22.052  1.00  0.00     0.364 C 
ATOM     43  O   UNL     1      32.588  31.325  22.147  1.00  0.00    -0.246 OA
BRANCH  42  44
ATOM     44  O   UNL     1      30.615  31.067  23.188  1.00  0.00    -0.477 OA
ATOM     45  H   UNL     1      29.618  31.217  23.106  1.00  0.00     0.296 HD
ENDBRANCH  42  44
ENDBRANCH   3  42
BRANCH   6  46
ATOM     46  O   UNL     1      32.247  26.931  21.067  1.00  0.00    -0.391 OA
ATOM     47  H   UNL     1      32.982  26.740  21.689  1.00  0.00     0.211 HD
ENDBRANCH   6  46
BRANCH   7  48
ATOM     48  N   UNL     1      29.853  27.478  23.131  1.00  0.00    -0.348 N 
ATOM     49  C   UNL     1      28.649  26.878  23.556  1.00  0.00     0.217 C 
ATOM     50  H   UNL     1      30.570  27.716  23.867  1.00  0.00     0.163 HD
ATOM     51  C   UNL     1      28.439  26.602  25.008  1.00  0.00     0.114 C 
ATOM     52  O   UNL     1      27.719  26.554  22.781  1.00  0.00    -0.275 OA
ENDBRANCH   7  48
ENDBRANCH   1   2
BRANCH   1  53
ATOM     53  O   UNL     1      28.509  27.020  19.577  1.00  0.00    -0.388 OA
ATOM     54  H   UNL     1      29.429  26.686  19.516  1.00  0.00     0.211 HD
ENDBRANCH   1  53
BRANCH   1  55
ATOM     55  C   UNL     1      26.922  28.802  19.883  1.00  0.00     0.165 C 
BRANCH  55  56
ATOM     56  O   UNL     1      26.231  28.631  21.044  1.00  0.00    -0.388 OA
ATOM     57  H   UNL     1      25.292  28.919  21.020  1.00  0.00     0.211 HD
ENDBRANCH  55  56
BRANCH  55  58
ATOM     58  C   UNL     1      26.209  28.139  18.716  1.00  0.00     0.154 C 
BRANCH  58  59
ATOM     59  N   UNL     1      26.469  28.783  17.463  1.00  0.00    -0.319 N 
ATOM     60  C   UNL     1      25.590  29.627  16.740  1.00  0.00     0.407 C 
ATOM     61  H   UNL     1      27.421  28.650  16.965  1.00  0.00     0.167 HD
ATOM     62  O   UNL     1      24.464  29.905  17.150  1.00  0.00    -0.225 OA
BRANCH  60  63
ATOM     63  O   UNL     1      25.969  30.192  15.506  1.00  0.00    -0.443 OA
BRANCH  63  64
ATOM     64  C   UNL     1      25.090  30.699  14.555  1.00  0.00     0.294 C 
BRANCH  64  65
ATOM     65  C   UNL     1      24.987  32.164  14.529  1.00  0.00     0.120 A 
ATOM     66  C   UNL     1      23.847  32.914  14.334  1.00  0.00     0.138 A 
ATOM     67  N   UNL     1      25.996  33.059  14.698  1.00  0.00    -0.132 NA
ATOM     68  N   UNL     1      24.176  34.211  14.386  1.00  0.00    -0.243 N 
ATOM     69  N   UNL     1      25.468  34.261  14.605  1.00  0.00    -0.067 NA
BRANCH  68  70
ATOM     70  C   UNL     1      23.356  35.394  14.248  1.00  0.00     0.245 C 
BRANCH  70  71
ATOM     71  C   UNL     1      23.296  35.758  12.820  1.00  0.00     0.242 C 
ATOM     72  O   UNL     1      22.198  35.887  12.250  1.00  0.00    -0.273 OA
ATOM     73  N   UNL     1      24.487  35.964  12.082  1.00  0.00    -0.350 N 
ATOM     74  H   UNL     1      25.441  35.864  12.528  1.00  0.00     0.163 HD
BRANCH  73  75
ATOM     75  C   UNL     1      24.473  36.320  10.696  1.00  0.00     0.162 C 
BRANCH  75  76
ATOM     76  C   UNL     1      25.497  35.542   9.985  1.00  0.00     0.024 A 
ATOM     77  C   UNL     1      25.844  35.494   8.675  1.00  0.00     0.017 A 
ATOM     78  S   UNL     1      26.603  34.405  10.743  1.00  0.00    -0.147 S 
ATOM     79  C   UNL     1      26.840  34.683   8.286  1.00  0.00     0.012 A 
ATOM     80  C   UNL     1      27.487  33.926   9.191  1.00  0.00     0.065 A 
ENDBRANCH  75  76
ENDBRANCH  73  75
ENDBRANCH  70  71
ENDBRANCH  68  70
ENDBRANCH  64  65
ENDBRANCH  63  64
ENDBRANCH  60  63
ENDBRANCH  58  59
ENDBRANCH  55  58
ENDBRANCH   1  55
TORSDOF 33
BEGIN_RES LYS A 131
REMARK  4 active torsions:
REMARK  status: ('A' for Active; 'I' for Inactive)
REMARK    1  A    between atoms: CA   and  CB  
REMARK    2  A    between atoms: CB   and  CG  
REMARK    3  A    between atoms: CG   and  CD  
REMARK    4  A    between atoms: CD   and  CE  
ROOT
ATOM      1  CA  LYS A 131      29.867  25.555  16.977  1.00 20.52     0.186 C 
ENDROOT
BRANCH   1   2
ATOM      2  CB  LYS A 131      28.345  25.722  17.026  1.00 20.94     0.034 C 
BRANCH   2   3
ATOM      3  CG  LYS A 131      27.602  24.400  16.913  1.00 22.96     0.005 C 
BRANCH   3   4
ATOM      4  CD  LYS A 131      26.281  24.429  17.631  1.00 24.33     0.041 C 
BRANCH   4   5
ATOM      5  CE  LYS A 131      25.781  23.003  17.836  1.00 26.91     0.338 C 
ATOM      6  NZ  LYS A 131      24.425  22.841  17.259  1.00 27.40     0.618 N 
ENDBRANCH   4   5
ENDBRANCH   3   4
ENDBRANCH   2   3
ENDBRANCH   1   2
END_RES LYS A 131
BEGIN_RES LYS A 135
REMARK  4 active torsions:
REMARK  status: ('A' for Active; 'I' for Inactive)
REMARK    5  A    between atoms: CA   and  CB  
REMARK    6  A    between atoms: CB   and  CG  
REMARK    7  A    between atoms: CG   and  CD  
REMARK    8  A    between atoms: CD   and  CE  
ROOT
ATOM      7  CA  LYS A 135      33.193  34.663   9.290  1.00 25.02     0.186 C 
ENDROOT
BRANCH   7   8
ATOM      8  CB  LYS A 135      32.060  35.360  10.034  1.00 26.63     0.034 C 
BRANCH   8   9
ATOM      9  CG  LYS A 135      30.702  35.118   9.427  1.00 29.45     0.005 C 
BRANCH   9  10
ATOM     10  CD  LYS A 135      30.276  36.303   8.575  1.00 32.00     0.041 C 
BRANCH  10  11
ATOM     11  CE  LYS A 135      30.570  37.607   9.290  1.00 34.25     0.338 C 
ATOM     12  NZ  LYS A 135      30.645  38.741   8.328  1.00 35.99     0.618 N 
ENDBRANCH  10  11
ENDBRANCH   9  10
ENDBRANCH   8   9
ENDBRANCH   7   8
END_RES LYS A 135
