REMARK VINA RESULT:    -4.961      3.007      8.541
REMARK INTER + INTRA:         -21.907
REMARK INTER:                 -12.417
REMARK INTRA:                  -9.490
REMARK UNBOUND:                -9.116
REMARK SMILES CC(=O)N[C@@H]1[C@@H](O)C[C@](OC[C@H]2O[C@@H](O[C@H]3[C@H](O)[C@@H](O)[C@H](OCCN=[N+]=[N-])O[C@@H]3CO)[C@H](O)[C@@H](O)[C@H]2O)(C(=O)O)O[C@H]1C(O)[C@H](O)CNC(=O)OCc1cn(CCC2OCCO2)nn1
REMARK SMILES IDX 9 1 8 2 6 3 5 4 42 5 41 6 10 7 11 8 12 9 14 10 13 11 32 12
REMARK SMILES IDX 34 13 36 14 15 15 16 16 29 17 28 18 21 19 17 20 19 21 30 22
REMARK SMILES IDX 31 23 22 25 23 26 24 27 25 28 26 29 27 30 18 31 20 33 33 35
REMARK SMILES IDX 35 37 37 39 38 41 39 42 40 43 7 45 43 47 44 48 45 50 46 51
REMARK SMILES IDX 47 53 48 54 49 55 50 57 51 58 52 59 53 60 54 61 64 62 55 63
REMARK SMILES IDX 63 64 56 65 57 66 58 67 59 68 62 69 60 70 61 71 4 72 2 73
REMARK SMILES IDX 1 75 3 76
REMARK H PARENT 31 24 18 32 20 34 33 36 35 38 37 40 40 44 7 46 44 49 46 52
REMARK H PARENT 48 56 4 74
REMARK Flexibility Score: inf
ROOT
ATOM      1  C   UNL     1      22.846  36.626   9.685  1.00  0.00     0.272 C 
ATOM      2  C   UNL     1      21.805  37.307  10.647  1.00  0.00     0.113 C 
ATOM      3  C   UNL     1      20.697  36.395  10.964  1.00  0.00     0.145 C 
ATOM      4  C   UNL     1      21.239  35.137  11.612  1.00  0.00     0.142 C 
ATOM      5  C   UNL     1      22.674  34.901  11.280  1.00  0.00     0.178 C 
ATOM      6  O   UNL     1      23.121  35.342  10.085  1.00  0.00    -0.332 OA
ENDROOT
BRANCH   1   7
ATOM      7  O   UNL     1      23.920  37.404   9.827  1.00  0.00    -0.338 OA
BRANCH   7   8
ATOM      8  C   UNL     1      24.169  38.583   9.304  1.00  0.00     0.199 C 
BRANCH   8   9
ATOM      9  C   UNL     1      25.409  38.856   8.515  1.00  0.00     0.179 C 
ATOM     10  C   UNL     1      27.739  38.846   8.738  1.00  0.00     0.282 C 
ATOM     11  O   UNL     1      26.503  38.935   9.345  1.00  0.00    -0.341 OA
ATOM     12  C   UNL     1      27.746  38.975   7.260  1.00  0.00     0.202 C 
ATOM     13  C   UNL     1      26.694  38.150   6.570  1.00  0.00     0.179 C 
ATOM     14  C   UNL     1      25.711  37.659   7.580  1.00  0.00     0.177 C 
BRANCH  10  15
ATOM     15  O   UNL     1      28.398  37.728   9.250  1.00  0.00    -0.341 OA
BRANCH  15  16
ATOM     16  C   UNL     1      28.674  37.816  10.607  1.00  0.00     0.184 C 
ATOM     17  C   UNL     1      30.124  37.667  10.954  1.00  0.00     0.178 C 
ATOM     18  O   UNL     1      30.255  37.859  12.331  1.00  0.00    -0.341 OA
ATOM     19  C   UNL     1      29.668  36.853  13.086  1.00  0.00     0.281 C 
ATOM     20  C   UNL     1      27.968  36.639  11.339  1.00  0.00     0.180 C 
ATOM     21  C   UNL     1      28.168  36.938  12.820  1.00  0.00     0.202 C 
BRANCH  17  22
ATOM     22  C   UNL     1      30.914  38.792  10.309  1.00  0.00     0.191 C 
BRANCH  22  23
ATOM     23  O   UNL     1      31.462  38.231   9.128  1.00  0.00    -0.394 OA
ATOM     24  H   UNL     1      32.069  38.847   8.666  1.00  0.00     0.210 HD
ENDBRANCH  22  23
ENDBRANCH  17  22
BRANCH  19  25
ATOM     25  O   UNL     1      29.947  37.071  14.405  1.00  0.00    -0.350 OA
BRANCH  25  26
ATOM     26  C   UNL     1      31.192  36.701  14.828  1.00  0.00     0.169 C 
BRANCH  26  27
ATOM     27  C   UNL     1      31.902  35.714  13.929  1.00  0.00     0.119 C 
BRANCH  27  28
ATOM     28  N   UNL     1      33.219  35.410  14.460  1.00  0.00    -0.092 NA
ATOM     29  N   UNL     1      34.032  34.705  13.867  1.00  0.00     0.001 N 
ATOM     30  N   UNL     1      34.955  34.153  13.275  1.00  0.00    -0.003 NA
ENDBRANCH  27  28
ENDBRANCH  26  27
ENDBRANCH  25  26
ENDBRANCH  19  25
BRANCH  20  31
ATOM     31  O   UNL     1      26.632  36.667  11.024  1.00  0.00    -0.387 OA
ATOM     32  H   UNL     1      26.234  35.780  11.242  1.00  0.00     0.211 HD
ENDBRANCH  20  31
BRANCH  21  33
ATOM     33  O   UNL     1      27.459  35.993  13.531  1.00  0.00    -0.385 OA
ATOM     34  H   UNL     1      27.167  36.401  14.385  1.00  0.00     0.211 HD
ENDBRANCH  21  33
ENDBRANCH  15  16
ENDBRANCH  10  15
BRANCH  12  35
ATOM     35  O   UNL     1      27.622  40.343   6.912  1.00  0.00    -0.385 OA
ATOM     36  H   UNL     1      26.667  40.562   7.079  1.00  0.00     0.211 HD
ENDBRANCH  12  35
BRANCH  13  37
ATOM     37  O   UNL     1      27.251  37.122   5.810  1.00  0.00    -0.387 OA
ATOM     38  H   UNL     1      26.599  36.888   5.099  1.00  0.00     0.211 HD
ENDBRANCH  13  37
BRANCH  14  39
ATOM     39  O   UNL     1      26.162  36.603   8.344  1.00  0.00    -0.387 OA
ATOM     40  H   UNL     1      26.512  36.868   9.231  1.00  0.00     0.211 HD
ENDBRANCH  14  39
ENDBRANCH   8   9
ENDBRANCH   7   8
ENDBRANCH   1   7
BRANCH   1  41
ATOM     41  C   UNL     1      22.121  36.556   8.417  1.00  0.00     0.364 C 
ATOM     42  O   UNL     1      21.729  35.398   7.975  1.00  0.00    -0.246 OA
BRANCH  41  43
ATOM     43  O   UNL     1      21.766  37.586   7.576  1.00  0.00    -0.477 OA
ATOM     44  H   UNL     1      20.821  37.644   7.222  1.00  0.00     0.296 HD
ENDBRANCH  41  43
ENDBRANCH   1  41
BRANCH   3  45
ATOM     45  O   UNL     1      19.861  37.087  11.888  1.00  0.00    -0.391 OA
ATOM     46  H   UNL     1      19.109  36.454  12.103  1.00  0.00     0.211 HD
ENDBRANCH   3  45
BRANCH   5  47
ATOM     47  C   UNL     1      23.540  35.253  12.451  1.00  0.00     0.176 C 
BRANCH  47  48
ATOM     48  O   UNL     1      22.844  35.248  13.670  1.00  0.00    -0.388 OA
ATOM     49  H   UNL     1      22.019  34.683  13.605  1.00  0.00     0.211 HD
ENDBRANCH  47  48
BRANCH  47  50
ATOM     50  C   UNL     1      24.613  34.147  12.661  1.00  0.00     0.165 C 
BRANCH  50  51
ATOM     51  O   UNL     1      25.544  34.250  11.656  1.00  0.00    -0.388 OA
ATOM     52  H   UNL     1      26.095  35.053  11.701  1.00  0.00     0.211 HD
ENDBRANCH  50  51
BRANCH  50  53
ATOM     53  C   UNL     1      23.917  32.857  12.822  1.00  0.00     0.154 C 
BRANCH  53  54
ATOM     54  N   UNL     1      24.287  32.186  14.028  1.00  0.00    -0.319 N 
ATOM     55  C   UNL     1      24.496  30.813  14.141  1.00  0.00     0.407 C 
ATOM     56  H   UNL     1      24.407  32.787  14.883  1.00  0.00     0.167 HD
ATOM     57  O   UNL     1      24.357  30.056  13.167  1.00  0.00    -0.225 OA
BRANCH  55  58
ATOM     58  O   UNL     1      24.871  30.189  15.340  1.00  0.00    -0.443 OA
BRANCH  58  59
ATOM     59  C   UNL     1      25.612  30.886  16.325  1.00  0.00     0.294 C 
BRANCH  59  60
ATOM     60  C   UNL     1      27.066  30.902  16.043  1.00  0.00     0.120 A 
ATOM     61  C   UNL     1      27.782  32.015  15.590  1.00  0.00     0.138 A 
ATOM     62  N   UNL     1      27.981  29.925  16.143  1.00  0.00    -0.132 NA
ATOM     63  N   UNL     1      29.089  31.670  15.437  1.00  0.00    -0.252 N 
ATOM     64  N   UNL     1      29.177  30.405  15.778  1.00  0.00    -0.067 NA
BRANCH  63  65
ATOM     65  C   UNL     1      30.102  32.612  14.984  1.00  0.00     0.151 C 
BRANCH  65  66
ATOM     66  C   UNL     1      31.304  32.591  15.918  1.00  0.00     0.086 C 
BRANCH  66  67
ATOM     67  C   UNL     1      31.074  33.450  17.129  1.00  0.00     0.251 C 
ATOM     68  O   UNL     1      30.984  32.637  18.260  1.00  0.00    -0.350 OA
ATOM     69  O   UNL     1      32.106  34.330  17.386  1.00  0.00    -0.350 OA
ATOM     70  C   UNL     1      31.199  33.498  19.330  1.00  0.00     0.192 C 
ATOM     71  C   UNL     1      31.758  34.757  18.689  1.00  0.00     0.192 C 
ENDBRANCH  66  67
ENDBRANCH  65  66
ENDBRANCH  63  65
ENDBRANCH  59  60
ENDBRANCH  58  59
ENDBRANCH  55  58
ENDBRANCH  53  54
ENDBRANCH  50  53
ENDBRANCH  47  50
ENDBRANCH   5  47
BRANCH   4  72
ATOM     72  N   UNL     1      20.385  33.991  11.307  1.00  0.00    -0.348 N 
ATOM     73  C   UNL     1      20.031  33.020  12.247  1.00  0.00     0.217 C 
ATOM     74  H   UNL     1      20.031  33.924  10.308  1.00  0.00     0.163 HD
ATOM     75  C   UNL     1      19.149  31.873  11.856  1.00  0.00     0.114 C 
ATOM     76  O   UNL     1      20.479  33.149  13.419  1.00  0.00    -0.275 OA
ENDBRANCH   4  72
TORSDOF 32
BEGIN_RES LYS A 131
REMARK  4 active torsions:
REMARK  status: ('A' for Active; 'I' for Inactive)
REMARK    1  A    between atoms: CA   and  CB  
REMARK    2  A    between atoms: CB   and  CG  
REMARK    3  A    between atoms: CG   and  CD  
REMARK    4  A    between atoms: CD   and  CE  
ROOT
ATOM      1  CA  LYS A 131      29.867  25.555  16.977  1.00 20.52     0.186 C 
ENDROOT
BRANCH   1   2
ATOM      2  CB  LYS A 131      28.345  25.722  17.026  1.00 20.94     0.034 C 
BRANCH   2   3
ATOM      3  CG  LYS A 131      27.602  24.398  16.930  1.00 22.96     0.005 C 
BRANCH   3   4
ATOM      4  CD  LYS A 131      26.118  24.568  17.101  1.00 24.33     0.041 C 
BRANCH   4   5
ATOM      5  CE  LYS A 131      25.779  24.624  18.587  1.00 26.91     0.338 C 
ATOM      6  NZ  LYS A 131      25.774  23.261  19.169  1.00 27.40     0.618 N 
ENDBRANCH   4   5
ENDBRANCH   3   4
ENDBRANCH   2   3
ENDBRANCH   1   2
END_RES LYS A 131
BEGIN_RES LYS A 135
REMARK  4 active torsions:
REMARK  status: ('A' for Active; 'I' for Inactive)
REMARK    5  A    between atoms: CA   and  CB  
REMARK    6  A    between atoms: CB   and  CG  
REMARK    7  A    between atoms: CG   and  CD  
REMARK    8  A    between atoms: CD   and  CE  
ROOT
ATOM      7  CA  LYS A 135      33.193  34.663   9.290  1.00 25.02     0.186 C 
ENDROOT
BRANCH   7   8
ATOM      8  CB  LYS A 135      32.060  35.360  10.034  1.00 26.63     0.034 C 
BRANCH   8   9
ATOM      9  CG  LYS A 135      30.740  34.639   9.934  1.00 29.45     0.005 C 
BRANCH   9  10
ATOM     10  CD  LYS A 135      30.337  34.457   8.479  1.00 32.00     0.041 C 
BRANCH  10  11
ATOM     11  CE  LYS A 135      28.827  34.426   8.345  1.00 34.25     0.338 C 
ATOM     12  NZ  LYS A 135      28.203  33.687   9.478  1.00 35.99     0.618 N 
ENDBRANCH  10  11
ENDBRANCH   9  10
ENDBRANCH   8   9
ENDBRANCH   7   8
END_RES LYS A 135
