REMARK VINA RESULT:    -5.117      4.764      8.984
REMARK INTER + INTRA:         -23.012
REMARK INTER:                 -11.897
REMARK INTRA:                 -11.115
REMARK UNBOUND:               -10.416
REMARK SMILES CC(=O)N[C@@H]1[C@@H](O)C[C@](OC[C@H]2O[C@@H](O[C@H]3[C@H](O)[C@@H](O)[C@H](OCCN=[N+]=[N-])O[C@@H]3CO)[C@H](O)[C@@H](O)[C@H]2O)(C(=O)O)O[C@H]1C(O)[C@H](O)CNC(=O)OCc1cn(-c2ccc3c(c2)OCO3)nn1
REMARK SMILES IDX 9 1 8 2 6 3 5 4 42 5 41 6 10 7 11 8 12 9 14 10 13 11 32 12
REMARK SMILES IDX 34 13 36 14 15 15 16 16 29 17 28 18 21 19 17 20 19 21 30 22
REMARK SMILES IDX 31 23 22 25 23 26 24 27 25 28 26 29 27 30 18 31 20 33 33 35
REMARK SMILES IDX 35 37 37 39 38 41 39 42 40 43 7 45 43 47 44 48 45 50 46 51
REMARK SMILES IDX 47 53 48 54 49 55 50 57 51 58 52 59 53 60 54 61 66 62 55 63
REMARK SMILES IDX 65 64 56 65 57 66 61 67 58 68 60 69 59 70 62 71 64 72 63 73
REMARK SMILES IDX 4 74 2 75 1 77 3 78
REMARK H PARENT 31 24 18 32 20 34 33 36 35 38 37 40 40 44 7 46 44 49 46 52
REMARK H PARENT 48 56 4 76
REMARK Flexibility Score: inf
ROOT
ATOM      1  C   UNL     1      28.901  30.952  21.514  1.00  0.00     0.272 C 
ATOM      2  C   UNL     1      29.941  32.009  21.760  1.00  0.00     0.113 C 
ATOM      3  C   UNL     1      31.237  31.736  20.974  1.00  0.00     0.145 C 
ATOM      4  C   UNL     1      31.824  30.488  21.600  1.00  0.00     0.142 C 
ATOM      5  C   UNL     1      30.720  29.452  21.559  1.00  0.00     0.178 C 
ATOM      6  O   UNL     1      29.581  29.840  20.940  1.00  0.00    -0.332 OA
ENDROOT
BRANCH   1   7
ATOM      7  O   UNL     1      27.976  31.286  20.629  1.00  0.00    -0.338 OA
BRANCH   7   8
ATOM      8  C   UNL     1      27.096  30.618  19.949  1.00  0.00     0.199 C 
BRANCH   8   9
ATOM      9  C   UNL     1      26.932  30.785  18.462  1.00  0.00     0.179 C 
ATOM     10  C   UNL     1      27.632  32.241  16.785  1.00  0.00     0.282 C 
ATOM     11  O   UNL     1      27.388  32.031  18.117  1.00  0.00    -0.341 OA
ATOM     12  C   UNL     1      27.112  31.165  15.891  1.00  0.00     0.202 C 
ATOM     13  C   UNL     1      27.635  29.796  16.291  1.00  0.00     0.179 C 
ATOM     14  C   UNL     1      27.809  29.707  17.773  1.00  0.00     0.177 C 
BRANCH  10  15
ATOM     15  O   UNL     1      29.032  32.256  16.624  1.00  0.00    -0.341 OA
BRANCH  15  16
ATOM     16  C   UNL     1      29.618  33.400  17.100  1.00  0.00     0.184 C 
ATOM     17  C   UNL     1      29.020  34.597  16.409  1.00  0.00     0.178 C 
ATOM     18  O   UNL     1      29.621  34.908  15.212  1.00  0.00    -0.341 OA
ATOM     19  C   UNL     1      30.172  33.795  14.574  1.00  0.00     0.281 C 
ATOM     20  C   UNL     1      31.104  33.280  16.852  1.00  0.00     0.180 C 
ATOM     21  C   UNL     1      31.322  33.213  15.357  1.00  0.00     0.202 C 
BRANCH  17  22
ATOM     22  C   UNL     1      29.087  35.840  17.285  1.00  0.00     0.191 C 
BRANCH  22  23
ATOM     23  O   UNL     1      30.125  36.677  16.897  1.00  0.00    -0.394 OA
ATOM     24  H   UNL     1      30.243  36.702  15.898  1.00  0.00     0.210 HD
ENDBRANCH  22  23
ENDBRANCH  17  22
BRANCH  19  25
ATOM     25  O   UNL     1      30.669  34.263  13.365  1.00  0.00    -0.350 OA
BRANCH  25  26
ATOM     26  C   UNL     1      30.597  35.652  13.358  1.00  0.00     0.169 C 
BRANCH  26  27
ATOM     27  C   UNL     1      31.884  36.266  12.818  1.00  0.00     0.119 C 
BRANCH  27  28
ATOM     28  N   UNL     1      32.972  35.779  13.679  1.00  0.00    -0.092 NA
ATOM     29  N   UNL     1      33.011  36.154  14.870  1.00  0.00     0.001 N 
ATOM     30  N   UNL     1      32.900  36.678  15.993  1.00  0.00    -0.003 NA
ENDBRANCH  27  28
ENDBRANCH  26  27
ENDBRANCH  25  26
ENDBRANCH  19  25
BRANCH  20  31
ATOM     31  O   UNL     1      31.843  34.280  17.451  1.00  0.00    -0.387 OA
ATOM     32  H   UNL     1      32.013  35.068  16.857  1.00  0.00     0.211 HD
ENDBRANCH  20  31
BRANCH  21  33
ATOM     33  O   UNL     1      31.427  31.865  15.009  1.00  0.00    -0.385 OA
ATOM     34  H   UNL     1      31.380  31.259  15.792  1.00  0.00     0.211 HD
ENDBRANCH  21  33
ENDBRANCH  15  16
ENDBRANCH  10  15
BRANCH  12  35
ATOM     35  O   UNL     1      25.724  31.105  15.809  1.00  0.00    -0.385 OA
ATOM     36  H   UNL     1      25.445  31.566  14.957  1.00  0.00     0.211 HD
ENDBRANCH  12  35
BRANCH  13  37
ATOM     37  O   UNL     1      28.851  29.593  15.637  1.00  0.00    -0.387 OA
ATOM     38  H   UNL     1      28.773  29.527  14.667  1.00  0.00     0.211 HD
ENDBRANCH  13  37
BRANCH  14  39
ATOM     39  O   UNL     1      29.149  29.931  18.076  1.00  0.00    -0.387 OA
ATOM     40  H   UNL     1      29.319  30.106  19.016  1.00  0.00     0.211 HD
ENDBRANCH  14  39
ENDBRANCH   8   9
ENDBRANCH   7   8
ENDBRANCH   1   7
BRANCH   1  41
ATOM     41  C   UNL     1      28.339  30.444  22.808  1.00  0.00     0.364 C 
ATOM     42  O   UNL     1      28.641  31.125  23.849  1.00  0.00    -0.246 OA
BRANCH  41  43
ATOM     43  O   UNL     1      27.556  29.346  22.968  1.00  0.00    -0.477 OA
ATOM     44  H   UNL     1      27.591  28.534  22.372  1.00  0.00     0.296 HD
ENDBRANCH  41  43
ENDBRANCH   1  41
BRANCH   3  45
ATOM     45  O   UNL     1      30.824  31.494  19.656  1.00  0.00    -0.391 OA
ATOM     46  H   UNL     1      29.883  31.213  19.637  1.00  0.00     0.211 HD
ENDBRANCH   3  45
BRANCH   5  47
ATOM     47  C   UNL     1      31.291  28.314  20.687  1.00  0.00     0.176 C 
BRANCH  47  48
ATOM     48  O   UNL     1      32.621  28.094  20.897  1.00  0.00    -0.388 OA
ATOM     49  H   UNL     1      33.163  28.034  20.072  1.00  0.00     0.211 HD
ENDBRANCH  47  48
BRANCH  47  50
ATOM     50  C   UNL     1      30.512  27.022  20.897  1.00  0.00     0.165 C 
BRANCH  50  51
ATOM     51  O   UNL     1      29.318  27.014  20.257  1.00  0.00    -0.388 OA
ATOM     52  H   UNL     1      28.947  27.882  19.994  1.00  0.00     0.211 HD
ENDBRANCH  50  51
BRANCH  50  53
ATOM     53  C   UNL     1      30.358  26.863  22.377  1.00  0.00     0.154 C 
BRANCH  53  54
ATOM     54  N   UNL     1      28.989  26.769  22.780  1.00  0.00    -0.319 N 
ATOM     55  C   UNL     1      28.513  26.140  23.959  1.00  0.00     0.407 C 
ATOM     56  H   UNL     1      28.206  27.198  22.172  1.00  0.00     0.167 HD
ATOM     57  O   UNL     1      29.303  25.613  24.768  1.00  0.00    -0.225 OA
BRANCH  55  58
ATOM     58  O   UNL     1      27.147  26.088  24.255  1.00  0.00    -0.443 OA
BRANCH  58  59
ATOM     59  C   UNL     1      26.317  25.014  23.907  1.00  0.00     0.294 C 
BRANCH  59  60
ATOM     60  C   UNL     1      25.632  25.341  22.611  1.00  0.00     0.121 A 
ATOM     61  C   UNL     1      25.383  26.626  22.123  1.00  0.00     0.144 A 
ATOM     62  N   UNL     1      25.144  24.508  21.684  1.00  0.00    -0.131 NA
ATOM     63  N   UNL     1      24.757  26.519  20.931  1.00  0.00    -0.220 N 
ATOM     64  N   UNL     1      24.637  25.220  20.709  1.00  0.00    -0.062 NA
BRANCH  63  65
ATOM     65  C   UNL     1      24.324  27.552  20.080  1.00  0.00     0.070 A 
ATOM     66  C   UNL     1      23.801  28.705  20.596  1.00  0.00     0.032 A 
ATOM     67  C   UNL     1      24.423  27.418  18.717  1.00  0.00     0.079 A 
ATOM     68  C   UNL     1      23.376  29.728  19.736  1.00  0.00     0.053 A 
ATOM     69  C   UNL     1      24.009  28.413  17.857  1.00  0.00     0.167 A 
ATOM     70  C   UNL     1      23.486  29.568  18.377  1.00  0.00     0.165 A 
ATOM     71  O   UNL     1      24.015  28.494  16.481  1.00  0.00    -0.454 OA
ATOM     72  O   UNL     1      23.151  30.401  17.316  1.00  0.00    -0.454 OA
ATOM     73  C   UNL     1      23.204  29.628  16.149  1.00  0.00     0.468 C 
ENDBRANCH  63  65
ENDBRANCH  59  60
ENDBRANCH  58  59
ENDBRANCH  55  58
ENDBRANCH  53  54
ENDBRANCH  50  53
ENDBRANCH  47  50
ENDBRANCH   5  47
BRANCH   4  74
ATOM     74  N   UNL     1      32.296  30.796  22.915  1.00  0.00    -0.348 N 
ATOM     75  C   UNL     1      33.603  30.380  23.366  1.00  0.00     0.217 C 
ATOM     76  H   UNL     1      31.758  31.323  23.634  1.00  0.00     0.163 HD
ATOM     77  C   UNL     1      34.083  30.705  24.735  1.00  0.00     0.114 C 
ATOM     78  O   UNL     1      34.331  29.743  22.596  1.00  0.00    -0.275 OA
ENDBRANCH   4  74
TORSDOF 30
BEGIN_RES LYS A 131
REMARK  4 active torsions:
REMARK  status: ('A' for Active; 'I' for Inactive)
REMARK    1  A    between atoms: CA   and  CB  
REMARK    2  A    between atoms: CB   and  CG  
REMARK    3  A    between atoms: CG   and  CD  
REMARK    4  A    between atoms: CD   and  CE  
ROOT
ATOM      1  CA  LYS A 131      29.867  25.555  16.977  1.00 20.52     0.186 C 
ENDROOT
BRANCH   1   2
ATOM      2  CB  LYS A 131      28.345  25.722  17.026  1.00 20.94     0.034 C 
BRANCH   2   3
ATOM      3  CG  LYS A 131      27.603  24.397  16.953  1.00 22.96     0.005 C 
BRANCH   3   4
ATOM      4  CD  LYS A 131      26.460  24.333  17.928  1.00 24.33     0.041 C 
BRANCH   4   5
ATOM      5  CE  LYS A 131      25.385  23.393  17.392  1.00 26.91     0.338 C 
ATOM      6  NZ  LYS A 131      24.058  24.053  17.422  1.00 27.40     0.618 N 
ENDBRANCH   4   5
ENDBRANCH   3   4
ENDBRANCH   2   3
ENDBRANCH   1   2
END_RES LYS A 131
BEGIN_RES LYS A 135
REMARK  4 active torsions:
REMARK  status: ('A' for Active; 'I' for Inactive)
REMARK    5  A    between atoms: CA   and  CB  
REMARK    6  A    between atoms: CB   and  CG  
REMARK    7  A    between atoms: CG   and  CD  
REMARK    8  A    between atoms: CD   and  CE  
ROOT
ATOM      7  CA  LYS A 135      33.193  34.663   9.290  1.00 25.02     0.186 C 
ENDROOT
BRANCH   7   8
ATOM      8  CB  LYS A 135      32.060  35.360  10.034  1.00 26.63     0.034 C 
BRANCH   8   9
ATOM      9  CG  LYS A 135      30.708  34.741   9.789  1.00 29.45     0.005 C 
BRANCH   9  10
ATOM     10  CD  LYS A 135      30.403  34.689   8.300  1.00 32.00     0.041 C 
BRANCH  10  11
ATOM     11  CE  LYS A 135      29.381  35.746   7.929  1.00 34.25     0.338 C 
ATOM     12  NZ  LYS A 135      28.909  35.567   6.528  1.00 35.99     0.618 N 
ENDBRANCH  10  11
ENDBRANCH   9  10
ENDBRANCH   8   9
ENDBRANCH   7   8
END_RES LYS A 135
