REMARK VINA RESULT:    -4.562      6.572     12.387
REMARK INTER + INTRA:         -21.893
REMARK INTER:                 -10.470
REMARK INTRA:                 -11.423
REMARK UNBOUND:               -10.664
REMARK SMILES CC(=O)N[C@@H]1[C@@H](O)C[C@](OC[C@H]2O[C@@H](O[C@H]3[C@H](O)[C@@H](O)[C@H](OCCN=[N+]=[N-])O[C@@H]3CO)[C@H](O)[C@@H](O)[C@H]2O)(C(=O)O)O[C@H]1C(O)[C@H](O)CNC(=O)OCc1cn(-c2ccc(Br)cc2)nn1
REMARK SMILES IDX 9 1 8 2 6 3 5 4 42 5 41 6 10 7 11 8 12 9 14 10 13 11 32 12
REMARK SMILES IDX 34 13 36 14 15 15 16 16 29 17 28 18 21 19 17 20 19 21 30 22
REMARK SMILES IDX 31 23 22 25 23 26 24 27 25 28 26 29 27 30 18 31 20 33 33 35
REMARK SMILES IDX 35 37 37 39 38 41 39 42 40 43 7 45 43 47 44 48 45 50 46 51
REMARK SMILES IDX 47 53 48 54 49 55 50 57 51 58 52 59 53 60 54 61 64 62 55 63
REMARK SMILES IDX 63 64 56 65 57 66 62 67 58 68 61 69 59 70 60 71 4 72 2 73
REMARK SMILES IDX 1 75 3 76
REMARK H PARENT 31 24 18 32 20 34 33 36 35 38 37 40 40 44 7 46 44 49 46 52
REMARK H PARENT 48 56 4 74
REMARK Flexibility Score: inf
ROOT
ATOM      1  C   UNL     1      27.450  39.955   6.092  1.00  0.00     0.272 C 
ATOM      2  C   UNL     1      27.310  41.446   5.677  1.00  0.00     0.113 C 
ATOM      3  C   UNL     1      25.876  41.711   5.409  1.00  0.00     0.145 C 
ATOM      4  C   UNL     1      25.109  41.363   6.701  1.00  0.00     0.142 C 
ATOM      5  C   UNL     1      25.235  39.863   6.826  1.00  0.00     0.178 C 
ATOM      6  O   UNL     1      26.567  39.619   7.076  1.00  0.00    -0.332 OA
ENDROOT
BRANCH   1   7
ATOM      7  O   UNL     1      28.744  39.915   6.623  1.00  0.00    -0.338 OA
BRANCH   7   8
ATOM      8  C   UNL     1      29.586  40.902   6.211  1.00  0.00     0.199 C 
BRANCH   8   9
ATOM      9  C   UNL     1      30.596  41.126   7.356  1.00  0.00     0.179 C 
ATOM     10  C   UNL     1      30.811  40.507   9.587  1.00  0.00     0.282 C 
ATOM     11  O   UNL     1      30.005  40.970   8.577  1.00  0.00    -0.341 OA
ATOM     12  C   UNL     1      32.250  40.759   9.389  1.00  0.00     0.202 C 
ATOM     13  C   UNL     1      32.809  40.381   8.055  1.00  0.00     0.179 C 
ATOM     14  C   UNL     1      31.691  40.103   7.103  1.00  0.00     0.177 C 
BRANCH  10  15
ATOM     15  O   UNL     1      30.434  39.184   9.818  1.00  0.00    -0.341 OA
BRANCH  15  16
ATOM     16  C   UNL     1      29.578  39.068  10.898  1.00  0.00     0.184 C 
ATOM     17  C   UNL     1      29.923  37.899  11.764  1.00  0.00     0.178 C 
ATOM     18  O   UNL     1      29.159  37.914  12.896  1.00  0.00    -0.341 OA
ATOM     19  C   UNL     1      28.024  38.665  12.912  1.00  0.00     0.281 C 
ATOM     20  C   UNL     1      28.144  38.793  10.417  1.00  0.00     0.180 C 
ATOM     21  C   UNL     1      27.234  38.689  11.623  1.00  0.00     0.202 C 
BRANCH  17  22
ATOM     22  C   UNL     1      31.379  37.991  12.179  1.00  0.00     0.191 C 
BRANCH  22  23
ATOM     23  O   UNL     1      32.199  37.473  11.204  1.00  0.00    -0.394 OA
ATOM     24  H   UNL     1      32.236  38.055  10.424  1.00  0.00     0.210 HD
ENDBRANCH  22  23
ENDBRANCH  17  22
BRANCH  19  25
ATOM     25  O   UNL     1      28.217  39.942  13.427  1.00  0.00    -0.350 OA
BRANCH  25  26
ATOM     26  C   UNL     1      27.172  40.813  13.190  1.00  0.00     0.169 C 
BRANCH  26  27
ATOM     27  C   UNL     1      27.586  42.160  12.698  1.00  0.00     0.119 C 
BRANCH  27  28
ATOM     28  N   UNL     1      29.034  42.222  12.593  1.00  0.00    -0.092 NA
ATOM     29  N   UNL     1      29.504  42.950  11.715  1.00  0.00     0.001 N 
ATOM     30  N   UNL     1      30.068  43.753  10.941  1.00  0.00    -0.003 NA
ENDBRANCH  27  28
ENDBRANCH  26  27
ENDBRANCH  25  26
ENDBRANCH  19  25
BRANCH  20  31
ATOM     31  O   UNL     1      27.750  39.754   9.503  1.00  0.00    -0.387 OA
ATOM     32  H   UNL     1      27.438  39.343   8.653  1.00  0.00     0.211 HD
ENDBRANCH  20  31
BRANCH  21  33
ATOM     33  O   UNL     1      26.362  37.625  11.572  1.00  0.00    -0.385 OA
ATOM     34  H   UNL     1      26.522  37.131  10.734  1.00  0.00     0.211 HD
ENDBRANCH  21  33
ENDBRANCH  15  16
ENDBRANCH  10  15
BRANCH  12  35
ATOM     35  O   UNL     1      32.461  42.142   9.649  1.00  0.00    -0.385 OA
ATOM     36  H   UNL     1      31.922  42.411  10.448  1.00  0.00     0.211 HD
ENDBRANCH  12  35
BRANCH  13  37
ATOM     37  O   UNL     1      33.609  39.218   8.163  1.00  0.00    -0.387 OA
ATOM     38  H   UNL     1      33.288  38.614   7.446  1.00  0.00     0.211 HD
ENDBRANCH  13  37
BRANCH  14  39
ATOM     39  O   UNL     1      31.214  38.799   7.209  1.00  0.00    -0.387 OA
ATOM     40  H   UNL     1      30.891  38.614   8.126  1.00  0.00     0.211 HD
ENDBRANCH  14  39
ENDBRANCH   8   9
ENDBRANCH   7   8
ENDBRANCH   1   7
BRANCH   1  41
ATOM     41  C   UNL     1      27.417  39.177   4.856  1.00  0.00     0.364 C 
ATOM     42  O   UNL     1      27.444  39.689   3.711  1.00  0.00    -0.246 OA
BRANCH  41  43
ATOM     43  O   UNL     1      27.357  37.797   4.900  1.00  0.00    -0.477 OA
ATOM     44  H   UNL     1      28.093  37.184   4.554  1.00  0.00     0.296 HD
ENDBRANCH  41  43
ENDBRANCH   1  41
BRANCH   3  45
ATOM     45  O   UNL     1      25.626  43.059   5.191  1.00  0.00    -0.391 OA
ATOM     46  H   UNL     1      25.948  43.578   5.957  1.00  0.00     0.211 HD
ENDBRANCH   3  45
BRANCH   5  47
ATOM     47  C   UNL     1      24.452  39.253   7.938  1.00  0.00     0.176 C 
BRANCH  47  48
ATOM     48  O   UNL     1      24.838  39.975   9.104  1.00  0.00    -0.388 OA
ATOM     49  H   UNL     1      25.572  40.592   8.855  1.00  0.00     0.211 HD
ENDBRANCH  47  48
BRANCH  47  50
ATOM     50  C   UNL     1      24.834  37.818   8.270  1.00  0.00     0.165 C 
BRANCH  50  51
ATOM     51  O   UNL     1      25.208  37.283   7.006  1.00  0.00    -0.388 OA
ATOM     52  H   UNL     1      24.866  37.893   6.279  1.00  0.00     0.211 HD
ENDBRANCH  50  51
BRANCH  50  53
ATOM     53  C   UNL     1      23.664  37.024   8.734  1.00  0.00     0.154 C 
BRANCH  53  54
ATOM     54  N   UNL     1      23.944  36.312   9.940  1.00  0.00    -0.319 N 
ATOM     55  C   UNL     1      23.171  36.394  11.140  1.00  0.00     0.407 C 
ATOM     56  H   UNL     1      24.787  35.655   9.996  1.00  0.00     0.167 HD
ATOM     57  O   UNL     1      22.169  37.147  11.160  1.00  0.00    -0.225 OA
BRANCH  55  58
ATOM     58  O   UNL     1      23.490  35.671  12.266  1.00  0.00    -0.443 OA
BRANCH  58  59
ATOM     59  C   UNL     1      24.047  34.387  12.148  1.00  0.00     0.294 C 
BRANCH  59  60
ATOM     60  C   UNL     1      25.520  34.510  12.079  1.00  0.00     0.121 A 
ATOM     61  C   UNL     1      26.365  34.494  13.195  1.00  0.00     0.144 A 
ATOM     62  N   UNL     1      26.339  34.661  11.028  1.00  0.00    -0.131 NA
ATOM     63  N   UNL     1      27.634  34.634  12.774  1.00  0.00    -0.220 N 
ATOM     64  N   UNL     1      27.585  34.732  11.461  1.00  0.00    -0.062 NA
BRANCH  63  65
ATOM     65  C   UNL     1      28.754  34.664  13.650  1.00  0.00     0.066 A 
ATOM     66  C   UNL     1      30.044  34.468  13.274  1.00  0.00     0.029 A 
ATOM     67  C   UNL     1      28.476  34.926  14.988  1.00  0.00     0.029 A 
ATOM     68  C   UNL     1      31.041  34.534  14.225  1.00  0.00     0.018 A 
ATOM     69  C   UNL     1      29.483  34.989  15.925  1.00  0.00     0.018 A 
ATOM     70  C   UNL     1      30.795  34.791  15.551  1.00  0.00     0.018 A 
ATOM     71  Br  UNL     1      32.205  34.878  16.834  1.00  0.00    -0.051 Br
ENDBRANCH  63  65
ENDBRANCH  59  60
ENDBRANCH  58  59
ENDBRANCH  55  58
ENDBRANCH  53  54
ENDBRANCH  50  53
ENDBRANCH  47  50
ENDBRANCH   5  47
BRANCH   4  72
ATOM     72  N   UNL     1      23.775  41.850   6.521  1.00  0.00    -0.348 N 
ATOM     73  C   UNL     1      23.079  42.554   7.541  1.00  0.00     0.217 C 
ATOM     74  H   UNL     1      23.291  41.688   5.620  1.00  0.00     0.163 HD
ATOM     75  C   UNL     1      21.697  43.067   7.385  1.00  0.00     0.114 C 
ATOM     76  O   UNL     1      23.651  42.766   8.659  1.00  0.00    -0.275 OA
ENDBRANCH   4  72
TORSDOF 30
BEGIN_RES LYS A 131
REMARK  4 active torsions:
REMARK  status: ('A' for Active; 'I' for Inactive)
REMARK    1  A    between atoms: CA   and  CB  
REMARK    2  A    between atoms: CB   and  CG  
REMARK    3  A    between atoms: CG   and  CD  
REMARK    4  A    between atoms: CD   and  CE  
ROOT
ATOM      1  CA  LYS A 131      29.867  25.555  16.977  1.00 20.52     0.186 C 
ENDROOT
BRANCH   1   2
ATOM      2  CB  LYS A 131      28.345  25.722  17.026  1.00 20.94     0.034 C 
BRANCH   2   3
ATOM      3  CG  LYS A 131      27.601  24.403  16.887  1.00 22.96     0.005 C 
BRANCH   3   4
ATOM      4  CD  LYS A 131      26.145  24.534  17.238  1.00 24.33     0.041 C 
BRANCH   4   5
ATOM      5  CE  LYS A 131      25.572  23.157  17.557  1.00 26.91     0.338 C 
ATOM      6  NZ  LYS A 131      24.155  23.072  17.131  1.00 27.40     0.618 N 
ENDBRANCH   4   5
ENDBRANCH   3   4
ENDBRANCH   2   3
ENDBRANCH   1   2
END_RES LYS A 131
BEGIN_RES LYS A 135
REMARK  4 active torsions:
REMARK  status: ('A' for Active; 'I' for Inactive)
REMARK    5  A    between atoms: CA   and  CB  
REMARK    6  A    between atoms: CB   and  CG  
REMARK    7  A    between atoms: CG   and  CD  
REMARK    8  A    between atoms: CD   and  CE  
ROOT
ATOM      7  CA  LYS A 135      33.193  34.663   9.290  1.00 25.02     0.186 C 
ENDROOT
BRANCH   7   8
ATOM      8  CB  LYS A 135      32.060  35.360  10.034  1.00 26.63     0.034 C 
BRANCH   8   9
ATOM      9  CG  LYS A 135      30.693  34.839   9.674  1.00 29.45     0.005 C 
BRANCH   9  10
ATOM     10  CD  LYS A 135      30.010  35.766   8.680  1.00 32.00     0.041 C 
BRANCH  10  11
ATOM     11  CE  LYS A 135      29.429  34.973   7.525  1.00 34.25     0.338 C 
ATOM     12  NZ  LYS A 135      28.014  35.359   7.268  1.00 35.99     0.618 N 
ENDBRANCH  10  11
ENDBRANCH   9  10
ENDBRANCH   8   9
ENDBRANCH   7   8
END_RES LYS A 135
