REMARK VINA RESULT:    -5.159      2.986      8.022
REMARK INTER + INTRA:         -23.898
REMARK INTER:                 -13.261
REMARK INTRA:                 -10.637
REMARK UNBOUND:               -11.198
REMARK SMILES CC(=O)N[C@@H]1[C@@H](O)C[C@](OC[C@H]2O[C@@H](O[C@H]3[C@H](O)[C@@H](O)[C@H](OCCN=[N+]=[N-])O[C@@H]3CO)[C@H](O)[C@@H](O)[C@H]2O)(C(=O)O)O[C@H]1C(O)[C@H](O)CNC(=O)OCc1cn(C23CC4CC(CC(C4)C2)C3)nn1
REMARK SMILES IDX 9 1 8 2 6 3 5 4 42 5 41 6 10 7 11 8 12 9 14 10 13 11 32 12
REMARK SMILES IDX 34 13 36 14 15 15 16 16 29 17 28 18 21 19 17 20 19 21 30 22
REMARK SMILES IDX 31 23 22 25 23 26 24 27 25 28 26 29 27 30 18 31 20 33 33 35
REMARK SMILES IDX 35 37 37 39 38 41 39 42 40 43 7 45 43 47 44 48 45 50 46 51
REMARK SMILES IDX 47 53 48 54 49 55 50 57 51 58 52 59 53 60 54 61 67 62 55 63
REMARK SMILES IDX 66 64 56 65 65 66 64 67 57 68 60 69 62 70 58 71 59 72 61 73
REMARK SMILES IDX 63 74 4 75 2 76 1 78 3 79
REMARK H PARENT 31 24 18 32 20 34 33 36 35 38 37 40 40 44 7 46 44 49 46 52
REMARK H PARENT 48 56 4 77
REMARK Flexibility Score: inf
ROOT
ATOM      1  C   UNL     1      28.213  39.327   6.077  1.00  0.00     0.272 C 
ATOM      2  C   UNL     1      29.464  38.549   6.301  1.00  0.00     0.113 C 
ATOM      3  C   UNL     1      30.441  39.337   7.150  1.00  0.00     0.145 C 
ATOM      4  C   UNL     1      30.987  40.429   6.218  1.00  0.00     0.142 C 
ATOM      5  C   UNL     1      29.785  41.001   5.528  1.00  0.00     0.178 C 
ATOM      6  O   UNL     1      28.576  40.721   6.115  1.00  0.00    -0.332 OA
ENDROOT
BRANCH   1   7
ATOM      7  O   UNL     1      27.249  39.222   6.981  1.00  0.00    -0.338 OA
BRANCH   7   8
ATOM      8  C   UNL     1      26.352  40.092   7.369  1.00  0.00     0.199 C 
BRANCH   8   9
ATOM      9  C   UNL     1      24.906  40.016   7.007  1.00  0.00     0.179 C 
ATOM     10  C   UNL     1      22.782  40.138   7.729  1.00  0.00     0.282 C 
ATOM     11  O   UNL     1      24.111  40.247   8.187  1.00  0.00    -0.341 OA
ATOM     12  C   UNL     1      22.397  41.511   7.283  1.00  0.00     0.202 C 
ATOM     13  C   UNL     1      23.617  42.136   6.632  1.00  0.00     0.179 C 
ATOM     14  C   UNL     1      24.508  41.093   6.003  1.00  0.00     0.177 C 
BRANCH  10  15
ATOM     15  O   UNL     1      21.959  39.595   8.709  1.00  0.00    -0.341 OA
BRANCH  15  16
ATOM     16  C   UNL     1      22.582  38.530   9.289  1.00  0.00     0.184 C 
ATOM     17  C   UNL     1      21.841  37.243   9.330  1.00  0.00     0.178 C 
ATOM     18  O   UNL     1      22.812  36.240   9.553  1.00  0.00    -0.341 OA
ATOM     19  C   UNL     1      23.305  36.305  10.878  1.00  0.00     0.281 C 
ATOM     20  C   UNL     1      22.973  38.813  10.743  1.00  0.00     0.180 C 
ATOM     21  C   UNL     1      23.802  37.670  11.218  1.00  0.00     0.202 C 
BRANCH  17  22
ATOM     22  C   UNL     1      20.988  36.923   8.161  1.00  0.00     0.191 C 
BRANCH  22  23
ATOM     23  O   UNL     1      21.831  36.784   7.047  1.00  0.00    -0.394 OA
ATOM     24  H   UNL     1      22.674  36.318   7.283  1.00  0.00     0.210 HD
ENDBRANCH  22  23
ENDBRANCH  17  22
BRANCH  19  25
ATOM     25  O   UNL     1      24.367  35.430  10.901  1.00  0.00    -0.350 OA
BRANCH  25  26
ATOM     26  C   UNL     1      24.356  34.481  11.856  1.00  0.00     0.169 C 
BRANCH  26  27
ATOM     27  C   UNL     1      22.975  34.099  12.285  1.00  0.00     0.119 C 
BRANCH  27  28
ATOM     28  N   UNL     1      22.996  32.811  12.988  1.00  0.00    -0.092 NA
ATOM     29  N   UNL     1      22.239  31.937  12.585  1.00  0.00     0.001 N 
ATOM     30  N   UNL     1      21.377  31.037  12.492  1.00  0.00    -0.003 NA
ENDBRANCH  27  28
ENDBRANCH  26  27
ENDBRANCH  25  26
ENDBRANCH  19  25
BRANCH  20  31
ATOM     31  O   UNL     1      23.723  39.984  10.848  1.00  0.00    -0.387 OA
ATOM     32  H   UNL     1      23.214  40.641  11.372  1.00  0.00     0.211 HD
ENDBRANCH  20  31
BRANCH  21  33
ATOM     33  O   UNL     1      23.901  37.785  12.603  1.00  0.00    -0.385 OA
ATOM     34  H   UNL     1      23.874  36.906  13.028  1.00  0.00     0.211 HD
ENDBRANCH  21  33
ENDBRANCH  15  16
ENDBRANCH  10  15
BRANCH  12  35
ATOM     35  O   UNL     1      21.288  41.587   6.479  1.00  0.00    -0.385 OA
ATOM     36  H   UNL     1      21.234  42.474   6.050  1.00  0.00     0.211 HD
ENDBRANCH  12  35
BRANCH  13  37
ATOM     37  O   UNL     1      24.327  42.953   7.503  1.00  0.00    -0.387 OA
ATOM     38  H   UNL     1      25.109  43.357   7.007  1.00  0.00     0.211 HD
ENDBRANCH  13  37
BRANCH  14  39
ATOM     39  O   UNL     1      25.670  41.723   5.580  1.00  0.00    -0.387 OA
ATOM     40  H   UNL     1      25.512  42.680   5.365  1.00  0.00     0.211 HD
ENDBRANCH  14  39
ENDBRANCH   8   9
ENDBRANCH   7   8
ENDBRANCH   1   7
BRANCH   1  41
ATOM     41  C   UNL     1      27.763  39.166   4.685  1.00  0.00     0.364 C 
ATOM     42  O   UNL     1      27.408  40.072   3.918  1.00  0.00    -0.246 OA
BRANCH  41  43
ATOM     43  O   UNL     1      27.745  37.822   4.210  1.00  0.00    -0.477 OA
ATOM     44  H   UNL     1      26.876  37.443   3.897  1.00  0.00     0.296 HD
ENDBRANCH  41  43
ENDBRANCH   1  41
BRANCH   3  45
ATOM     45  O   UNL     1      29.753  39.977   8.172  1.00  0.00    -0.391 OA
ATOM     46  H   UNL     1      30.366  40.032   8.949  1.00  0.00     0.211 HD
ENDBRANCH   3  45
BRANCH   5  47
ATOM     47  C   UNL     1      29.835  42.577   5.544  1.00  0.00     0.176 C 
BRANCH  47  48
ATOM     48  O   UNL     1      31.003  42.793   6.306  1.00  0.00    -0.388 OA
ATOM     49  H   UNL     1      31.666  43.151   5.667  1.00  0.00     0.211 HD
ENDBRANCH  47  48
BRANCH  47  50
ATOM     50  C   UNL     1      28.671  43.112   6.249  1.00  0.00     0.165 C 
BRANCH  50  51
ATOM     51  O   UNL     1      27.813  43.917   5.478  1.00  0.00    -0.388 OA
ATOM     52  H   UNL     1      27.948  44.876   5.739  1.00  0.00     0.211 HD
ENDBRANCH  50  51
BRANCH  50  53
ATOM     53  C   UNL     1      28.894  43.772   7.556  1.00  0.00     0.154 C 
BRANCH  53  54
ATOM     54  N   UNL     1      29.025  42.891   8.657  1.00  0.00    -0.319 N 
ATOM     55  C   UNL     1      28.030  42.457   9.544  1.00  0.00     0.407 C 
ATOM     56  H   UNL     1      30.039  42.509   8.827  1.00  0.00     0.167 HD
ATOM     57  O   UNL     1      26.860  42.856   9.438  1.00  0.00    -0.225 OA
BRANCH  55  58
ATOM     58  O   UNL     1      28.387  41.549  10.570  1.00  0.00    -0.443 OA
BRANCH  58  59
ATOM     59  C   UNL     1      27.370  41.089  11.423  1.00  0.00     0.294 C 
BRANCH  59  60
ATOM     60  C   UNL     1      27.359  39.618  11.432  1.00  0.00     0.120 A 
ATOM     61  C   UNL     1      27.719  38.815  10.381  1.00  0.00     0.138 A 
ATOM     62  N   UNL     1      27.009  38.793  12.436  1.00  0.00    -0.132 NA
ATOM     63  N   UNL     1      27.578  37.547  10.776  1.00  0.00    -0.246 N 
ATOM     64  N   UNL     1      27.147  37.565  12.022  1.00  0.00    -0.066 NA
BRANCH  63  65
ATOM     65  C   UNL     1      27.868  36.410   9.925  1.00  0.00     0.065 C 
ATOM     66  C   UNL     1      26.822  36.328   8.860  1.00  0.00     0.034 C 
ATOM     67  C   UNL     1      29.275  36.520   9.373  1.00  0.00     0.034 C 
ATOM     68  C   UNL     1      27.809  35.132  10.743  1.00  0.00     0.034 C 
ATOM     69  C   UNL     1      27.104  35.176   7.928  1.00  0.00    -0.008 C 
ATOM     70  C   UNL     1      29.512  35.402   8.401  1.00  0.00    -0.008 C 
ATOM     71  C   UNL     1      28.123  33.984   9.814  1.00  0.00    -0.008 C 
ATOM     72  C   UNL     1      27.093  33.894   8.722  1.00  0.00     0.007 C 
ATOM     73  C   UNL     1      28.472  35.397   7.323  1.00  0.00     0.007 C 
ATOM     74  C   UNL     1      29.482  34.096   9.181  1.00  0.00     0.007 C 
ENDBRANCH  63  65
ENDBRANCH  59  60
ENDBRANCH  58  59
ENDBRANCH  55  58
ENDBRANCH  53  54
ENDBRANCH  50  53
ENDBRANCH  47  50
ENDBRANCH   5  47
BRANCH   4  75
ATOM     75  N   UNL     1      31.868  39.781   5.240  1.00  0.00    -0.348 N 
ATOM     76  C   UNL     1      33.141  40.328   4.918  1.00  0.00     0.217 C 
ATOM     77  H   UNL     1      31.562  38.899   4.759  1.00  0.00     0.163 HD
ATOM     78  C   UNL     1      34.029  39.651   3.905  1.00  0.00     0.114 C 
ATOM     79  O   UNL     1      33.497  41.378   5.496  1.00  0.00    -0.275 OA
ENDBRANCH   4  75
TORSDOF 30
BEGIN_RES LYS A 131
REMARK  4 active torsions:
REMARK  status: ('A' for Active; 'I' for Inactive)
REMARK    1  A    between atoms: CA   and  CB  
REMARK    2  A    between atoms: CB   and  CG  
REMARK    3  A    between atoms: CG   and  CD  
REMARK    4  A    between atoms: CD   and  CE  
ROOT
ATOM      1  CA  LYS A 131      29.867  25.555  16.977  1.00 20.52     0.186 C 
ENDROOT
BRANCH   1   2
ATOM      2  CB  LYS A 131      28.345  25.722  17.026  1.00 20.94     0.034 C 
BRANCH   2   3
ATOM      3  CG  LYS A 131      27.601  24.402  16.889  1.00 22.96     0.005 C 
BRANCH   3   4
ATOM      4  CD  LYS A 131      26.492  24.270  17.895  1.00 24.33     0.041 C 
BRANCH   4   5
ATOM      5  CE  LYS A 131      25.168  24.665  17.248  1.00 26.91     0.338 C 
ATOM      6  NZ  LYS A 131      24.302  23.475  17.071  1.00 27.40     0.618 N 
ENDBRANCH   4   5
ENDBRANCH   3   4
ENDBRANCH   2   3
ENDBRANCH   1   2
END_RES LYS A 131
BEGIN_RES LYS A 135
REMARK  4 active torsions:
REMARK  status: ('A' for Active; 'I' for Inactive)
REMARK    5  A    between atoms: CA   and  CB  
REMARK    6  A    between atoms: CB   and  CG  
REMARK    7  A    between atoms: CG   and  CD  
REMARK    8  A    between atoms: CD   and  CE  
ROOT
ATOM      7  CA  LYS A 135      33.193  34.663   9.290  1.00 25.02     0.186 C 
ENDROOT
BRANCH   7   8
ATOM      8  CB  LYS A 135      32.060  35.360  10.034  1.00 26.63     0.034 C 
BRANCH   8   9
ATOM      9  CG  LYS A 135      32.377  35.650  11.478  1.00 29.45     0.005 C 
BRANCH   9  10
ATOM     10  CD  LYS A 135      31.160  35.397  12.356  1.00 32.00     0.041 C 
BRANCH  10  11
ATOM     11  CE  LYS A 135      30.610  36.704  12.893  1.00 34.25     0.338 C 
ATOM     12  NZ  LYS A 135      31.388  37.866  12.380  1.00 35.99     0.618 N 
ENDBRANCH  10  11
ENDBRANCH   9  10
ENDBRANCH   8   9
ENDBRANCH   7   8
END_RES LYS A 135
