REMARK VINA RESULT:    -4.639      6.253     13.390
REMARK INTER + INTRA:         -22.082
REMARK INTER:                 -11.464
REMARK INTRA:                 -10.618
REMARK UNBOUND:               -10.664
REMARK SMILES CC(=O)N[C@@H]1[C@@H](O)C[C@](OC[C@H]2O[C@@H](O[C@H]3[C@H](O)[C@@H](O)[C@H](OCCN=[N+]=[N-])O[C@@H]3CO)[C@H](O)[C@@H](O)[C@H]2O)(C(=O)O)O[C@H]1C(O)[C@H](O)CNC(=O)OCc1cn(-c2ccc(Br)cc2)nn1
REMARK SMILES IDX 9 1 8 2 6 3 5 4 42 5 41 6 10 7 11 8 12 9 14 10 13 11 32 12
REMARK SMILES IDX 34 13 36 14 15 15 16 16 29 17 28 18 21 19 17 20 19 21 30 22
REMARK SMILES IDX 31 23 22 25 23 26 24 27 25 28 26 29 27 30 18 31 20 33 33 35
REMARK SMILES IDX 35 37 37 39 38 41 39 42 40 43 7 45 43 47 44 48 45 50 46 51
REMARK SMILES IDX 47 53 48 54 49 55 50 57 51 58 52 59 53 60 54 61 64 62 55 63
REMARK SMILES IDX 63 64 56 65 57 66 62 67 58 68 61 69 59 70 60 71 4 72 2 73
REMARK SMILES IDX 1 75 3 76
REMARK H PARENT 31 24 18 32 20 34 33 36 35 38 37 40 40 44 7 46 44 49 46 52
REMARK H PARENT 48 56 4 74
REMARK Flexibility Score: inf
ROOT
ATOM      1  C   UNL     1      23.586  37.355   9.136  1.00  0.00     0.272 C 
ATOM      2  C   UNL     1      22.519  37.607   8.035  1.00  0.00     0.113 C 
ATOM      3  C   UNL     1      21.799  36.332   7.798  1.00  0.00     0.145 C 
ATOM      4  C   UNL     1      21.191  35.904   9.149  1.00  0.00     0.142 C 
ATOM      5  C   UNL     1      22.383  35.552  10.008  1.00  0.00     0.178 C 
ATOM      6  O   UNL     1      23.049  36.737  10.228  1.00  0.00    -0.332 OA
ENDROOT
BRANCH   1   7
ATOM      7  O   UNL     1      23.953  38.656   9.498  1.00  0.00    -0.338 OA
BRANCH   7   8
ATOM      8  C   UNL     1      23.432  39.654   8.732  1.00  0.00     0.199 C 
BRANCH   8   9
ATOM      9  C   UNL     1      24.564  40.679   8.516  1.00  0.00     0.179 C 
ATOM     10  C   UNL     1      26.884  40.652   8.357  1.00  0.00     0.282 C 
ATOM     11  O   UNL     1      25.753  40.216   9.002  1.00  0.00    -0.341 OA
ATOM     12  C   UNL     1      26.724  41.926   7.631  1.00  0.00     0.202 C 
ATOM     13  C   UNL     1      25.533  42.030   6.733  1.00  0.00     0.179 C 
ATOM     14  C   UNL     1      24.595  40.901   7.013  1.00  0.00     0.177 C 
BRANCH  10  15
ATOM     15  O   UNL     1      27.361  39.569   7.620  1.00  0.00    -0.341 OA
BRANCH  15  16
ATOM     16  C   UNL     1      28.687  39.727   7.261  1.00  0.00     0.184 C 
ATOM     17  C   UNL     1      29.039  38.927   6.049  1.00  0.00     0.178 C 
ATOM     18  O   UNL     1      30.305  39.233   5.638  1.00  0.00    -0.341 OA
ATOM     19  C   UNL     1      31.148  39.849   6.512  1.00  0.00     0.281 C 
ATOM     20  C   UNL     1      29.609  39.190   8.369  1.00  0.00     0.180 C 
ATOM     21  C   UNL     1      31.049  39.395   7.951  1.00  0.00     0.202 C 
BRANCH  17  22
ATOM     22  C   UNL     1      28.084  39.272   4.922  1.00  0.00     0.191 C 
BRANCH  22  23
ATOM     23  O   UNL     1      27.007  38.418   4.916  1.00  0.00    -0.394 OA
ATOM     24  H   UNL     1      27.244  37.544   5.273  1.00  0.00     0.210 HD
ENDBRANCH  22  23
ENDBRANCH  17  22
BRANCH  19  25
ATOM     25  O   UNL     1      31.136  41.236   6.402  1.00  0.00    -0.350 OA
BRANCH  25  26
ATOM     26  C   UNL     1      31.764  41.892   7.442  1.00  0.00     0.169 C 
BRANCH  26  27
ATOM     27  C   UNL     1      31.036  43.093   7.947  1.00  0.00     0.119 C 
BRANCH  27  28
ATOM     28  N   UNL     1      31.035  43.094   9.400  1.00  0.00    -0.092 NA
ATOM     29  N   UNL     1      29.946  42.947   9.961  1.00  0.00     0.001 N 
ATOM     30  N   UNL     1      28.913  42.682  10.612  1.00  0.00    -0.003 NA
ENDBRANCH  27  28
ENDBRANCH  26  27
ENDBRANCH  25  26
ENDBRANCH  19  25
BRANCH  20  31
ATOM     31  O   UNL     1      29.292  39.774   9.583  1.00  0.00    -0.387 OA
ATOM     32  H   UNL     1      28.742  40.593   9.462  1.00  0.00     0.211 HD
ENDBRANCH  20  31
BRANCH  21  33
ATOM     33  O   UNL     1      31.853  38.299   8.166  1.00  0.00    -0.385 OA
ATOM     34  H   UNL     1      31.627  37.915   9.046  1.00  0.00     0.211 HD
ENDBRANCH  21  33
ENDBRANCH  15  16
ENDBRANCH  10  15
BRANCH  12  35
ATOM     35  O   UNL     1      26.704  42.955   8.613  1.00  0.00    -0.385 OA
ATOM     36  H   UNL     1      27.238  43.734   8.283  1.00  0.00     0.211 HD
ENDBRANCH  12  35
BRANCH  13  37
ATOM     37  O   UNL     1      25.927  41.962   5.375  1.00  0.00    -0.387 OA
ATOM     38  H   UNL     1      26.302  42.854   5.167  1.00  0.00     0.211 HD
ENDBRANCH  13  37
BRANCH  14  39
ATOM     39  O   UNL     1      24.939  39.739   6.326  1.00  0.00    -0.387 OA
ATOM     40  H   UNL     1      24.500  38.949   6.728  1.00  0.00     0.211 HD
ENDBRANCH  14  39
ENDBRANCH   8   9
ENDBRANCH   7   8
ENDBRANCH   1   7
BRANCH   1  41
ATOM     41  C   UNL     1      24.716  36.705   8.477  1.00  0.00     0.364 C 
ATOM     42  O   UNL     1      25.187  35.599   8.834  1.00  0.00    -0.246 OA
BRANCH  41  43
ATOM     43  O   UNL     1      25.331  37.303   7.393  1.00  0.00    -0.477 OA
ATOM     44  H   UNL     1      26.321  37.204   7.174  1.00  0.00     0.296 HD
ENDBRANCH  41  43
ENDBRANCH   1  41
BRANCH   3  45
ATOM     45  O   UNL     1      20.715  36.495   6.948  1.00  0.00    -0.391 OA
ATOM     46  H   UNL     1      20.840  37.306   6.412  1.00  0.00     0.211 HD
ENDBRANCH   3  45
BRANCH   5  47
ATOM     47  C   UNL     1      22.052  34.970  11.340  1.00  0.00     0.176 C 
BRANCH  47  48
ATOM     48  O   UNL     1      21.071  35.842  11.893  1.00  0.00    -0.388 OA
ATOM     49  H   UNL     1      21.456  36.267  12.700  1.00  0.00     0.211 HD
ENDBRANCH  47  48
BRANCH  47  50
ATOM     50  C   UNL     1      23.184  35.027  12.355  1.00  0.00     0.165 C 
BRANCH  50  51
ATOM     51  O   UNL     1      23.202  33.710  12.894  1.00  0.00    -0.388 OA
ATOM     52  H   UNL     1      23.809  33.135  12.331  1.00  0.00     0.211 HD
ENDBRANCH  50  51
BRANCH  50  53
ATOM     53  C   UNL     1      22.872  35.942  13.487  1.00  0.00     0.154 C 
BRANCH  53  54
ATOM     54  N   UNL     1      23.517  37.208  13.346  1.00  0.00    -0.319 N 
ATOM     55  C   UNL     1      24.727  37.591  14.006  1.00  0.00     0.407 C 
ATOM     56  H   UNL     1      23.099  37.959  12.708  1.00  0.00     0.167 HD
ATOM     57  O   UNL     1      25.277  36.770  14.777  1.00  0.00    -0.225 OA
BRANCH  55  58
ATOM     58  O   UNL     1      25.303  38.826  13.817  1.00  0.00    -0.443 OA
BRANCH  58  59
ATOM     59  C   UNL     1      25.639  39.259  12.524  1.00  0.00     0.294 C 
BRANCH  59  60
ATOM     60  C   UNL     1      26.736  38.411  12.007  1.00  0.00     0.121 A 
ATOM     61  C   UNL     1      27.865  38.044  12.749  1.00  0.00     0.144 A 
ATOM     62  N   UNL     1      26.911  37.839  10.807  1.00  0.00    -0.131 NA
ATOM     63  N   UNL     1      28.657  37.281  11.976  1.00  0.00    -0.220 N 
ATOM     64  N   UNL     1      28.053  37.176  10.809  1.00  0.00    -0.062 NA
BRANCH  63  65
ATOM     65  C   UNL     1      29.896  36.738  12.415  1.00  0.00     0.066 A 
ATOM     66  C   UNL     1      31.086  37.391  12.391  1.00  0.00     0.029 A 
ATOM     67  C   UNL     1      29.852  35.439  12.910  1.00  0.00     0.029 A 
ATOM     68  C   UNL     1      32.216  36.752  12.858  1.00  0.00     0.018 A 
ATOM     69  C   UNL     1      30.989  34.814  13.372  1.00  0.00     0.018 A 
ATOM     70  C   UNL     1      32.201  35.471  13.352  1.00  0.00     0.018 A 
ATOM     71  Br  UNL     1      33.787  34.624  13.990  1.00  0.00    -0.051 Br
ENDBRANCH  63  65
ENDBRANCH  59  60
ENDBRANCH  58  59
ENDBRANCH  55  58
ENDBRANCH  53  54
ENDBRANCH  50  53
ENDBRANCH  47  50
ENDBRANCH   5  47
BRANCH   4  72
ATOM     72  N   UNL     1      20.302  34.819   8.865  1.00  0.00    -0.348 N 
ATOM     73  C   UNL     1      18.982  34.762   9.389  1.00  0.00     0.217 C 
ATOM     74  H   UNL     1      20.623  34.044   8.260  1.00  0.00     0.163 HD
ATOM     75  C   UNL     1      18.040  33.651   9.115  1.00  0.00     0.114 C 
ATOM     76  O   UNL     1      18.563  35.704  10.138  1.00  0.00    -0.275 OA
ENDBRANCH   4  72
TORSDOF 30
BEGIN_RES LYS A 131
REMARK  4 active torsions:
REMARK  status: ('A' for Active; 'I' for Inactive)
REMARK    1  A    between atoms: CA   and  CB  
REMARK    2  A    between atoms: CB   and  CG  
REMARK    3  A    between atoms: CG   and  CD  
REMARK    4  A    between atoms: CD   and  CE  
ROOT
ATOM      1  CA  LYS A 131      29.867  25.555  16.977  1.00 20.52     0.186 C 
ENDROOT
BRANCH   1   2
ATOM      2  CB  LYS A 131      28.345  25.722  17.026  1.00 20.94     0.034 C 
BRANCH   2   3
ATOM      3  CG  LYS A 131      27.602  24.400  16.912  1.00 22.96     0.005 C 
BRANCH   3   4
ATOM      4  CD  LYS A 131      26.439  24.320  17.862  1.00 24.33     0.041 C 
BRANCH   4   5
ATOM      5  CE  LYS A 131      26.386  25.588  18.709  1.00 26.91     0.338 C 
ATOM      6  NZ  LYS A 131      25.060  26.240  18.584  1.00 27.40     0.618 N 
ENDBRANCH   4   5
ENDBRANCH   3   4
ENDBRANCH   2   3
ENDBRANCH   1   2
END_RES LYS A 131
BEGIN_RES LYS A 135
REMARK  4 active torsions:
REMARK  status: ('A' for Active; 'I' for Inactive)
REMARK    5  A    between atoms: CA   and  CB  
REMARK    6  A    between atoms: CB   and  CG  
REMARK    7  A    between atoms: CG   and  CD  
REMARK    8  A    between atoms: CD   and  CE  
ROOT
ATOM      7  CA  LYS A 135      33.193  34.663   9.290  1.00 25.02     0.186 C 
ENDROOT
BRANCH   7   8
ATOM      8  CB  LYS A 135      32.060  35.360  10.034  1.00 26.63     0.034 C 
BRANCH   8   9
ATOM      9  CG  LYS A 135      30.758  35.369   9.276  1.00 29.45     0.005 C 
BRANCH   9  10
ATOM     10  CD  LYS A 135      30.062  34.021   9.387  1.00 32.00     0.041 C 
BRANCH  10  11
ATOM     11  CE  LYS A 135      28.617  34.129   8.941  1.00 34.25     0.338 C 
ATOM     12  NZ  LYS A 135      28.471  35.102   7.823  1.00 35.99     0.618 N 
ENDBRANCH  10  11
ENDBRANCH   9  10
ENDBRANCH   8   9
ENDBRANCH   7   8
END_RES LYS A 135
