REMARK VINA RESULT:    -4.083      3.494      6.950
REMARK INTER + INTRA:         -23.755
REMARK INTER:                 -11.523
REMARK INTRA:                 -12.232
REMARK UNBOUND:               -13.108
REMARK SMILES CC(=O)N[C@@H]1[C@@H](O)C[C@](OC[C@H]2O[C@@H](O[C@H]3[C@H](O)[C@@H](O)[C@H](OCCN=[N+]=[N-])O[C@@H]3CO)[C@H](O)[C@@H](O)[C@H]2O)(C(=O)O)O[C@H]1C(O)[C@H](O)CNC(=O)OCc1cn(-c2cccc(C=CC(=O)O)c2)nn1
REMARK SMILES IDX 43 1 42 2 9 3 8 4 41 5 6 6 5 7 10 8 11 9 12 10 14 11 13 12
REMARK SMILES IDX 32 13 34 14 36 15 15 16 16 17 29 18 28 19 21 20 17 21 19 22
REMARK SMILES IDX 30 23 31 24 22 26 23 27 24 28 25 29 26 30 27 31 18 32 20 34
REMARK SMILES IDX 33 36 35 38 37 40 38 42 39 43 40 44 7 46 4 48 2 49 1 51 3 52
REMARK SMILES IDX 44 53 45 55 46 56 47 58 48 59 49 60 50 62 51 63 52 64 53 65
REMARK SMILES IDX 54 66 68 67 55 68 67 69 56 70 66 71 57 72 60 73 58 74 59 75
REMARK SMILES IDX 61 76 62 77 63 78 64 79 65 80
REMARK H PARENT 31 25 18 33 20 35 33 37 35 39 37 41 40 45 7 47 4 50 44 54
REMARK H PARENT 46 57 48 61 65 81
REMARK Flexibility Score: inf
ROOT
ATOM      1  C   UNL     1      25.253  38.738   7.933  1.00  0.00     0.176 C 
ENDROOT
BRANCH   1   2
ATOM      2  C   UNL     1      24.892  38.205   9.304  1.00  0.00     0.178 C 
ATOM      3  C   UNL     1      23.073  37.099  10.318  1.00  0.00     0.272 C 
ATOM      4  C   UNL     1      24.132  37.311  11.504  1.00  0.00     0.113 C 
ATOM      5  O   UNL     1      23.608  37.741   9.221  1.00  0.00    -0.332 OA
ATOM      6  C   UNL     1      24.318  38.783  11.600  1.00  0.00     0.145 C 
ATOM      7  C   UNL     1      24.979  39.295  10.335  1.00  0.00     0.142 C 
BRANCH   3   8
ATOM      8  O   UNL     1      22.011  37.781  10.762  1.00  0.00    -0.338 OA
BRANCH   8   9
ATOM      9  C   UNL     1      20.741  37.447  10.621  1.00  0.00     0.199 C 
BRANCH   9  10
ATOM     10  C   UNL     1      19.711  38.530  10.373  1.00  0.00     0.179 C 
ATOM     11  C   UNL     1      20.025  40.865  10.164  1.00  0.00     0.282 C 
ATOM     12  O   UNL     1      20.195  39.685  10.861  1.00  0.00    -0.341 OA
ATOM     13  C   UNL     1      18.753  40.828   9.413  1.00  0.00     0.202 C 
ATOM     14  C   UNL     1      18.592  39.673   8.473  1.00  0.00     0.179 C 
ATOM     15  C   UNL     1      19.569  38.593   8.859  1.00  0.00     0.177 C 
BRANCH  11  16
ATOM     16  O   UNL     1      21.190  41.068   9.457  1.00  0.00    -0.341 OA
BRANCH  16  17
ATOM     17  C   UNL     1      21.707  42.317   9.504  1.00  0.00     0.184 C 
ATOM     18  C   UNL     1      22.112  42.795   8.143  1.00  0.00     0.178 C 
ATOM     19  O   UNL     1      22.260  44.197   8.278  1.00  0.00    -0.341 OA
ATOM     20  C   UNL     1      23.423  44.476   9.000  1.00  0.00     0.281 C 
ATOM     21  C   UNL     1      22.986  42.395  10.344  1.00  0.00     0.180 C 
ATOM     22  C   UNL     1      23.445  43.838  10.349  1.00  0.00     0.202 C 
BRANCH  18  23
ATOM     23  C   UNL     1      21.139  42.509   7.056  1.00  0.00     0.191 C 
BRANCH  23  24
ATOM     24  O   UNL     1      21.255  41.173   6.679  1.00  0.00    -0.394 OA
ATOM     25  H   UNL     1      20.474  40.645   7.034  1.00  0.00     0.210 HD
ENDBRANCH  23  24
ENDBRANCH  18  23
BRANCH  20  26
ATOM     26  O   UNL     1      23.493  45.858   9.155  1.00  0.00    -0.350 OA
BRANCH  26  27
ATOM     27  C   UNL     1      24.722  46.367   8.742  1.00  0.00     0.169 C 
BRANCH  27  28
ATOM     28  C   UNL     1      25.310  45.405   7.735  1.00  0.00     0.119 C 
BRANCH  28  29
ATOM     29  N   UNL     1      26.567  44.899   8.233  1.00  0.00    -0.092 NA
ATOM     30  N   UNL     1      26.770  43.674   8.300  1.00  0.00     0.001 N 
ATOM     31  N   UNL     1      26.840  42.518   8.747  1.00  0.00    -0.003 NA
ENDBRANCH  28  29
ENDBRANCH  27  28
ENDBRANCH  26  27
ENDBRANCH  20  26
BRANCH  21  32
ATOM     32  O   UNL     1      22.770  42.034  11.668  1.00  0.00    -0.387 OA
ATOM     33  H   UNL     1      21.890  42.420  11.906  1.00  0.00     0.211 HD
ENDBRANCH  21  32
BRANCH  22  34
ATOM     34  O   UNL     1      24.795  43.808  10.770  1.00  0.00    -0.385 OA
ATOM     35  H   UNL     1      25.032  42.952  11.190  1.00  0.00     0.211 HD
ENDBRANCH  22  34
ENDBRANCH  16  17
ENDBRANCH  11  16
BRANCH  13  36
ATOM     36  O   UNL     1      17.670  40.759  10.338  1.00  0.00    -0.385 OA
ATOM     37  H   UNL     1      17.995  41.028  11.242  1.00  0.00     0.211 HD
ENDBRANCH  13  36
BRANCH  14  38
ATOM     38  O   UNL     1      18.712  40.020   7.125  1.00  0.00    -0.387 OA
ATOM     39  H   UNL     1      19.179  39.319   6.603  1.00  0.00     0.211 HD
ENDBRANCH  14  38
BRANCH  15  40
ATOM     40  O   UNL     1      20.786  38.848   8.259  1.00  0.00    -0.387 OA
ATOM     41  H   UNL     1      20.685  39.106   7.290  1.00  0.00     0.211 HD
ENDBRANCH  15  40
ENDBRANCH   9  10
ENDBRANCH   8   9
ENDBRANCH   3   8
BRANCH   3  42
ATOM     42  C   UNL     1      23.023  35.660  10.112  1.00  0.00     0.364 C 
ATOM     43  O   UNL     1      23.150  34.747  10.947  1.00  0.00    -0.246 OA
BRANCH  42  44
ATOM     44  O   UNL     1      22.801  35.203   8.790  1.00  0.00    -0.477 OA
ATOM     45  H   UNL     1      22.803  35.910   8.039  1.00  0.00     0.296 HD
ENDBRANCH  42  44
ENDBRANCH   3  42
BRANCH   6  46
ATOM     46  O   UNL     1      22.997  39.341  11.671  1.00  0.00    -0.391 OA
ATOM     47  H   UNL     1      22.577  39.080  12.537  1.00  0.00     0.211 HD
ENDBRANCH   6  46
BRANCH   7  48
ATOM     48  N   UNL     1      26.256  39.886  10.512  1.00  0.00    -0.348 N 
ATOM     49  C   UNL     1      27.453  39.272  10.894  1.00  0.00     0.217 C 
ATOM     50  H   UNL     1      26.340  40.958  10.363  1.00  0.00     0.163 HD
ATOM     51  C   UNL     1      28.701  40.122  11.035  1.00  0.00     0.114 C 
ATOM     52  O   UNL     1      27.576  38.041  11.133  1.00  0.00    -0.275 OA
ENDBRANCH   7  48
ENDBRANCH   1   2
BRANCH   1  53
ATOM     53  O   UNL     1      25.377  37.684   7.047  1.00  0.00    -0.388 OA
ATOM     54  H   UNL     1      25.161  37.894   6.121  1.00  0.00     0.211 HD
ENDBRANCH   1  53
BRANCH   1  55
ATOM     55  C   UNL     1      24.155  39.640   7.367  1.00  0.00     0.165 C 
BRANCH  55  56
ATOM     56  O   UNL     1      23.110  38.955   6.812  1.00  0.00    -0.388 OA
ATOM     57  H   UNL     1      22.223  39.349   6.977  1.00  0.00     0.211 HD
ENDBRANCH  55  56
BRANCH  55  58
ATOM     58  C   UNL     1      24.721  40.656   6.427  1.00  0.00     0.154 C 
BRANCH  58  59
ATOM     59  N   UNL     1      25.833  40.156   5.703  1.00  0.00    -0.319 N 
ATOM     60  C   UNL     1      26.813  40.996   5.128  1.00  0.00     0.407 C 
ATOM     61  H   UNL     1      25.967  39.117   5.567  1.00  0.00     0.167 HD
ATOM     62  O   UNL     1      26.737  42.251   5.235  1.00  0.00    -0.225 OA
BRANCH  60  63
ATOM     63  O   UNL     1      27.906  40.497   4.424  1.00  0.00    -0.443 OA
BRANCH  63  64
ATOM     64  C   UNL     1      28.999  40.002   5.207  1.00  0.00     0.294 C 
BRANCH  64  65
ATOM     65  C   UNL     1      28.653  38.627   5.610  1.00  0.00     0.121 A 
ATOM     66  C   UNL     1      29.100  37.927   6.728  1.00  0.00     0.144 A 
ATOM     67  N   UNL     1      27.823  37.796   4.960  1.00  0.00    -0.131 NA
ATOM     68  N   UNL     1      28.522  36.704   6.711  1.00  0.00    -0.220 N 
ATOM     69  N   UNL     1      27.762  36.656   5.636  1.00  0.00    -0.062 NA
BRANCH  68  70
ATOM     70  C   UNL     1      28.739  35.719   7.708  1.00  0.00     0.067 A 
ATOM     71  C   UNL     1      27.751  35.472   8.662  1.00  0.00     0.036 A 
ATOM     72  C   UNL     1      29.888  35.005   7.759  1.00  0.00     0.028 A 
ATOM     73  C   UNL     1      27.911  34.536   9.636  1.00  0.00    -0.023 A 
ATOM     74  C   UNL     1      30.097  34.037   8.738  1.00  0.00     0.003 A 
ATOM     75  C   UNL     1      29.095  33.826   9.658  1.00  0.00     0.008 A 
BRANCH  73  76
ATOM     76  C   UNL     1      26.890  34.280  10.629  1.00  0.00     0.015 C 
ATOM     77  C   UNL     1      27.026  34.689  11.864  1.00  0.00     0.094 C 
BRANCH  77  78
ATOM     78  C   UNL     1      25.967  34.407  12.836  1.00  0.00     0.328 C 
ATOM     79  O   UNL     1      25.865  35.053  13.885  1.00  0.00    -0.247 OA
BRANCH  78  80
ATOM     80  O   UNL     1      25.043  33.393  12.593  1.00  0.00    -0.478 OA
ATOM     81  H   UNL     1      24.136  33.465  13.059  1.00  0.00     0.297 HD
ENDBRANCH  78  80
ENDBRANCH  77  78
ENDBRANCH  73  76
ENDBRANCH  68  70
ENDBRANCH  64  65
ENDBRANCH  63  64
ENDBRANCH  60  63
ENDBRANCH  58  59
ENDBRANCH  55  58
ENDBRANCH   1  55
TORSDOF 33
BEGIN_RES LYS A 131
REMARK  4 active torsions:
REMARK  status: ('A' for Active; 'I' for Inactive)
REMARK    1  A    between atoms: CA   and  CB  
REMARK    2  A    between atoms: CB   and  CG  
REMARK    3  A    between atoms: CG   and  CD  
REMARK    4  A    between atoms: CD   and  CE  
ROOT
ATOM      1  CA  LYS A 131      29.867  25.555  16.977  1.00 20.52     0.186 C 
ENDROOT
BRANCH   1   2
ATOM      2  CB  LYS A 131      28.345  25.722  17.026  1.00 20.94     0.034 C 
BRANCH   2   3
ATOM      3  CG  LYS A 131      27.601  24.403  16.887  1.00 22.96     0.005 C 
BRANCH   3   4
ATOM      4  CD  LYS A 131      26.548  24.232  17.946  1.00 24.33     0.041 C 
BRANCH   4   5
ATOM      5  CE  LYS A 131      25.217  23.880  17.289  1.00 26.91     0.338 C 
ATOM      6  NZ  LYS A 131      24.867  22.464  17.552  1.00 27.40     0.618 N 
ENDBRANCH   4   5
ENDBRANCH   3   4
ENDBRANCH   2   3
ENDBRANCH   1   2
END_RES LYS A 131
BEGIN_RES LYS A 135
REMARK  4 active torsions:
REMARK  status: ('A' for Active; 'I' for Inactive)
REMARK    5  A    between atoms: CA   and  CB  
REMARK    6  A    between atoms: CB   and  CG  
REMARK    7  A    between atoms: CG   and  CD  
REMARK    8  A    between atoms: CD   and  CE  
ROOT
ATOM      7  CA  LYS A 135      33.193  34.663   9.290  1.00 25.02     0.186 C 
ENDROOT
BRANCH   7   8
ATOM      8  CB  LYS A 135      32.060  35.360  10.034  1.00 26.63     0.034 C 
BRANCH   8   9
ATOM      9  CG  LYS A 135      32.532  36.243  11.160  1.00 29.45     0.005 C 
BRANCH   9  10
ATOM     10  CD  LYS A 135      32.213  35.612  12.507  1.00 32.00     0.041 C 
BRANCH  10  11
ATOM     11  CE  LYS A 135      30.831  34.987  12.488  1.00 34.25     0.338 C 
ATOM     12  NZ  LYS A 135      30.571  34.223  13.739  1.00 35.99     0.618 N 
ENDBRANCH  10  11
ENDBRANCH   9  10
ENDBRANCH   8   9
ENDBRANCH   7   8
END_RES LYS A 135
