REMARK VINA RESULT:    -3.773      2.770      7.586
REMARK INTER + INTRA:         -22.207
REMARK INTER:                 -10.674
REMARK INTRA:                 -11.534
REMARK UNBOUND:               -12.699
REMARK SMILES CC(=O)N[C@@H]1[C@@H](O)C[C@](OC[C@H]2O[C@@H](O[C@H]3[C@H](O)[C@@H](O)[C@H](OCCN=[N+]=[N-])O[C@@H]3CO)[C@H](O)[C@@H](O)[C@H]2O)(C(=O)O)O[C@H]1C(O)[C@H](O)CNC(=O)OCc1cn(Cc2ccc(Br)cc2)nn1
REMARK SMILES IDX 9 1 8 2 6 3 5 4 42 5 41 6 10 7 11 8 12 9 14 10 13 11 32 12
REMARK SMILES IDX 34 13 36 14 15 15 16 16 29 17 28 18 21 19 17 20 19 21 30 22
REMARK SMILES IDX 31 23 22 25 23 26 24 27 25 28 26 29 27 30 18 31 20 33 33 35
REMARK SMILES IDX 35 37 37 39 38 41 39 42 40 43 7 45 43 47 44 48 45 50 46 51
REMARK SMILES IDX 47 53 48 54 49 55 50 57 51 58 52 59 53 60 54 61 65 62 55 63
REMARK SMILES IDX 64 64 56 65 57 66 58 67 63 68 59 69 62 70 60 71 61 72 4 73
REMARK SMILES IDX 2 74 1 76 3 77
REMARK H PARENT 31 24 18 32 20 34 33 36 35 38 37 40 40 44 7 46 44 49 46 52
REMARK H PARENT 48 56 4 75
REMARK Flexibility Score: inf
ROOT
ATOM      1  C   UNL     1      28.866  32.923  19.696  1.00  0.00     0.272 C 
ATOM      2  C   UNL     1      27.974  34.111  19.649  1.00  0.00     0.113 C 
ATOM      3  C   UNL     1      26.616  33.957  19.089  1.00  0.00     0.145 C 
ATOM      4  C   UNL     1      26.448  32.710  18.180  1.00  0.00     0.142 C 
ATOM      5  C   UNL     1      27.832  32.537  17.617  1.00  0.00     0.178 C 
ATOM      6  O   UNL     1      28.543  31.971  18.713  1.00  0.00    -0.332 OA
ENDROOT
BRANCH   1   7
ATOM      7  O   UNL     1      29.218  32.381  20.856  1.00  0.00    -0.338 OA
BRANCH   7   8
ATOM      8  C   UNL     1      30.298  32.011  21.433  1.00  0.00     0.199 C 
BRANCH   8   9
ATOM      9  C   UNL     1      30.470  30.528  21.660  1.00  0.00     0.179 C 
ATOM     10  C   UNL     1      29.416  28.524  21.807  1.00  0.00     0.282 C 
ATOM     11  O   UNL     1      29.279  29.868  21.816  1.00  0.00    -0.341 OA
ATOM     12  C   UNL     1      30.828  27.982  21.935  1.00  0.00     0.202 C 
ATOM     13  C   UNL     1      31.773  28.652  20.963  1.00  0.00     0.179 C 
ATOM     14  C   UNL     1      31.141  29.924  20.417  1.00  0.00     0.177 C 
BRANCH  10  15
ATOM     15  O   UNL     1      28.813  27.831  20.811  1.00  0.00    -0.341 OA
BRANCH  15  16
ATOM     16  C   UNL     1      27.524  27.965  20.470  1.00  0.00     0.184 C 
ATOM     17  C   UNL     1      26.522  27.249  21.317  1.00  0.00     0.178 C 
ATOM     18  O   UNL     1      25.835  26.267  20.658  1.00  0.00    -0.341 OA
ATOM     19  C   UNL     1      25.079  26.715  19.584  1.00  0.00     0.281 C 
ATOM     20  C   UNL     1      27.339  27.538  19.029  1.00  0.00     0.180 C 
ATOM     21  C   UNL     1      25.872  27.653  18.696  1.00  0.00     0.202 C 
BRANCH  17  22
ATOM     22  C   UNL     1      25.597  28.258  21.956  1.00  0.00     0.191 C 
BRANCH  22  23
ATOM     23  O   UNL     1      26.092  29.571  21.812  1.00  0.00    -0.394 OA
ATOM     24  H   UNL     1      25.665  30.180  22.441  1.00  0.00     0.210 HD
ENDBRANCH  22  23
ENDBRANCH  17  22
BRANCH  19  25
ATOM     25  O   UNL     1      23.862  27.271  19.940  1.00  0.00    -0.350 OA
BRANCH  25  26
ATOM     26  C   UNL     1      23.385  28.240  19.098  1.00  0.00     0.169 C 
BRANCH  26  27
ATOM     27  C   UNL     1      22.204  27.811  18.276  1.00  0.00     0.119 C 
BRANCH  27  28
ATOM     28  N   UNL     1      22.594  27.669  16.879  1.00  0.00    -0.092 NA
ATOM     29  N   UNL     1      22.615  26.556  16.357  1.00  0.00     0.001 N 
ATOM     30  N   UNL     1      22.890  25.484  15.772  1.00  0.00    -0.003 NA
ENDBRANCH  27  28
ENDBRANCH  26  27
ENDBRANCH  25  26
ENDBRANCH  19  25
BRANCH  20  31
ATOM     31  O   UNL     1      28.015  28.490  18.240  1.00  0.00    -0.387 OA
ATOM     32  H   UNL     1      28.004  29.376  18.697  1.00  0.00     0.211 HD
ENDBRANCH  20  31
BRANCH  21  33
ATOM     33  O   UNL     1      25.619  27.429  17.348  1.00  0.00    -0.385 OA
ATOM     34  H   UNL     1      26.495  27.302  16.903  1.00  0.00     0.211 HD
ENDBRANCH  21  33
ENDBRANCH  15  16
ENDBRANCH  10  15
BRANCH  12  35
ATOM     35  O   UNL     1      31.345  28.080  23.215  1.00  0.00    -0.385 OA
ATOM     36  H   UNL     1      30.889  27.523  23.888  1.00  0.00     0.211 HD
ENDBRANCH  12  35
BRANCH  13  37
ATOM     37  O   UNL     1      32.176  27.816  19.929  1.00  0.00    -0.387 OA
ATOM     38  H   UNL     1      33.160  27.739  19.985  1.00  0.00     0.211 HD
ENDBRANCH  13  37
BRANCH  14  39
ATOM     39  O   UNL     1      30.105  29.636  19.520  1.00  0.00    -0.387 OA
ATOM     40  H   UNL     1      30.085  30.310  18.812  1.00  0.00     0.211 HD
ENDBRANCH  14  39
ENDBRANCH   8   9
ENDBRANCH   7   8
ENDBRANCH   1   7
BRANCH   1  41
ATOM     41  C   UNL     1      30.220  33.433  19.175  1.00  0.00     0.364 C 
ATOM     42  O   UNL     1      30.481  34.626  19.320  1.00  0.00    -0.246 OA
BRANCH  41  43
ATOM     43  O   UNL     1      31.133  32.614  18.565  1.00  0.00    -0.477 OA
ATOM     44  H   UNL     1      30.845  31.671  18.260  1.00  0.00     0.296 HD
ENDBRANCH  41  43
ENDBRANCH   1  41
BRANCH   3  45
ATOM     45  O   UNL     1      25.563  34.060  19.984  1.00  0.00    -0.391 OA
ATOM     46  H   UNL     1      24.726  33.888  19.501  1.00  0.00     0.211 HD
ENDBRANCH   3  45
BRANCH   5  47
ATOM     47  C   UNL     1      27.991  31.669  16.426  1.00  0.00     0.176 C 
BRANCH  47  48
ATOM     48  O   UNL     1      27.156  31.995  15.409  1.00  0.00    -0.388 OA
ATOM     49  H   UNL     1      26.473  32.626  15.664  1.00  0.00     0.211 HD
ENDBRANCH  47  48
BRANCH  47  50
ATOM     50  C   UNL     1      29.336  31.253  16.002  1.00  0.00     0.165 C 
BRANCH  50  51
ATOM     51  O   UNL     1      29.977  30.443  16.954  1.00  0.00    -0.388 OA
ATOM     52  H   UNL     1      30.329  30.918  17.721  1.00  0.00     0.211 HD
ENDBRANCH  50  51
BRANCH  50  53
ATOM     53  C   UNL     1      30.268  32.238  15.419  1.00  0.00     0.154 C 
BRANCH  53  54
ATOM     54  N   UNL     1      29.646  33.299  14.645  1.00  0.00    -0.319 N 
ATOM     55  C   UNL     1      29.841  34.668  14.964  1.00  0.00     0.407 C 
ATOM     56  H   UNL     1      29.030  33.109  13.816  1.00  0.00     0.167 HD
ATOM     57  O   UNL     1      30.586  34.990  15.944  1.00  0.00    -0.225 OA
BRANCH  55  58
ATOM     58  O   UNL     1      29.251  35.712  14.258  1.00  0.00    -0.443 OA
BRANCH  58  59
ATOM     59  C   UNL     1      28.274  36.554  14.899  1.00  0.00     0.294 C 
BRANCH  59  60
ATOM     60  C   UNL     1      26.911  36.008  14.796  1.00  0.00     0.120 A 
ATOM     61  C   UNL     1      26.224  35.797  13.616  1.00  0.00     0.138 A 
ATOM     62  N   UNL     1      26.101  35.630  15.787  1.00  0.00    -0.132 NA
ATOM     63  N   UNL     1      25.021  35.299  13.925  1.00  0.00    -0.248 N 
ATOM     64  N   UNL     1      24.976  35.210  15.238  1.00  0.00    -0.067 NA
BRANCH  63  65
ATOM     65  C   UNL     1      23.953  34.898  13.030  1.00  0.00     0.181 C 
BRANCH  65  66
ATOM     66  C   UNL     1      23.697  33.440  13.021  1.00  0.00    -0.026 A 
ATOM     67  C   UNL     1      22.391  33.006  12.776  1.00  0.00     0.007 A 
ATOM     68  C   UNL     1      24.656  32.488  13.220  1.00  0.00     0.007 A 
ATOM     69  C   UNL     1      22.102  31.652  12.742  1.00  0.00     0.016 A 
ATOM     70  C   UNL     1      24.378  31.121  13.188  1.00  0.00     0.016 A 
ATOM     71  C   UNL     1      23.095  30.711  12.947  1.00  0.00     0.017 A 
ATOM     72  Br  UNL     1      22.656  28.839  12.888  1.00  0.00    -0.051 Br
ENDBRANCH  65  66
ENDBRANCH  63  65
ENDBRANCH  59  60
ENDBRANCH  58  59
ENDBRANCH  55  58
ENDBRANCH  53  54
ENDBRANCH  50  53
ENDBRANCH  47  50
ENDBRANCH   5  47
BRANCH   4  73
ATOM     73  N   UNL     1      25.396  32.933  17.257  1.00  0.00    -0.348 N 
ATOM     74  C   UNL     1      24.108  32.391  17.487  1.00  0.00     0.217 C 
ATOM     75  H   UNL     1      25.552  33.510  16.413  1.00  0.00     0.163 HD
ATOM     76  C   UNL     1      22.949  32.562  16.608  1.00  0.00     0.114 C 
ATOM     77  O   UNL     1      23.932  31.694  18.549  1.00  0.00    -0.275 OA
ENDBRANCH   4  73
TORSDOF 31
BEGIN_RES LYS A 131
REMARK  4 active torsions:
REMARK  status: ('A' for Active; 'I' for Inactive)
REMARK    1  A    between atoms: CA   and  CB  
REMARK    2  A    between atoms: CB   and  CG  
REMARK    3  A    between atoms: CG   and  CD  
REMARK    4  A    between atoms: CD   and  CE  
ROOT
ATOM      1  CA  LYS A 131      29.867  25.555  16.977  1.00 20.52     0.186 C 
ENDROOT
BRANCH   1   2
ATOM      2  CB  LYS A 131      28.345  25.722  17.026  1.00 20.94     0.034 C 
BRANCH   2   3
ATOM      3  CG  LYS A 131      27.599  24.423  16.763  1.00 22.96     0.005 C 
BRANCH   3   4
ATOM      4  CD  LYS A 131      26.905  23.909  17.994  1.00 24.33     0.041 C 
BRANCH   4   5
ATOM      5  CE  LYS A 131      25.438  23.640  17.676  1.00 26.91     0.338 C 
ATOM      6  NZ  LYS A 131      25.232  22.210  17.347  1.00 27.40     0.618 N 
ENDBRANCH   4   5
ENDBRANCH   3   4
ENDBRANCH   2   3
ENDBRANCH   1   2
END_RES LYS A 131
BEGIN_RES LYS A 135
REMARK  4 active torsions:
REMARK  status: ('A' for Active; 'I' for Inactive)
REMARK    5  A    between atoms: CA   and  CB  
REMARK    6  A    between atoms: CB   and  CG  
REMARK    7  A    between atoms: CG   and  CD  
REMARK    8  A    between atoms: CD   and  CE  
ROOT
ATOM      7  CA  LYS A 135      33.193  34.663   9.290  1.00 25.02     0.186 C 
ENDROOT
BRANCH   7   8
ATOM      8  CB  LYS A 135      32.060  35.360  10.034  1.00 26.63     0.034 C 
BRANCH   8   9
ATOM      9  CG  LYS A 135      30.725  34.681   9.871  1.00 29.45     0.005 C 
BRANCH   9  10
ATOM     10  CD  LYS A 135      30.419  34.445   8.400  1.00 32.00     0.041 C 
BRANCH  10  11
ATOM     11  CE  LYS A 135      29.414  35.462   7.894  1.00 34.25     0.338 C 
ATOM     12  NZ  LYS A 135      28.493  35.892   8.981  1.00 35.99     0.618 N 
ENDBRANCH  10  11
ENDBRANCH   9  10
ENDBRANCH   8   9
ENDBRANCH   7   8
END_RES LYS A 135
