REMARK VINA RESULT:    -4.379      4.254      9.030
REMARK INTER + INTRA:         -22.599
REMARK INTER:                  -9.670
REMARK INTRA:                 -12.929
REMARK UNBOUND:               -11.308
REMARK SMILES CC(=O)N[C@@H]1[C@@H](O)C[C@](OC[C@H]2O[C@@H](O[C@H]3[C@H](O)[C@@H](O)[C@H](OCCN=[N+]=[N-])O[C@@H]3CO)[C@H](O)[C@@H](O)[C@H]2O)(C(=O)O)O[C@H]1C(O)[C@H](O)CNC(=O)OCc1cn(CCN2CCCC2)nn1
REMARK SMILES IDX 9 1 8 2 6 3 5 4 42 5 41 6 10 7 11 8 12 9 14 10 13 11 32 12
REMARK SMILES IDX 34 13 36 14 15 15 16 16 29 17 28 18 21 19 17 20 19 21 30 22
REMARK SMILES IDX 31 23 22 25 23 26 24 27 25 28 26 29 27 30 18 31 20 33 33 35
REMARK SMILES IDX 35 37 37 39 38 41 39 42 40 43 7 45 43 47 44 48 45 50 46 51
REMARK SMILES IDX 47 53 48 54 49 55 50 57 51 58 52 59 53 60 54 61 64 62 55 63
REMARK SMILES IDX 63 64 56 65 57 66 58 67 59 68 62 69 60 70 61 71 4 72 2 73
REMARK SMILES IDX 1 75 3 76
REMARK H PARENT 31 24 18 32 20 34 33 36 35 38 37 40 40 44 7 46 44 49 46 52
REMARK H PARENT 48 56 4 74
REMARK Flexibility Score: inf
ROOT
ATOM      1  C   UNL     1      28.777  32.912  15.702  1.00  0.00     0.272 C 
ATOM      2  C   UNL     1      29.851  32.102  15.046  1.00  0.00     0.113 C 
ATOM      3  C   UNL     1      31.078  31.985  15.961  1.00  0.00     0.145 C 
ATOM      4  C   UNL     1      31.626  33.433  16.098  1.00  0.00     0.142 C 
ATOM      5  C   UNL     1      30.501  34.270  16.583  1.00  0.00     0.178 C 
ATOM      6  O   UNL     1      29.359  33.502  16.831  1.00  0.00    -0.332 OA
ENDROOT
BRANCH   1   7
ATOM      7  O   UNL     1      27.779  32.105  16.254  1.00  0.00    -0.338 OA
BRANCH   7   8
ATOM      8  C   UNL     1      27.774  30.797  15.931  1.00  0.00     0.199 C 
BRANCH   8   9
ATOM      9  C   UNL     1      27.689  29.881  17.149  1.00  0.00     0.179 C 
ATOM     10  C   UNL     1      28.572  29.495  19.230  1.00  0.00     0.282 C 
ATOM     11  O   UNL     1      28.238  30.435  18.293  1.00  0.00    -0.341 OA
ATOM     12  C   UNL     1      27.542  28.419  19.287  1.00  0.00     0.202 C 
ATOM     13  C   UNL     1      26.209  28.984  18.829  1.00  0.00     0.179 C 
ATOM     14  C   UNL     1      26.262  29.422  17.379  1.00  0.00     0.177 C 
BRANCH  10  15
ATOM     15  O   UNL     1      28.965  29.985  20.440  1.00  0.00    -0.341 OA
BRANCH  15  16
ATOM     16  C   UNL     1      29.499  31.192  20.588  1.00  0.00     0.184 C 
ATOM     17  C   UNL     1      30.840  31.287  21.288  1.00  0.00     0.178 C 
ATOM     18  O   UNL     1      31.438  32.475  20.858  1.00  0.00    -0.341 OA
ATOM     19  C   UNL     1      30.770  33.513  21.571  1.00  0.00     0.281 C 
ATOM     20  C   UNL     1      28.628  32.235  21.266  1.00  0.00     0.180 C 
ATOM     21  C   UNL     1      29.353  33.547  21.037  1.00  0.00     0.202 C 
BRANCH  17  22
ATOM     22  C   UNL     1      31.738  30.117  21.068  1.00  0.00     0.191 C 
BRANCH  22  23
ATOM     23  O   UNL     1      31.294  29.075  21.877  1.00  0.00    -0.394 OA
ATOM     24  H   UNL     1      31.455  28.201  21.425  1.00  0.00     0.210 HD
ENDBRANCH  22  23
ENDBRANCH  17  22
BRANCH  19  25
ATOM     25  O   UNL     1      31.384  34.665  21.196  1.00  0.00    -0.350 OA
BRANCH  25  26
ATOM     26  C   UNL     1      31.804  35.547  22.131  1.00  0.00     0.169 C 
BRANCH  26  27
ATOM     27  C   UNL     1      33.052  36.312  21.863  1.00  0.00     0.119 C 
BRANCH  27  28
ATOM     28  N   UNL     1      33.536  36.218  20.507  1.00  0.00    -0.092 NA
ATOM     29  N   UNL     1      34.589  35.639  20.283  1.00  0.00     0.001 N 
ATOM     30  N   UNL     1      35.615  34.958  20.183  1.00  0.00    -0.003 NA
ENDBRANCH  27  28
ENDBRANCH  26  27
ENDBRANCH  25  26
ENDBRANCH  19  25
BRANCH  20  31
ATOM     31  O   UNL     1      27.397  32.352  20.637  1.00  0.00    -0.387 OA
ATOM     32  H   UNL     1      27.056  33.265  20.582  1.00  0.00     0.211 HD
ENDBRANCH  20  31
BRANCH  21  33
ATOM     33  O   UNL     1      28.643  34.642  21.470  1.00  0.00    -0.385 OA
ATOM     34  H   UNL     1      27.677  34.547  21.512  1.00  0.00     0.211 HD
ENDBRANCH  21  33
ENDBRANCH  15  16
ENDBRANCH  10  15
BRANCH  12  35
ATOM     35  O   UNL     1      27.827  27.332  18.451  1.00  0.00    -0.385 OA
ATOM     36  H   UNL     1      27.041  27.128  17.866  1.00  0.00     0.211 HD
ENDBRANCH  12  35
BRANCH  13  37
ATOM     37  O   UNL     1      25.891  30.117  19.584  1.00  0.00    -0.387 OA
ATOM     38  H   UNL     1      25.410  30.789  19.005  1.00  0.00     0.211 HD
ENDBRANCH  13  37
BRANCH  14  39
ATOM     39  O   UNL     1      25.354  30.470  17.247  1.00  0.00    -0.387 OA
ATOM     40  H   UNL     1      25.062  30.681  18.182  1.00  0.00     0.211 HD
ENDBRANCH  14  39
ENDBRANCH   8   9
ENDBRANCH   7   8
ENDBRANCH   1   7
BRANCH   1  41
ATOM     41  C   UNL     1      28.190  33.962  14.830  1.00  0.00     0.364 C 
ATOM     42  O   UNL     1      28.831  34.286  13.784  1.00  0.00    -0.246 OA
BRANCH  41  43
ATOM     43  O   UNL     1      27.010  34.623  15.048  1.00  0.00    -0.477 OA
ATOM     44  H   UNL     1      26.134  34.244  15.326  1.00  0.00     0.296 HD
ENDBRANCH  41  43
ENDBRANCH   1  41
BRANCH   3  45
ATOM     45  O   UNL     1      30.726  31.582  17.225  1.00  0.00    -0.391 OA
ATOM     46  H   UNL     1      31.476  31.641  17.877  1.00  0.00     0.211 HD
ENDBRANCH   3  45
BRANCH   5  47
ATOM     47  C   UNL     1      30.823  34.874  17.930  1.00  0.00     0.176 C 
BRANCH  47  48
ATOM     48  O   UNL     1      31.970  34.381  18.521  1.00  0.00    -0.388 OA
ATOM     49  H   UNL     1      32.767  34.949  18.439  1.00  0.00     0.211 HD
ENDBRANCH  47  48
BRANCH  47  50
ATOM     50  C   UNL     1      30.710  36.338  18.100  1.00  0.00     0.165 C 
BRANCH  50  51
ATOM     51  O   UNL     1      31.885  37.053  18.116  1.00  0.00    -0.388 OA
ATOM     52  H   UNL     1      31.896  37.849  18.693  1.00  0.00     0.211 HD
ENDBRANCH  50  51
BRANCH  50  53
ATOM     53  C   UNL     1      29.589  36.837  18.951  1.00  0.00     0.154 C 
BRANCH  53  54
ATOM     54  N   UNL     1      28.380  37.045  18.246  1.00  0.00    -0.319 N 
ATOM     55  C   UNL     1      27.309  36.085  18.242  1.00  0.00     0.407 C 
ATOM     56  H   UNL     1      28.229  37.928  17.700  1.00  0.00     0.167 HD
ATOM     57  O   UNL     1      27.364  35.003  18.855  1.00  0.00    -0.225 OA
BRANCH  55  58
ATOM     58  O   UNL     1      26.136  36.345  17.532  1.00  0.00    -0.443 OA
BRANCH  58  59
ATOM     59  C   UNL     1      24.912  35.712  17.916  1.00  0.00     0.294 C 
BRANCH  59  60
ATOM     60  C   UNL     1      24.444  34.790  16.861  1.00  0.00     0.120 A 
ATOM     61  C   UNL     1      23.544  34.928  15.843  1.00  0.00     0.138 A 
ATOM     62  N   UNL     1      24.905  33.511  16.737  1.00  0.00    -0.132 NA
ATOM     63  N   UNL     1      23.475  33.790  15.151  1.00  0.00    -0.251 N 
ATOM     64  N   UNL     1      24.333  32.924  15.731  1.00  0.00    -0.067 NA
BRANCH  63  65
ATOM     65  C   UNL     1      22.685  33.448  14.011  1.00  0.00     0.161 C 
BRANCH  65  66
ATOM     66  C   UNL     1      23.272  32.395  13.145  1.00  0.00     0.108 C 
BRANCH  66  67
ATOM     67  N   UNL     1      22.955  31.049  13.375  1.00  0.00    -0.301 NA
ATOM     68  C   UNL     1      21.695  30.532  13.016  1.00  0.00     0.084 C 
ATOM     69  C   UNL     1      23.994  30.102  13.107  1.00  0.00     0.084 C 
ATOM     70  C   UNL     1      21.924  29.228  12.266  1.00  0.00     0.017 C 
ATOM     71  C   UNL     1      23.350  28.865  12.561  1.00  0.00     0.017 C 
ENDBRANCH  66  67
ENDBRANCH  65  66
ENDBRANCH  63  65
ENDBRANCH  59  60
ENDBRANCH  58  59
ENDBRANCH  55  58
ENDBRANCH  53  54
ENDBRANCH  50  53
ENDBRANCH  47  50
ENDBRANCH   5  47
BRANCH   4  72
ATOM     72  N   UNL     1      32.134  33.790  14.786  1.00  0.00    -0.348 N 
ATOM     73  C   UNL     1      32.913  34.954  14.528  1.00  0.00     0.217 C 
ATOM     74  H   UNL     1      31.940  33.188  13.966  1.00  0.00     0.163 HD
ATOM     75  C   UNL     1      33.379  35.232  13.125  1.00  0.00     0.114 C 
ATOM     76  O   UNL     1      33.192  35.715  15.457  1.00  0.00    -0.275 OA
ENDBRANCH   4  72
TORSDOF 32
BEGIN_RES LYS A 131
REMARK  4 active torsions:
REMARK  status: ('A' for Active; 'I' for Inactive)
REMARK    1  A    between atoms: CA   and  CB  
REMARK    2  A    between atoms: CB   and  CG  
REMARK    3  A    between atoms: CG   and  CD  
REMARK    4  A    between atoms: CD   and  CE  
ROOT
ATOM      1  CA  LYS A 131      29.867  25.555  16.977  1.00 20.52     0.186 C 
ENDROOT
BRANCH   1   2
ATOM      2  CB  LYS A 131      28.345  25.722  17.026  1.00 20.94     0.034 C 
BRANCH   2   3
ATOM      3  CG  LYS A 131      27.599  24.436  16.704  1.00 22.96     0.005 C 
BRANCH   3   4
ATOM      4  CD  LYS A 131      26.987  23.815  17.929  1.00 24.33     0.041 C 
BRANCH   4   5
ATOM      5  CE  LYS A 131      25.590  23.300  17.595  1.00 26.91     0.338 C 
ATOM      6  NZ  LYS A 131      24.808  24.343  16.890  1.00 27.40     0.618 N 
ENDBRANCH   4   5
ENDBRANCH   3   4
ENDBRANCH   2   3
ENDBRANCH   1   2
END_RES LYS A 131
BEGIN_RES LYS A 135
REMARK  4 active torsions:
REMARK  status: ('A' for Active; 'I' for Inactive)
REMARK    5  A    between atoms: CA   and  CB  
REMARK    6  A    between atoms: CB   and  CG  
REMARK    7  A    between atoms: CG   and  CD  
REMARK    8  A    between atoms: CD   and  CE  
ROOT
ATOM      7  CA  LYS A 135      33.193  34.663   9.290  1.00 25.02     0.186 C 
ENDROOT
BRANCH   7   8
ATOM      8  CB  LYS A 135      32.060  35.360  10.034  1.00 26.63     0.034 C 
BRANCH   8   9
ATOM      9  CG  LYS A 135      30.789  35.468   9.232  1.00 29.45     0.005 C 
BRANCH   9  10
ATOM     10  CD  LYS A 135      30.217  34.089   8.945  1.00 32.00     0.041 C 
BRANCH  10  11
ATOM     11  CE  LYS A 135      28.717  34.077   9.170  1.00 34.25     0.338 C 
ATOM     12  NZ  LYS A 135      28.004  34.781   8.068  1.00 35.99     0.618 N 
ENDBRANCH  10  11
ENDBRANCH   9  10
ENDBRANCH   8   9
ENDBRANCH   7   8
END_RES LYS A 135
