REMARK VINA RESULT:    -3.512      5.289      9.349
REMARK INTER + INTRA:         -21.682
REMARK INTER:                  -8.644
REMARK INTRA:                 -13.037
REMARK UNBOUND:               -13.037
REMARK SMILES CC(=O)N[C@@H]1[C@@H](O)C[C@](OC[C@H]2O[C@@H](O[C@H]3[C@H](O)[C@@H](O)[C@H](OCCN=[N+]=[N-])O[C@@H]3CO)[C@H](O)[C@@H](O)[C@H]2O)(C(=O)O)O[C@H]1C(O)[C@H](O)CNC(=O)OCc1cn([C@H]2C[C@H]3CC[C@@H](C2)N3C)nn1
REMARK SMILES IDX 9 1 8 2 6 3 5 4 42 5 41 6 10 7 11 8 12 9 14 10 13 11 32 12
REMARK SMILES IDX 34 13 36 14 15 15 16 16 29 17 28 18 21 19 17 20 19 21 30 22
REMARK SMILES IDX 31 23 22 25 23 26 24 27 25 28 26 29 27 30 18 31 20 33 33 35
REMARK SMILES IDX 35 37 37 39 38 41 39 42 40 43 7 45 43 47 44 48 45 50 46 51
REMARK SMILES IDX 47 53 48 54 49 55 50 57 51 58 52 59 53 60 54 61 66 62 55 63
REMARK SMILES IDX 65 64 56 65 62 66 57 67 61 68 58 69 63 70 60 71 59 72 64 73
REMARK SMILES IDX 4 74 2 75 1 77 3 78
REMARK H PARENT 31 24 18 32 20 34 33 36 35 38 37 40 40 44 7 46 44 49 46 52
REMARK H PARENT 48 56 4 76
REMARK Flexibility Score: inf
ROOT
ATOM      1  C   UNL     1      25.344  31.058  16.111  1.00  0.00     0.272 C 
ATOM      2  C   UNL     1      24.118  30.409  15.493  1.00  0.00     0.113 C 
ATOM      3  C   UNL     1      23.668  31.018  14.200  1.00  0.00     0.145 C 
ATOM      4  C   UNL     1      23.993  32.465  14.223  1.00  0.00     0.142 C 
ATOM      5  C   UNL     1      23.985  32.914  15.687  1.00  0.00     0.178 C 
ATOM      6  O   UNL     1      25.279  32.424  16.137  1.00  0.00    -0.332 OA
ENDROOT
BRANCH   1   7
ATOM      7  O   UNL     1      26.446  30.555  15.488  1.00  0.00    -0.338 OA
BRANCH   7   8
ATOM      8  C   UNL     1      27.532  30.206  16.205  1.00  0.00     0.199 C 
BRANCH   8   9
ATOM      9  C   UNL     1      28.761  31.031  16.108  1.00  0.00     0.179 C 
ATOM     10  C   UNL     1      29.612  32.643  14.775  1.00  0.00     0.282 C 
ATOM     11  O   UNL     1      28.436  32.245  15.423  1.00  0.00    -0.341 OA
ATOM     12  C   UNL     1      30.775  32.762  15.666  1.00  0.00     0.202 C 
ATOM     13  C   UNL     1      30.694  32.172  17.022  1.00  0.00     0.179 C 
ATOM     14  C   UNL     1      29.378  31.516  17.379  1.00  0.00     0.177 C 
BRANCH  10  15
ATOM     15  O   UNL     1      29.306  33.802  14.104  1.00  0.00    -0.341 OA
BRANCH  15  16
ATOM     16  C   UNL     1      29.706  34.946  14.800  1.00  0.00     0.184 C 
ATOM     17  C   UNL     1      28.643  35.569  15.642  1.00  0.00     0.178 C 
ATOM     18  O   UNL     1      27.698  36.309  15.007  1.00  0.00    -0.341 OA
ATOM     19  C   UNL     1      28.160  37.143  14.048  1.00  0.00     0.281 C 
ATOM     20  C   UNL     1      30.197  35.902  13.735  1.00  0.00     0.180 C 
ATOM     21  C   UNL     1      28.939  36.356  12.997  1.00  0.00     0.202 C 
BRANCH  17  22
ATOM     22  C   UNL     1      29.242  36.242  16.884  1.00  0.00     0.191 C 
BRANCH  22  23
ATOM     23  O   UNL     1      29.199  35.457  18.013  1.00  0.00    -0.394 OA
ATOM     24  H   UNL     1      30.077  35.344  18.435  1.00  0.00     0.210 HD
ENDBRANCH  22  23
ENDBRANCH  17  22
BRANCH  19  25
ATOM     25  O   UNL     1      28.811  38.274  14.441  1.00  0.00    -0.350 OA
BRANCH  25  26
ATOM     26  C   UNL     1      28.120  39.203  15.156  1.00  0.00     0.169 C 
BRANCH  26  27
ATOM     27  C   UNL     1      28.980  39.930  16.133  1.00  0.00     0.119 C 
BRANCH  27  28
ATOM     28  N   UNL     1      30.397  39.573  15.978  1.00  0.00    -0.092 NA
ATOM     29  N   UNL     1      31.117  39.440  16.983  1.00  0.00     0.001 N 
ATOM     30  N   UNL     1      31.538  38.859  18.003  1.00  0.00    -0.003 NA
ENDBRANCH  27  28
ENDBRANCH  26  27
ENDBRANCH  25  26
ENDBRANCH  19  25
BRANCH  20  31
ATOM     31  O   UNL     1      30.849  37.004  14.236  1.00  0.00    -0.387 OA
ATOM     32  H   UNL     1      31.062  36.932  15.180  1.00  0.00     0.211 HD
ENDBRANCH  20  31
BRANCH  21  33
ATOM     33  O   UNL     1      28.188  35.263  12.571  1.00  0.00    -0.385 OA
ATOM     34  H   UNL     1      28.736  34.453  12.747  1.00  0.00     0.211 HD
ENDBRANCH  21  33
ENDBRANCH  15  16
ENDBRANCH  10  15
BRANCH  12  35
ATOM     35  O   UNL     1      31.874  32.159  15.002  1.00  0.00    -0.385 OA
ATOM     36  H   UNL     1      32.388  32.803  14.470  1.00  0.00     0.211 HD
ENDBRANCH  12  35
BRANCH  13  37
ATOM     37  O   UNL     1      30.931  33.147  18.022  1.00  0.00    -0.387 OA
ATOM     38  H   UNL     1      30.044  33.595  18.209  1.00  0.00     0.211 HD
ENDBRANCH  13  37
BRANCH  14  39
ATOM     39  O   UNL     1      28.576  32.544  17.927  1.00  0.00    -0.387 OA
ATOM     40  H   UNL     1      27.701  32.440  17.437  1.00  0.00     0.211 HD
ENDBRANCH  14  39
ENDBRANCH   8   9
ENDBRANCH   7   8
ENDBRANCH   1   7
BRANCH   1  41
ATOM     41  C   UNL     1      25.309  30.601  17.536  1.00  0.00     0.364 C 
ATOM     42  O   UNL     1      24.841  29.514  17.859  1.00  0.00    -0.246 OA
BRANCH  41  43
ATOM     43  O   UNL     1      25.819  31.417  18.555  1.00  0.00    -0.477 OA
ATOM     44  H   UNL     1      26.804  31.270  18.814  1.00  0.00     0.296 HD
ENDBRANCH  41  43
ENDBRANCH   1  41
BRANCH   3  45
ATOM     45  O   UNL     1      24.357  30.327  13.175  1.00  0.00    -0.391 OA
ATOM     46  H   UNL     1      24.138  29.362  13.209  1.00  0.00     0.211 HD
ENDBRANCH   3  45
BRANCH   5  47
ATOM     47  C   UNL     1      24.000  34.377  15.886  1.00  0.00     0.176 C 
BRANCH  47  48
ATOM     48  O   UNL     1      25.282  34.839  15.358  1.00  0.00    -0.388 OA
ATOM     49  H   UNL     1      25.993  34.365  15.861  1.00  0.00     0.211 HD
ENDBRANCH  47  48
BRANCH  47  50
ATOM     50  C   UNL     1      24.169  34.849  17.323  1.00  0.00     0.165 C 
BRANCH  50  51
ATOM     51  O   UNL     1      23.086  35.729  17.562  1.00  0.00    -0.388 OA
ATOM     52  H   UNL     1      22.226  35.317  17.299  1.00  0.00     0.211 HD
ENDBRANCH  50  51
BRANCH  50  53
ATOM     53  C   UNL     1      25.443  35.498  17.686  1.00  0.00     0.154 C 
BRANCH  53  54
ATOM     54  N   UNL     1      26.240  34.489  18.412  1.00  0.00    -0.319 N 
ATOM     55  C   UNL     1      26.329  34.496  19.827  1.00  0.00     0.407 C 
ATOM     56  H   UNL     1      26.741  33.768  17.862  1.00  0.00     0.167 HD
ATOM     57  O   UNL     1      25.693  35.386  20.475  1.00  0.00    -0.225 OA
BRANCH  55  58
ATOM     58  O   UNL     1      27.093  33.549  20.490  1.00  0.00    -0.443 OA
BRANCH  58  59
ATOM     59  C   UNL     1      28.208  33.989  21.233  1.00  0.00     0.294 C 
BRANCH  59  60
ATOM     60  C   UNL     1      29.384  33.105  21.112  1.00  0.00     0.120 A 
ATOM     61  C   UNL     1      29.343  31.728  21.189  1.00  0.00     0.138 A 
ATOM     62  N   UNL     1      30.673  33.413  20.934  1.00  0.00    -0.132 NA
ATOM     63  N   UNL     1      30.581  31.237  21.061  1.00  0.00    -0.249 N 
ATOM     64  N   UNL     1      31.389  32.286  20.904  1.00  0.00    -0.067 NA
BRANCH  63  65
ATOM     65  C   UNL     1      30.912  29.820  21.104  1.00  0.00     0.112 C 
ATOM     66  C   UNL     1      29.886  29.103  20.294  1.00  0.00     0.046 C 
ATOM     67  C   UNL     1      31.022  29.408  22.535  1.00  0.00     0.046 C 
ATOM     68  C   UNL     1      29.368  27.843  20.908  1.00  0.00     0.058 C 
ATOM     69  C   UNL     1      30.437  28.069  22.864  1.00  0.00     0.058 C 
ATOM     70  N   UNL     1      30.348  27.189  21.718  1.00  0.00    -0.300 NA
ATOM     71  C   UNL     1      28.284  28.205  21.921  1.00  0.00     0.021 C 
ATOM     72  C   UNL     1      28.987  28.263  23.256  1.00  0.00     0.021 C 
ATOM     73  C   UNL     1      31.622  26.971  21.077  1.00  0.00     0.105 C 
ENDBRANCH  63  65
ENDBRANCH  59  60
ENDBRANCH  58  59
ENDBRANCH  55  58
ENDBRANCH  53  54
ENDBRANCH  50  53
ENDBRANCH  47  50
ENDBRANCH   5  47
BRANCH   4  74
ATOM     74  N   UNL     1      23.381  33.278  13.260  1.00  0.00    -0.348 N 
ATOM     75  C   UNL     1      24.127  34.098  12.347  1.00  0.00     0.217 C 
ATOM     76  H   UNL     1      22.343  33.294  13.141  1.00  0.00     0.163 HD
ATOM     77  C   UNL     1      23.381  34.923  11.340  1.00  0.00     0.114 C 
ATOM     78  O   UNL     1      25.363  34.135  12.374  1.00  0.00    -0.275 OA
ENDBRANCH   4  74
TORSDOF 30
BEGIN_RES LYS A 131
REMARK  4 active torsions:
REMARK  status: ('A' for Active; 'I' for Inactive)
REMARK    1  A    between atoms: CA   and  CB  
REMARK    2  A    between atoms: CB   and  CG  
REMARK    3  A    between atoms: CG   and  CD  
REMARK    4  A    between atoms: CD   and  CE  
ROOT
ATOM      1  CA  LYS A 131      29.867  25.555  16.977  1.00 20.52     0.186 C 
ENDROOT
BRANCH   1   2
ATOM      2  CB  LYS A 131      28.345  25.722  17.026  1.00 20.94     0.034 C 
BRANCH   2   3
ATOM      3  CG  LYS A 131      27.602  24.397  16.942  1.00 22.96     0.005 C 
BRANCH   3   4
ATOM      4  CD  LYS A 131      26.506  24.296  17.966  1.00 24.33     0.041 C 
BRANCH   4   5
ATOM      5  CE  LYS A 131      25.939  25.685  18.243  1.00 26.91     0.338 C 
ATOM      6  NZ  LYS A 131      26.020  25.999  19.689  1.00 27.40     0.618 N 
ENDBRANCH   4   5
ENDBRANCH   3   4
ENDBRANCH   2   3
ENDBRANCH   1   2
END_RES LYS A 131
BEGIN_RES LYS A 135
REMARK  4 active torsions:
REMARK  status: ('A' for Active; 'I' for Inactive)
REMARK    5  A    between atoms: CA   and  CB  
REMARK    6  A    between atoms: CB   and  CG  
REMARK    7  A    between atoms: CG   and  CD  
REMARK    8  A    between atoms: CD   and  CE  
ROOT
ATOM      7  CA  LYS A 135      33.193  34.663   9.290  1.00 25.02     0.186 C 
ENDROOT
BRANCH   7   8
ATOM      8  CB  LYS A 135      32.060  35.360  10.034  1.00 26.63     0.034 C 
BRANCH   8   9
ATOM      9  CG  LYS A 135      30.713  34.721   9.815  1.00 29.45     0.005 C 
BRANCH   9  10
ATOM     10  CD  LYS A 135      30.490  34.430   8.339  1.00 32.00     0.041 C 
BRANCH  10  11
ATOM     11  CE  LYS A 135      29.377  35.299   7.787  1.00 34.25     0.338 C 
ATOM     12  NZ  LYS A 135      28.040  34.728   8.111  1.00 35.99     0.618 N 
ENDBRANCH  10  11
ENDBRANCH   9  10
ENDBRANCH   8   9
ENDBRANCH   7   8
END_RES LYS A 135
