REMARK VINA RESULT:    -5.213      5.492     11.095
REMARK INTER + INTRA:         -22.258
REMARK INTER:                 -12.441
REMARK INTRA:                  -9.818
REMARK UNBOUND:                -9.428
REMARK SMILES CC(=O)N[C@@H]1[C@@H](O)C[C@](OC[C@H]2O[C@@H](O[C@H]3[C@H](O)[C@@H](O)[C@H](OCCN=[N+]=[N-])O[C@@H]3CO)[C@H](O)[C@@H](O)[C@H]2O)(C(=O)O)O[C@H]1C(O)[C@H](O)CNC(=O)OCc1cn(-c2ccc(C)cc2)nn1
REMARK SMILES IDX 9 1 8 2 6 3 5 4 42 5 41 6 10 7 11 8 12 9 14 10 13 11 32 12
REMARK SMILES IDX 34 13 36 14 15 15 16 16 29 17 28 18 21 19 17 20 19 21 30 22
REMARK SMILES IDX 31 23 22 25 23 26 24 27 25 28 26 29 27 30 18 31 20 33 33 35
REMARK SMILES IDX 35 37 37 39 38 41 39 42 40 43 7 45 43 47 44 48 45 50 46 51
REMARK SMILES IDX 47 53 48 54 49 55 50 57 51 58 52 59 53 60 54 61 64 62 55 63
REMARK SMILES IDX 63 64 56 65 57 66 62 67 58 68 61 69 59 70 60 71 4 72 2 73
REMARK SMILES IDX 1 75 3 76
REMARK H PARENT 31 24 18 32 20 34 33 36 35 38 37 40 40 44 7 46 44 49 46 52
REMARK H PARENT 48 56 4 74
REMARK Flexibility Score: inf
ROOT
ATOM      1  C   UNL     1      29.028  31.567  16.798  1.00  0.00     0.272 C 
ATOM      2  C   UNL     1      30.444  31.577  16.233  1.00  0.00     0.113 C 
ATOM      3  C   UNL     1      30.601  32.574  15.149  1.00  0.00     0.145 C 
ATOM      4  C   UNL     1      29.770  33.801  15.280  1.00  0.00     0.142 C 
ATOM      5  C   UNL     1      28.990  33.946  16.583  1.00  0.00     0.178 C 
ATOM      6  O   UNL     1      28.515  32.754  17.016  1.00  0.00    -0.332 OA
ENDROOT
BRANCH   1   7
ATOM      7  O   UNL     1      29.177  30.924  18.066  1.00  0.00    -0.338 OA
BRANCH   7   8
ATOM      8  C   UNL     1      28.118  30.029  18.227  1.00  0.00     0.199 C 
BRANCH   8   9
ATOM      9  C   UNL     1      27.863  29.700  19.649  1.00  0.00     0.179 C 
ATOM     10  C   UNL     1      28.817  29.529  21.726  1.00  0.00     0.282 C 
ATOM     11  O   UNL     1      28.959  30.045  20.442  1.00  0.00    -0.341 OA
ATOM     12  C   UNL     1      27.738  30.240  22.450  1.00  0.00     0.202 C 
ATOM     13  C   UNL     1      26.896  31.038  21.494  1.00  0.00     0.179 C 
ATOM     14  C   UNL     1      26.602  30.308  20.200  1.00  0.00     0.177 C 
BRANCH  10  15
ATOM     15  O   UNL     1      30.018  29.678  22.415  1.00  0.00    -0.341 OA
BRANCH  15  16
ATOM     16  C   UNL     1      31.070  29.044  21.754  1.00  0.00     0.184 C 
ATOM     17  C   UNL     1      31.433  27.697  22.314  1.00  0.00     0.178 C 
ATOM     18  O   UNL     1      32.741  27.715  22.812  1.00  0.00    -0.341 OA
ATOM     19  C   UNL     1      32.806  28.587  23.884  1.00  0.00     0.281 C 
ATOM     20  C   UNL     1      32.268  29.954  21.923  1.00  0.00     0.180 C 
ATOM     21  C   UNL     1      32.531  30.008  23.436  1.00  0.00     0.202 C 
BRANCH  17  22
ATOM     22  C   UNL     1      31.470  26.648  21.190  1.00  0.00     0.191 C 
BRANCH  22  23
ATOM     23  O   UNL     1      31.887  27.229  19.995  1.00  0.00    -0.394 OA
ATOM     24  H   UNL     1      32.859  27.001  19.889  1.00  0.00     0.210 HD
ENDBRANCH  22  23
ENDBRANCH  17  22
BRANCH  19  25
ATOM     25  O   UNL     1      34.020  28.525  24.550  1.00  0.00    -0.350 OA
BRANCH  25  26
ATOM     26  C   UNL     1      34.935  27.692  23.957  1.00  0.00     0.169 C 
BRANCH  26  27
ATOM     27  C   UNL     1      36.079  28.381  23.268  1.00  0.00     0.119 C 
BRANCH  27  28
ATOM     28  N   UNL     1      36.202  29.759  23.675  1.00  0.00    -0.092 NA
ATOM     29  N   UNL     1      36.467  30.619  22.853  1.00  0.00     0.001 N 
ATOM     30  N   UNL     1      36.643  31.510  22.020  1.00  0.00    -0.003 NA
ENDBRANCH  27  28
ENDBRANCH  26  27
ENDBRANCH  25  26
ENDBRANCH  19  25
BRANCH  20  31
ATOM     31  O   UNL     1      33.397  29.490  21.264  1.00  0.00    -0.387 OA
ATOM     32  H   UNL     1      34.145  30.083  21.520  1.00  0.00     0.211 HD
ENDBRANCH  20  31
BRANCH  21  33
ATOM     33  O   UNL     1      31.296  30.383  24.001  1.00  0.00    -0.385 OA
ATOM     34  H   UNL     1      30.544  29.853  23.648  1.00  0.00     0.211 HD
ENDBRANCH  21  33
ENDBRANCH  15  16
ENDBRANCH  10  15
BRANCH  12  35
ATOM     35  O   UNL     1      26.936  29.361  23.202  1.00  0.00    -0.385 OA
ATOM     36  H   UNL     1      27.527  28.554  23.355  1.00  0.00     0.211 HD
ENDBRANCH  12  35
BRANCH  13  37
ATOM     37  O   UNL     1      27.453  32.281  21.325  1.00  0.00    -0.387 OA
ATOM     38  H   UNL     1      26.846  32.946  20.868  1.00  0.00     0.211 HD
ENDBRANCH  13  37
BRANCH  14  39
ATOM     39  O   UNL     1      26.120  31.214  19.274  1.00  0.00    -0.387 OA
ATOM     40  H   UNL     1      26.540  32.098  19.305  1.00  0.00     0.211 HD
ENDBRANCH  14  39
ENDBRANCH   8   9
ENDBRANCH   7   8
ENDBRANCH   1   7
BRANCH   1  41
ATOM     41  C   UNL     1      28.255  30.702  15.884  1.00  0.00     0.364 C 
ATOM     42  O   UNL     1      28.671  29.602  15.454  1.00  0.00    -0.246 OA
BRANCH  41  43
ATOM     43  O   UNL     1      26.980  31.149  15.489  1.00  0.00    -0.477 OA
ATOM     44  H   UNL     1      26.593  30.800  14.611  1.00  0.00     0.296 HD
ENDBRANCH  41  43
ENDBRANCH   1  41
BRANCH   3  45
ATOM     45  O   UNL     1      31.968  32.863  14.931  1.00  0.00    -0.391 OA
ATOM     46  H   UNL     1      32.103  32.727  13.939  1.00  0.00     0.211 HD
ENDBRANCH   3  45
BRANCH   5  47
ATOM     47  C   UNL     1      29.863  34.657  17.596  1.00  0.00     0.176 C 
BRANCH  47  48
ATOM     48  O   UNL     1      30.380  35.864  17.149  1.00  0.00    -0.388 OA
ATOM     49  H   UNL     1      30.124  36.537  17.835  1.00  0.00     0.211 HD
ENDBRANCH  47  48
BRANCH  47  50
ATOM     50  C   UNL     1      29.484  34.681  19.000  1.00  0.00     0.165 C 
BRANCH  50  51
ATOM     51  O   UNL     1      29.295  33.426  19.615  1.00  0.00    -0.388 OA
ATOM     52  H   UNL     1      29.995  33.277  20.304  1.00  0.00     0.211 HD
ENDBRANCH  50  51
BRANCH  50  53
ATOM     53  C   UNL     1      28.419  35.586  19.513  1.00  0.00     0.154 C 
BRANCH  53  54
ATOM     54  N   UNL     1      27.308  35.775  18.618  1.00  0.00    -0.319 N 
ATOM     55  C   UNL     1      26.182  34.901  18.645  1.00  0.00     0.407 C 
ATOM     56  H   UNL     1      27.314  36.562  17.929  1.00  0.00     0.167 HD
ATOM     57  O   UNL     1      26.162  33.963  19.479  1.00  0.00    -0.225 OA
BRANCH  55  58
ATOM     58  O   UNL     1      25.144  35.093  17.759  1.00  0.00    -0.443 OA
BRANCH  58  59
ATOM     59  C   UNL     1      25.283  35.721  16.531  1.00  0.00     0.294 C 
BRANCH  59  60
ATOM     60  C   UNL     1      25.234  34.762  15.426  1.00  0.00     0.121 A 
ATOM     61  C   UNL     1      24.218  33.818  15.188  1.00  0.00     0.144 A 
ATOM     62  N   UNL     1      26.103  34.574  14.443  1.00  0.00    -0.131 NA
ATOM     63  N   UNL     1      24.535  33.130  14.091  1.00  0.00    -0.220 N 
ATOM     64  N   UNL     1      25.682  33.604  13.654  1.00  0.00    -0.062 NA
BRANCH  63  65
ATOM     65  C   UNL     1      23.727  32.072  13.544  1.00  0.00     0.066 A 
ATOM     66  C   UNL     1      24.261  30.813  13.381  1.00  0.00     0.029 A 
ATOM     67  C   UNL     1      22.411  32.267  13.183  1.00  0.00     0.029 A 
ATOM     68  C   UNL     1      23.481  29.774  12.865  1.00  0.00     0.005 A 
ATOM     69  C   UNL     1      21.628  31.228  12.666  1.00  0.00     0.005 A 
ATOM     70  C   UNL     1      22.167  29.972  12.506  1.00  0.00    -0.051 A 
ATOM     71  C   UNL     1      21.327  28.856  11.964  1.00  0.00     0.044 C 
ENDBRANCH  63  65
ENDBRANCH  59  60
ENDBRANCH  58  59
ENDBRANCH  55  58
ENDBRANCH  53  54
ENDBRANCH  50  53
ENDBRANCH  47  50
ENDBRANCH   5  47
BRANCH   4  72
ATOM     72  N   UNL     1      28.948  34.050  14.112  1.00  0.00    -0.348 N 
ATOM     73  C   UNL     1      29.441  34.631  12.904  1.00  0.00     0.217 C 
ATOM     74  H   UNL     1      27.936  33.815  14.114  1.00  0.00     0.163 HD
ATOM     75  C   UNL     1      28.546  34.876  11.731  1.00  0.00     0.114 C 
ATOM     76  O   UNL     1      30.665  34.913  12.904  1.00  0.00    -0.275 OA
ENDBRANCH   4  72
TORSDOF 30
BEGIN_RES LYS A 131
REMARK  4 active torsions:
REMARK  status: ('A' for Active; 'I' for Inactive)
REMARK    1  A    between atoms: CA   and  CB  
REMARK    2  A    between atoms: CB   and  CG  
REMARK    3  A    between atoms: CG   and  CD  
REMARK    4  A    between atoms: CD   and  CE  
ROOT
ATOM      1  CA  LYS A 131      29.867  25.555  16.977  1.00 20.52     0.186 C 
ENDROOT
BRANCH   1   2
ATOM      2  CB  LYS A 131      28.345  25.722  17.026  1.00 20.94     0.034 C 
BRANCH   2   3
ATOM      3  CG  LYS A 131      27.602  24.400  16.915  1.00 22.96     0.005 C 
BRANCH   3   4
ATOM      4  CD  LYS A 131      26.696  24.159  18.091  1.00 24.33     0.041 C 
BRANCH   4   5
ATOM      5  CE  LYS A 131      26.395  25.485  18.782  1.00 26.91     0.338 C 
ATOM      6  NZ  LYS A 131      25.463  25.280  19.915  1.00 27.40     0.618 N 
ENDBRANCH   4   5
ENDBRANCH   3   4
ENDBRANCH   2   3
ENDBRANCH   1   2
END_RES LYS A 131
BEGIN_RES LYS A 135
REMARK  4 active torsions:
REMARK  status: ('A' for Active; 'I' for Inactive)
REMARK    5  A    between atoms: CA   and  CB  
REMARK    6  A    between atoms: CB   and  CG  
REMARK    7  A    between atoms: CG   and  CD  
REMARK    8  A    between atoms: CD   and  CE  
ROOT
ATOM      7  CA  LYS A 135      33.193  34.663   9.290  1.00 25.02     0.186 C 
ENDROOT
BRANCH   7   8
ATOM      8  CB  LYS A 135      32.060  35.360  10.034  1.00 26.63     0.034 C 
BRANCH   8   9
ATOM      9  CG  LYS A 135      30.920  35.778   9.141  1.00 29.45     0.005 C 
BRANCH   9  10
ATOM     10  CD  LYS A 135      30.267  34.564   8.501  1.00 32.00     0.041 C 
BRANCH  10  11
ATOM     11  CE  LYS A 135      29.096  34.984   7.634  1.00 34.25     0.338 C 
ATOM     12  NZ  LYS A 135      27.799  34.613   8.266  1.00 35.99     0.618 N 
ENDBRANCH  10  11
ENDBRANCH   9  10
ENDBRANCH   8   9
ENDBRANCH   7   8
END_RES LYS A 135
