REMARK VINA RESULT:    -3.453      2.686      3.713
REMARK INTER + INTRA:         -22.578
REMARK INTER:                 -11.405
REMARK INTRA:                 -11.173
REMARK UNBOUND:               -13.473
REMARK SMILES CC(=O)N[C@@H]1[C@@H](O)C[C@](OC[C@H]2O[C@@H](O[C@H]3[C@H](O)[C@@H](O)[C@H](OCCN=[N+]=[N-])O[C@@H]3CO)[C@H](O)[C@@H](O)[C@H]2O)(C(=O)O)O[C@H]1C(O)[C@H](O)CNC(=O)OCc1cn(CCOC(C)=O)nn1
REMARK SMILES IDX 43 1 42 2 9 3 8 4 41 5 6 6 5 7 10 8 11 9 12 10 14 11 13 12
REMARK SMILES IDX 32 13 34 14 36 15 15 16 16 17 29 18 28 19 21 20 17 21 19 22
REMARK SMILES IDX 30 23 31 24 22 26 23 27 24 28 25 29 26 30 27 31 18 32 20 34
REMARK SMILES IDX 33 36 35 38 37 40 38 42 39 43 40 44 7 46 4 48 2 49 1 51 3 52
REMARK SMILES IDX 44 53 45 55 46 56 47 58 48 59 49 60 50 62 51 63 52 64 53 65
REMARK SMILES IDX 54 66 63 67 55 68 62 69 56 70 57 71 58 72 59 73 61 74 60 75
REMARK H PARENT 31 25 18 33 20 35 33 37 35 39 37 41 40 45 7 47 4 50 44 54
REMARK H PARENT 46 57 48 61
REMARK Flexibility Score: inf
ROOT
ATOM      1  C   UNL     1      30.674  31.990  15.862  1.00  0.00     0.176 C 
ENDROOT
BRANCH   1   2
ATOM      2  C   UNL     1      30.755  33.007  14.754  1.00  0.00     0.178 C 
ATOM      3  C   UNL     1      31.929  34.995  14.275  1.00  0.00     0.272 C 
ATOM      4  C   UNL     1      31.177  34.801  12.980  1.00  0.00     0.113 C 
ATOM      5  O   UNL     1      31.818  33.859  15.122  1.00  0.00    -0.332 OA
ATOM      6  C   UNL     1      29.733  34.508  13.179  1.00  0.00     0.145 C 
ATOM      7  C   UNL     1      29.567  33.905  14.602  1.00  0.00     0.142 C 
BRANCH   3   8
ATOM      8  O   UNL     1      31.615  36.032  15.011  1.00  0.00    -0.338 OA
BRANCH   8   9
ATOM      9  C   UNL     1      31.947  37.291  14.951  1.00  0.00     0.199 C 
BRANCH   9  10
ATOM     10  C   UNL     1      31.055  38.447  15.119  1.00  0.00     0.179 C 
ATOM     11  C   UNL     1      29.797  39.894  13.840  1.00  0.00     0.282 C 
ATOM     12  O   UNL     1      30.281  38.579  13.902  1.00  0.00    -0.341 OA
ATOM     13  C   UNL     1      29.295  40.420  15.119  1.00  0.00     0.202 C 
ATOM     14  C   UNL     1      29.190  39.474  16.263  1.00  0.00     0.179 C 
ATOM     15  C   UNL     1      29.918  38.183  16.126  1.00  0.00     0.177 C 
BRANCH  11  16
ATOM     16  O   UNL     1      28.926  39.945  12.765  1.00  0.00    -0.341 OA
BRANCH  16  17
ATOM     17  C   UNL     1      28.437  38.718  12.398  1.00  0.00     0.184 C 
ATOM     18  C   UNL     1      28.510  38.565  10.896  1.00  0.00     0.178 C 
ATOM     19  O   UNL     1      28.027  37.277  10.627  1.00  0.00    -0.341 OA
ATOM     20  C   UNL     1      26.667  37.270  10.720  1.00  0.00     0.281 C 
ATOM     21  C   UNL     1      27.006  38.511  12.867  1.00  0.00     0.180 C 
ATOM     22  C   UNL     1      26.077  38.222  11.734  1.00  0.00     0.202 C 
BRANCH  18  23
ATOM     23  C   UNL     1      29.955  38.641  10.436  1.00  0.00     0.191 C 
BRANCH  23  24
ATOM     24  O   UNL     1      30.313  39.962  10.235  1.00  0.00    -0.394 OA
ATOM     25  H   UNL     1      30.773  40.253  11.078  1.00  0.00     0.210 HD
ENDBRANCH  23  24
ENDBRANCH  18  23
BRANCH  20  26
ATOM     26  O   UNL     1      26.270  35.951  10.981  1.00  0.00    -0.350 OA
BRANCH  26  27
ATOM     27  C   UNL     1      24.934  35.750  10.653  1.00  0.00     0.169 C 
BRANCH  27  28
ATOM     28  C   UNL     1      24.875  35.804   9.123  1.00  0.00     0.119 C 
BRANCH  28  29
ATOM     29  N   UNL     1      23.659  36.501   8.744  1.00  0.00    -0.092 NA
ATOM     30  N   UNL     1      23.482  37.703   8.981  1.00  0.00     0.001 N 
ATOM     31  N   UNL     1      23.143  38.759   9.546  1.00  0.00    -0.003 NA
ENDBRANCH  28  29
ENDBRANCH  27  28
ENDBRANCH  26  27
ENDBRANCH  20  26
BRANCH  21  32
ATOM     32  O   UNL     1      26.894  37.555  13.868  1.00  0.00    -0.387 OA
ATOM     33  H   UNL     1      26.165  36.903  13.718  1.00  0.00     0.211 HD
ENDBRANCH  21  32
BRANCH  22  34
ATOM     34  O   UNL     1      25.600  39.391  11.174  1.00  0.00    -0.385 OA
ATOM     35  H   UNL     1      25.854  40.151  11.773  1.00  0.00     0.211 HD
ENDBRANCH  22  34
ENDBRANCH  16  17
ENDBRANCH  11  16
BRANCH  13  36
ATOM     36  O   UNL     1      29.969  41.610  15.500  1.00  0.00    -0.385 OA
ATOM     37  H   UNL     1      29.748  41.875  16.418  1.00  0.00     0.211 HD
ENDBRANCH  13  36
BRANCH  14  38
ATOM     38  O   UNL     1      27.852  39.179  16.569  1.00  0.00    -0.387 OA
ATOM     39  H   UNL     1      27.846  38.423  17.227  1.00  0.00     0.211 HD
ENDBRANCH  14  38
BRANCH  15  40
ATOM     40  O   UNL     1      29.020  37.269  15.510  1.00  0.00    -0.387 OA
ATOM     41  H   UNL     1      29.295  36.346  15.682  1.00  0.00     0.211 HD
ENDBRANCH  15  40
ENDBRANCH   9  10
ENDBRANCH   8   9
ENDBRANCH   3   8
BRANCH   3  42
ATOM     42  C   UNL     1      33.368  34.919  13.899  1.00  0.00     0.364 C 
ATOM     43  O   UNL     1      34.333  34.894  14.685  1.00  0.00    -0.246 OA
BRANCH  42  44
ATOM     44  O   UNL     1      33.731  34.868  12.536  1.00  0.00    -0.477 OA
ATOM     45  H   UNL     1      34.707  34.943  12.292  1.00  0.00     0.296 HD
ENDBRANCH  42  44
ENDBRANCH   3  42
BRANCH   6  46
ATOM     46  O   UNL     1      28.880  35.572  12.997  1.00  0.00    -0.391 OA
ATOM     47  H   UNL     1      29.124  36.371  13.529  1.00  0.00     0.211 HD
ENDBRANCH   6  46
BRANCH   7  48
ATOM     48  N   UNL     1      28.273  33.319  14.712  1.00  0.00    -0.348 N 
ATOM     49  C   UNL     1      27.172  34.017  15.274  1.00  0.00     0.217 C 
ATOM     50  H   UNL     1      28.117  32.364  14.352  1.00  0.00     0.163 HD
ATOM     51  C   UNL     1      25.817  33.394  15.386  1.00  0.00     0.114 C 
ATOM     52  O   UNL     1      27.286  35.204  15.707  1.00  0.00    -0.275 OA
ENDBRANCH   7  48
ENDBRANCH   1   2
BRANCH   1  53
ATOM     53  O   UNL     1      29.651  31.084  15.437  1.00  0.00    -0.388 OA
ATOM     54  H   UNL     1      29.129  31.484  14.711  1.00  0.00     0.211 HD
ENDBRANCH   1  53
BRANCH   1  55
ATOM     55  C   UNL     1      30.100  32.620  17.108  1.00  0.00     0.165 C 
BRANCH  55  56
ATOM     56  O   UNL     1      31.147  33.147  17.881  1.00  0.00    -0.388 OA
ATOM     57  H   UNL     1      31.303  32.543  18.636  1.00  0.00     0.211 HD
ENDBRANCH  55  56
BRANCH  55  58
ATOM     58  C   UNL     1      29.242  31.686  17.903  1.00  0.00     0.154 C 
BRANCH  58  59
ATOM     59  N   UNL     1      29.906  30.538  18.436  1.00  0.00    -0.319 N 
ATOM     60  C   UNL     1      30.558  30.525  19.684  1.00  0.00     0.407 C 
ATOM     61  H   UNL     1      29.941  29.614  17.903  1.00  0.00     0.167 HD
ATOM     62  O   UNL     1      30.598  31.521  20.437  1.00  0.00    -0.225 OA
BRANCH  60  63
ATOM     63  O   UNL     1      31.212  29.380  20.165  1.00  0.00    -0.443 OA
BRANCH  63  64
ATOM     64  C   UNL     1      30.796  28.701  21.315  1.00  0.00     0.294 C 
BRANCH  64  65
ATOM     65  C   UNL     1      29.346  28.365  21.269  1.00  0.00     0.120 A 
ATOM     66  C   UNL     1      28.786  27.504  20.341  1.00  0.00     0.138 A 
ATOM     67  N   UNL     1      28.342  28.768  22.040  1.00  0.00    -0.132 NA
ATOM     68  N   UNL     1      27.476  27.432  20.598  1.00  0.00    -0.249 N 
ATOM     69  N   UNL     1      27.227  28.209  21.636  1.00  0.00    -0.067 NA
BRANCH  68  70
ATOM     70  C   UNL     1      26.469  26.651  19.865  1.00  0.00     0.187 C 
BRANCH  70  71
ATOM     71  C   UNL     1      25.748  27.542  18.879  1.00  0.00     0.256 C 
BRANCH  71  72
ATOM     72  O   UNL     1      26.544  27.645  17.703  1.00  0.00    -0.464 OA
BRANCH  72  73
ATOM     73  C   UNL     1      26.783  28.885  17.119  1.00  0.00     0.302 C 
ATOM     74  O   UNL     1      27.794  29.005  16.388  1.00  0.00    -0.253 OA
ATOM     75  C   UNL     1      25.880  30.062  17.338  1.00  0.00     0.139 C 
ENDBRANCH  72  73
ENDBRANCH  71  72
ENDBRANCH  70  71
ENDBRANCH  68  70
ENDBRANCH  64  65
ENDBRANCH  63  64
ENDBRANCH  60  63
ENDBRANCH  58  59
ENDBRANCH  55  58
ENDBRANCH   1  55
TORSDOF 33
BEGIN_RES LYS A 131
REMARK  4 active torsions:
REMARK  status: ('A' for Active; 'I' for Inactive)
REMARK    1  A    between atoms: CA   and  CB  
REMARK    2  A    between atoms: CB   and  CG  
REMARK    3  A    between atoms: CG   and  CD  
REMARK    4  A    between atoms: CD   and  CE  
ROOT
ATOM      1  CA  LYS A 131      29.867  25.555  16.977  1.00 20.52     0.186 C 
ENDROOT
BRANCH   1   2
ATOM      2  CB  LYS A 131      28.345  25.722  17.026  1.00 20.94     0.034 C 
BRANCH   2   3
ATOM      3  CG  LYS A 131      27.599  24.465  16.607  1.00 22.96     0.005 C 
BRANCH   3   4
ATOM      4  CD  LYS A 131      27.014  23.734  17.784  1.00 24.33     0.041 C 
BRANCH   4   5
ATOM      5  CE  LYS A 131      25.576  23.333  17.471  1.00 26.91     0.338 C 
ATOM      6  NZ  LYS A 131      24.800  24.506  17.005  1.00 27.40     0.618 N 
ENDBRANCH   4   5
ENDBRANCH   3   4
ENDBRANCH   2   3
ENDBRANCH   1   2
END_RES LYS A 131
BEGIN_RES LYS A 135
REMARK  4 active torsions:
REMARK  status: ('A' for Active; 'I' for Inactive)
REMARK    5  A    between atoms: CA   and  CB  
REMARK    6  A    between atoms: CB   and  CG  
REMARK    7  A    between atoms: CG   and  CD  
REMARK    8  A    between atoms: CD   and  CE  
ROOT
ATOM      7  CA  LYS A 135      33.193  34.663   9.290  1.00 25.02     0.186 C 
ENDROOT
BRANCH   7   8
ATOM      8  CB  LYS A 135      32.060  35.360  10.034  1.00 26.63     0.034 C 
BRANCH   8   9
ATOM      9  CG  LYS A 135      30.750  35.342   9.290  1.00 29.45     0.005 C 
BRANCH   9  10
ATOM     10  CD  LYS A 135      30.068  33.990   9.437  1.00 32.00     0.041 C 
BRANCH  10  11
ATOM     11  CE  LYS A 135      28.596  34.095   9.084  1.00 34.25     0.338 C 
ATOM     12  NZ  LYS A 135      28.381  35.048   7.961  1.00 35.99     0.618 N 
ENDBRANCH  10  11
ENDBRANCH   9  10
ENDBRANCH   8   9
ENDBRANCH   7   8
END_RES LYS A 135
