REMARK VINA RESULT:    -5.296      2.482      4.030
REMARK INTER + INTRA:         -23.296
REMARK INTER:                 -11.740
REMARK INTRA:                 -11.556
REMARK UNBOUND:                -9.487
REMARK SMILES CC(=O)N[C@@H]1[C@@H](O)C[C@](OC[C@H]2O[C@@H](O[C@H]3[C@H](O)[C@@H](O)[C@H](OCCN=[N+]=[N-])O[C@@H]3CO)[C@H](O)[C@@H](O)[C@H]2O)(C(=O)O)O[C@H]1C(O)[C@H](O)CNC(=O)OCc1cn(Cc2ccc(C(=O)O)cc2)nn1
REMARK SMILES IDX 43 1 42 2 9 3 8 4 41 5 6 6 5 7 10 8 11 9 12 10 14 11 13 12
REMARK SMILES IDX 32 13 34 14 36 15 15 16 16 17 29 18 28 19 21 20 17 21 19 22
REMARK SMILES IDX 30 23 31 24 22 26 23 27 24 28 25 29 26 30 27 31 18 32 20 34
REMARK SMILES IDX 33 36 35 38 37 40 38 42 39 43 40 44 7 46 4 48 2 49 1 51 3 52
REMARK SMILES IDX 44 53 45 55 46 56 47 58 48 59 49 60 50 62 51 63 52 64 53 65
REMARK SMILES IDX 54 66 67 67 55 68 66 69 56 70 57 71 58 72 65 73 59 74 64 75
REMARK SMILES IDX 60 76 61 77 62 78 63 79
REMARK H PARENT 31 25 18 33 20 35 33 37 35 39 37 41 40 45 7 47 4 50 44 54
REMARK H PARENT 46 57 48 61 63 80
REMARK Flexibility Score: inf
ROOT
ATOM      1  C   UNL     1      23.887  35.782  11.924  1.00  0.00     0.176 C 
ENDROOT
BRANCH   1   2
ATOM      2  C   UNL     1      23.205  36.289  10.634  1.00  0.00     0.178 C 
ATOM      3  C   UNL     1      23.676  38.153   9.254  1.00  0.00     0.272 C 
ATOM      4  C   UNL     1      22.297  38.625   9.488  1.00  0.00     0.113 C 
ATOM      5  O   UNL     1      24.084  37.131  10.072  1.00  0.00    -0.332 OA
ATOM      6  C   UNL     1      21.771  38.284  10.867  1.00  0.00     0.145 C 
ATOM      7  C   UNL     1      21.872  36.794  11.010  1.00  0.00     0.142 C 
BRANCH   3   8
ATOM      8  O   UNL     1      24.591  39.156   9.437  1.00  0.00    -0.338 OA
BRANCH   8   9
ATOM      9  C   UNL     1      25.279  39.242  10.595  1.00  0.00     0.199 C 
BRANCH   9  10
ATOM     10  C   UNL     1      26.718  39.744  10.321  1.00  0.00     0.179 C 
ATOM     11  C   UNL     1      28.880  39.578  11.174  1.00  0.00     0.282 C 
ATOM     12  O   UNL     1      27.514  39.372  11.364  1.00  0.00    -0.341 OA
ATOM     13  C   UNL     1      29.214  40.373   9.963  1.00  0.00     0.202 C 
ATOM     14  C   UNL     1      28.599  39.688   8.761  1.00  0.00     0.179 C 
ATOM     15  C   UNL     1      27.199  39.214   8.995  1.00  0.00     0.177 C 
BRANCH  11  16
ATOM     16  O   UNL     1      29.499  38.329  11.139  1.00  0.00    -0.341 OA
BRANCH  16  17
ATOM     17  C   UNL     1      29.149  37.554  12.206  1.00  0.00     0.184 C 
ATOM     18  C   UNL     1      30.294  37.253  13.102  1.00  0.00     0.178 C 
ATOM     19  O   UNL     1      29.854  36.693  14.311  1.00  0.00    -0.341 OA
ATOM     20  C   UNL     1      28.845  35.753  14.088  1.00  0.00     0.281 C 
ATOM     21  C   UNL     1      28.599  36.237  11.625  1.00  0.00     0.180 C 
ATOM     22  C   UNL     1      28.829  35.193  12.697  1.00  0.00     0.202 C 
BRANCH  18  23
ATOM     23  C   UNL     1      31.061  38.503  13.427  1.00  0.00     0.191 C 
BRANCH  23  24
ATOM     24  O   UNL     1      31.677  38.261  14.677  1.00  0.00    -0.394 OA
ATOM     25  H   UNL     1      31.693  37.303  14.867  1.00  0.00     0.210 HD
ENDBRANCH  23  24
ENDBRANCH  18  23
BRANCH  20  26
ATOM     26  O   UNL     1      27.635  36.300  14.447  1.00  0.00    -0.350 OA
BRANCH  26  27
ATOM     27  C   UNL     1      27.291  36.143  15.770  1.00  0.00     0.169 C 
BRANCH  27  28
ATOM     28  C   UNL     1      28.144  35.200  16.550  1.00  0.00     0.119 C 
BRANCH  28  29
ATOM     29  N   UNL     1      28.580  35.927  17.753  1.00  0.00    -0.092 NA
ATOM     30  N   UNL     1      29.419  36.820  17.716  1.00  0.00     0.001 N 
ATOM     31  N   UNL     1      30.349  37.572  17.446  1.00  0.00    -0.003 NA
ENDBRANCH  28  29
ENDBRANCH  27  28
ENDBRANCH  26  27
ENDBRANCH  20  26
BRANCH  21  32
ATOM     32  O   UNL     1      27.263  36.371  11.317  1.00  0.00    -0.387 OA
ATOM     33  H   UNL     1      27.082  36.147  10.347  1.00  0.00     0.211 HD
ENDBRANCH  21  32
BRANCH  22  34
ATOM     34  O   UNL     1      29.969  34.478  12.411  1.00  0.00    -0.385 OA
ATOM     35  H   UNL     1      30.377  34.739  11.566  1.00  0.00     0.211 HD
ENDBRANCH  22  34
ENDBRANCH  16  17
ENDBRANCH  11  16
BRANCH  13  36
ATOM     36  O   UNL     1      28.746  41.693  10.057  1.00  0.00    -0.385 OA
ATOM     37  H   UNL     1      27.759  41.641   9.938  1.00  0.00     0.211 HD
ENDBRANCH  13  36
BRANCH  14  38
ATOM     38  O   UNL     1      29.384  38.618   8.330  1.00  0.00    -0.387 OA
ATOM     39  H   UNL     1      30.271  38.686   8.783  1.00  0.00     0.211 HD
ENDBRANCH  14  38
BRANCH  15  40
ATOM     40  O   UNL     1      27.095  37.817   8.929  1.00  0.00    -0.387 OA
ATOM     41  H   UNL     1      26.829  37.591   8.000  1.00  0.00     0.211 HD
ENDBRANCH  15  40
ENDBRANCH   9  10
ENDBRANCH   8   9
ENDBRANCH   3   8
BRANCH   3  42
ATOM     42  C   UNL     1      23.756  37.604   7.850  1.00  0.00     0.364 C 
ATOM     43  O   UNL     1      22.715  37.273   7.230  1.00  0.00    -0.246 OA
BRANCH  42  44
ATOM     44  O   UNL     1      24.968  37.449   7.198  1.00  0.00    -0.477 OA
ATOM     45  H   UNL     1      25.390  38.296   6.786  1.00  0.00     0.296 HD
ENDBRANCH  42  44
ENDBRANCH   3  42
BRANCH   6  46
ATOM     46  O   UNL     1      22.517  38.993  11.784  1.00  0.00    -0.391 OA
ATOM     47  H   UNL     1      21.926  39.604  12.297  1.00  0.00     0.211 HD
ENDBRANCH   6  46
BRANCH   7  48
ATOM     48  N   UNL     1      20.862  36.184  10.155  1.00  0.00    -0.348 N 
ATOM     49  C   UNL     1      20.101  35.045  10.594  1.00  0.00     0.217 C 
ATOM     50  H   UNL     1      20.627  36.516   9.195  1.00  0.00     0.163 HD
ATOM     51  C   UNL     1      19.072  34.448   9.686  1.00  0.00     0.114 C 
ATOM     52  O   UNL     1      20.320  34.585  11.727  1.00  0.00    -0.275 OA
ENDBRANCH   7  48
ENDBRANCH   1   2
BRANCH   1  53
ATOM     53  O   UNL     1      23.333  36.262  13.066  1.00  0.00    -0.388 OA
ATOM     54  H   UNL     1      22.597  35.740  13.453  1.00  0.00     0.211 HD
ENDBRANCH   1  53
BRANCH   1  55
ATOM     55  C   UNL     1      24.039  34.280  11.907  1.00  0.00     0.165 C 
BRANCH  55  56
ATOM     56  O   UNL     1      22.921  33.706  12.425  1.00  0.00    -0.388 OA
ATOM     57  H   UNL     1      23.045  33.153  13.221  1.00  0.00     0.211 HD
ENDBRANCH  55  56
BRANCH  55  58
ATOM     58  C   UNL     1      25.356  33.894  12.460  1.00  0.00     0.154 C 
BRANCH  58  59
ATOM     59  N   UNL     1      25.388  33.960  13.895  1.00  0.00    -0.319 N 
ATOM     60  C   UNL     1      24.998  32.905  14.750  1.00  0.00     0.407 C 
ATOM     61  H   UNL     1      25.720  34.846  14.369  1.00  0.00     0.167 HD
ATOM     62  O   UNL     1      24.592  31.818  14.313  1.00  0.00    -0.225 OA
BRANCH  60  63
ATOM     63  O   UNL     1      25.045  33.007  16.155  1.00  0.00    -0.443 OA
BRANCH  63  64
ATOM     64  C   UNL     1      25.062  31.832  16.945  1.00  0.00     0.294 C 
BRANCH  64  65
ATOM     65  C   UNL     1      26.415  31.274  17.108  1.00  0.00     0.120 A 
ATOM     66  C   UNL     1      27.524  31.824  17.689  1.00  0.00     0.138 A 
ATOM     67  N   UNL     1      26.784  30.060  16.658  1.00  0.00    -0.132 NA
ATOM     68  N   UNL     1      28.533  30.932  17.574  1.00  0.00    -0.248 N 
ATOM     69  N   UNL     1      28.059  29.872  16.945  1.00  0.00    -0.067 NA
BRANCH  68  70
ATOM     70  C   UNL     1      29.874  31.138  18.058  1.00  0.00     0.181 C 
BRANCH  70  71
ATOM     71  C   UNL     1      30.595  32.102  17.204  1.00  0.00    -0.026 A 
ATOM     72  C   UNL     1      30.790  31.826  15.868  1.00  0.00     0.006 A 
ATOM     73  C   UNL     1      31.098  33.282  17.745  1.00  0.00     0.006 A 
ATOM     74  C   UNL     1      31.490  32.763  15.128  1.00  0.00     0.016 A 
ATOM     75  C   UNL     1      31.795  34.210  17.004  1.00  0.00     0.016 A 
ATOM     76  C   UNL     1      31.986  33.931  15.670  1.00  0.00     0.059 A 
BRANCH  76  77
ATOM     77  C   UNL     1      32.719  34.873  14.839  1.00  0.00     0.335 C 
ATOM     78  O   UNL     1      33.280  35.852  15.350  1.00  0.00    -0.246 OA
BRANCH  77  79
ATOM     79  O   UNL     1      32.788  34.674  13.479  1.00  0.00    -0.478 OA
ATOM     80  H   UNL     1      33.659  34.766  12.959  1.00  0.00     0.297 HD
ENDBRANCH  77  79
ENDBRANCH  76  77
ENDBRANCH  70  71
ENDBRANCH  68  70
ENDBRANCH  64  65
ENDBRANCH  63  64
ENDBRANCH  60  63
ENDBRANCH  58  59
ENDBRANCH  55  58
ENDBRANCH   1  55
TORSDOF 33
BEGIN_RES LYS A 131
REMARK  4 active torsions:
REMARK  status: ('A' for Active; 'I' for Inactive)
REMARK    1  A    between atoms: CA   and  CB  
REMARK    2  A    between atoms: CB   and  CG  
REMARK    3  A    between atoms: CG   and  CD  
REMARK    4  A    between atoms: CD   and  CE  
ROOT
ATOM      1  CA  LYS A 131      29.867  25.555  16.977  1.00 20.52     0.186 C 
ENDROOT
BRANCH   1   2
ATOM      2  CB  LYS A 131      28.345  25.722  17.026  1.00 20.94     0.034 C 
BRANCH   2   3
ATOM      3  CG  LYS A 131      27.601  24.403  16.886  1.00 22.96     0.005 C 
BRANCH   3   4
ATOM      4  CD  LYS A 131      26.158  24.520  17.291  1.00 24.33     0.041 C 
BRANCH   4   5
ATOM      5  CE  LYS A 131      25.803  23.384  18.244  1.00 26.91     0.338 C 
ATOM      6  NZ  LYS A 131      25.457  23.918  19.583  1.00 27.40     0.618 N 
ENDBRANCH   4   5
ENDBRANCH   3   4
ENDBRANCH   2   3
ENDBRANCH   1   2
END_RES LYS A 131
BEGIN_RES LYS A 135
REMARK  4 active torsions:
REMARK  status: ('A' for Active; 'I' for Inactive)
REMARK    5  A    between atoms: CA   and  CB  
REMARK    6  A    between atoms: CB   and  CG  
REMARK    7  A    between atoms: CG   and  CD  
REMARK    8  A    between atoms: CD   and  CE  
ROOT
ATOM      7  CA  LYS A 135      33.193  34.663   9.290  1.00 25.02     0.186 C 
ENDROOT
BRANCH   7   8
ATOM      8  CB  LYS A 135      32.060  35.360  10.034  1.00 26.63     0.034 C 
BRANCH   8   9
ATOM      9  CG  LYS A 135      30.887  35.710   9.155  1.00 29.45     0.005 C 
BRANCH   9  10
ATOM     10  CD  LYS A 135      30.386  34.480   8.413  1.00 32.00     0.041 C 
BRANCH  10  11
ATOM     11  CE  LYS A 135      28.872  34.490   8.328  1.00 34.25     0.338 C 
ATOM     12  NZ  LYS A 135      28.406  35.272   7.149  1.00 35.99     0.618 N 
ENDBRANCH  10  11
ENDBRANCH   9  10
ENDBRANCH   8   9
ENDBRANCH   7   8
END_RES LYS A 135
