REMARK VINA RESULT:    -4.232      2.494      4.508
REMARK INTER + INTRA:         -22.320
REMARK INTER:                 -12.734
REMARK INTRA:                  -9.586
REMARK UNBOUND:               -11.408
REMARK SMILES CC(=O)N[C@@H]1[C@@H](O)C[C@](OC[C@H]2O[C@@H](O[C@H]3[C@H](O)[C@@H](O)[C@H](OCCN=[N+]=[N-])O[C@@H]3CO)[C@H](O)[C@@H](O)[C@H]2O)(C(=O)O)O[C@H]1C(O)[C@H](O)CNC(=O)OCc1cn(CS(=O)(=O)c2ccccc2)nn1
REMARK SMILES IDX 9 1 8 2 6 3 5 4 42 5 41 6 10 7 11 8 12 9 14 10 13 11 32 12
REMARK SMILES IDX 34 13 36 14 15 15 16 16 29 17 28 18 21 19 17 20 19 21 30 22
REMARK SMILES IDX 31 23 22 25 23 26 24 27 25 28 26 29 27 30 18 31 20 33 33 35
REMARK SMILES IDX 35 37 37 39 38 41 39 42 40 43 7 45 43 47 44 48 45 50 46 51
REMARK SMILES IDX 47 53 48 54 49 55 50 57 51 58 52 59 53 60 54 61 67 62 55 63
REMARK SMILES IDX 66 64 56 65 57 66 58 67 59 68 60 69 61 70 65 71 62 72 64 73
REMARK SMILES IDX 63 74 4 75 2 76 1 78 3 79
REMARK H PARENT 31 24 18 32 20 34 33 36 35 38 37 40 40 44 7 46 44 49 46 52
REMARK H PARENT 48 56 4 77
REMARK Flexibility Score: inf
ROOT
ATOM      1  C   UNL     1      29.143  31.859  16.068  1.00  0.00     0.272 C 
ATOM      2  C   UNL     1      28.961  30.416  15.827  1.00  0.00     0.113 C 
ATOM      3  C   UNL     1      27.640  29.847  16.305  1.00  0.00     0.145 C 
ATOM      4  C   UNL     1      27.467  30.294  17.715  1.00  0.00     0.142 C 
ATOM      5  C   UNL     1      27.678  31.770  17.904  1.00  0.00     0.178 C 
ATOM      6  O   UNL     1      28.752  32.326  17.312  1.00  0.00    -0.332 OA
ENDROOT
BRANCH   1   7
ATOM      7  O   UNL     1      28.691  32.654  15.036  1.00  0.00    -0.338 OA
BRANCH   7   8
ATOM      8  C   UNL     1      28.860  33.994  15.159  1.00  0.00     0.199 C 
BRANCH   8   9
ATOM      9  C   UNL     1      29.653  34.559  13.961  1.00  0.00     0.179 C 
ATOM     10  C   UNL     1      28.639  36.361  12.812  1.00  0.00     0.282 C 
ATOM     11  O   UNL     1      28.765  35.027  13.076  1.00  0.00    -0.341 OA
ATOM     12  C   UNL     1      28.962  37.195  13.993  1.00  0.00     0.202 C 
ATOM     13  C   UNL     1      30.295  36.848  14.582  1.00  0.00     0.179 C 
ATOM     14  C   UNL     1      30.751  35.468  14.332  1.00  0.00     0.177 C 
BRANCH  10  15
ATOM     15  O   UNL     1      27.310  36.521  12.383  1.00  0.00    -0.341 OA
BRANCH  15  16
ATOM     16  C   UNL     1      27.109  36.574  11.046  1.00  0.00     0.184 C 
ATOM     17  C   UNL     1      26.254  37.736  10.632  1.00  0.00     0.178 C 
ATOM     18  O   UNL     1      26.474  37.945   9.274  1.00  0.00    -0.341 OA
ATOM     19  C   UNL     1      26.425  36.821   8.496  1.00  0.00     0.281 C 
ATOM     20  C   UNL     1      26.302  35.349  10.551  1.00  0.00     0.180 C 
ATOM     21  C   UNL     1      25.908  35.598   9.148  1.00  0.00     0.202 C 
BRANCH  17  22
ATOM     22  C   UNL     1      26.490  39.013  11.358  1.00  0.00     0.191 C 
BRANCH  22  23
ATOM     23  O   UNL     1      26.040  38.888  12.668  1.00  0.00    -0.394 OA
ATOM     24  H   UNL     1      26.564  38.200  13.139  1.00  0.00     0.210 HD
ENDBRANCH  22  23
ENDBRANCH  17  22
BRANCH  19  25
ATOM     25  O   UNL     1      27.723  36.585   8.053  1.00  0.00    -0.350 OA
BRANCH  25  26
ATOM     26  C   UNL     1      27.768  35.508   7.137  1.00  0.00     0.169 C 
BRANCH  26  27
ATOM     27  C   UNL     1      27.777  36.060   5.728  1.00  0.00     0.119 C 
BRANCH  27  28
ATOM     28  N   UNL     1      28.504  37.326   5.754  1.00  0.00    -0.092 NA
ATOM     29  N   UNL     1      27.999  38.294   5.151  1.00  0.00     0.001 N 
ATOM     30  N   UNL     1      27.583  39.130   4.327  1.00  0.00    -0.003 NA
ENDBRANCH  27  28
ENDBRANCH  26  27
ENDBRANCH  25  26
ENDBRANCH  19  25
BRANCH  20  31
ATOM     31  O   UNL     1      27.068  34.200  10.646  1.00  0.00    -0.387 OA
ATOM     32  H   UNL     1      26.853  33.622   9.870  1.00  0.00     0.211 HD
ENDBRANCH  20  31
BRANCH  21  33
ATOM     33  O   UNL     1      24.493  35.677   9.108  1.00  0.00    -0.385 OA
ATOM     34  H   UNL     1      24.104  35.856   9.990  1.00  0.00     0.211 HD
ENDBRANCH  21  33
ENDBRANCH  15  16
ENDBRANCH  10  15
BRANCH  12  35
ATOM     35  O   UNL     1      29.094  38.573  13.626  1.00  0.00    -0.385 OA
ATOM     36  H   UNL     1      28.217  38.818  13.246  1.00  0.00     0.211 HD
ENDBRANCH  12  35
BRANCH  13  37
ATOM     37  O   UNL     1      30.322  37.149  15.967  1.00  0.00    -0.387 OA
ATOM     38  H   UNL     1      29.694  37.905  16.151  1.00  0.00     0.211 HD
ENDBRANCH  13  37
BRANCH  14  39
ATOM     39  O   UNL     1      31.479  35.011  15.447  1.00  0.00    -0.387 OA
ATOM     40  H   UNL     1      32.097  34.303  15.130  1.00  0.00     0.211 HD
ENDBRANCH  14  39
ENDBRANCH   8   9
ENDBRANCH   7   8
ENDBRANCH   1   7
BRANCH   1  41
ATOM     41  C   UNL     1      30.649  32.062  16.128  1.00  0.00     0.364 C 
ATOM     42  O   UNL     1      31.139  32.456  17.199  1.00  0.00    -0.246 OA
BRANCH  41  43
ATOM     43  O   UNL     1      31.435  31.809  15.017  1.00  0.00    -0.477 OA
ATOM     44  H   UNL     1      32.342  31.329  15.123  1.00  0.00     0.296 HD
ENDBRANCH  41  43
ENDBRANCH   1  41
BRANCH   3  45
ATOM     45  O   UNL     1      26.649  30.234  15.446  1.00  0.00    -0.391 OA
ATOM     46  H   UNL     1      26.549  29.521  14.757  1.00  0.00     0.211 HD
ENDBRANCH   3  45
BRANCH   5  47
ATOM     47  C   UNL     1      26.404  32.567  17.739  1.00  0.00     0.176 C 
BRANCH  47  48
ATOM     48  O   UNL     1      26.010  32.723  16.412  1.00  0.00    -0.388 OA
ATOM     49  H   UNL     1      26.330  32.034  15.811  1.00  0.00     0.211 HD
ENDBRANCH  47  48
BRANCH  47  50
ATOM     50  C   UNL     1      25.245  32.000  18.544  1.00  0.00     0.165 C 
BRANCH  50  51
ATOM     51  O   UNL     1      24.569  31.002  17.881  1.00  0.00    -0.388 OA
ATOM     52  H   UNL     1      25.116  30.410  17.341  1.00  0.00     0.211 HD
ENDBRANCH  50  51
BRANCH  50  53
ATOM     53  C   UNL     1      24.328  33.020  19.104  1.00  0.00     0.154 C 
BRANCH  53  54
ATOM     54  N   UNL     1      23.766  33.971  18.195  1.00  0.00    -0.319 N 
ATOM     55  C   UNL     1      24.166  35.317  18.035  1.00  0.00     0.407 C 
ATOM     56  H   UNL     1      22.964  33.638  17.576  1.00  0.00     0.167 HD
ATOM     57  O   UNL     1      25.100  35.796  18.704  1.00  0.00    -0.225 OA
BRANCH  55  58
ATOM     58  O   UNL     1      23.495  36.104  17.111  1.00  0.00    -0.443 OA
BRANCH  58  59
ATOM     59  C   UNL     1      24.048  36.570  15.916  1.00  0.00     0.294 C 
BRANCH  59  60
ATOM     60  C   UNL     1      24.304  35.434  15.011  1.00  0.00     0.120 A 
ATOM     61  C   UNL     1      23.311  34.632  14.475  1.00  0.00     0.139 A 
ATOM     62  N   UNL     1      25.455  34.945  14.523  1.00  0.00    -0.132 NA
ATOM     63  N   UNL     1      23.875  33.696  13.690  1.00  0.00    -0.237 N 
ATOM     64  N   UNL     1      25.185  33.918  13.745  1.00  0.00    -0.066 NA
BRANCH  63  65
ATOM     65  C   UNL     1      23.199  32.673  12.943  1.00  0.00     0.287 C 
BRANCH  65  66
ATOM     66  S   UNL     1      23.578  31.115  13.746  1.00  0.00     0.198 S 
ATOM     67  O   UNL     1      23.804  31.312  15.196  1.00  0.00    -0.222 OA
ATOM     68  O   UNL     1      24.812  30.558  13.056  1.00  0.00    -0.222 OA
BRANCH  66  69
ATOM     69  C   UNL     1      22.229  30.046  13.464  1.00  0.00     0.069 A 
ATOM     70  C   UNL     1      21.455  30.127  12.327  1.00  0.00     0.020 A 
ATOM     71  C   UNL     1      21.890  29.075  14.381  1.00  0.00     0.020 A 
ATOM     72  C   UNL     1      20.394  29.288  12.105  1.00  0.00     0.001 A 
ATOM     73  C   UNL     1      20.832  28.228  14.174  1.00  0.00     0.001 A 
ATOM     74  C   UNL     1      20.083  28.338  13.030  1.00  0.00     0.000 A 
ENDBRANCH  66  69
ENDBRANCH  65  66
ENDBRANCH  63  65
ENDBRANCH  59  60
ENDBRANCH  58  59
ENDBRANCH  55  58
ENDBRANCH  53  54
ENDBRANCH  50  53
ENDBRANCH  47  50
ENDBRANCH   5  47
BRANCH   4  75
ATOM     75  N   UNL     1      28.457  29.613  18.541  1.00  0.00    -0.348 N 
ATOM     76  C   UNL     1      28.082  28.850  19.682  1.00  0.00     0.217 C 
ATOM     77  H   UNL     1      29.501  29.659  18.330  1.00  0.00     0.163 HD
ATOM     78  C   UNL     1      29.146  28.167  20.501  1.00  0.00     0.114 C 
ATOM     79  O   UNL     1      26.868  28.737  20.015  1.00  0.00    -0.275 OA
ENDBRANCH   4  75
TORSDOF 32
BEGIN_RES LYS A 131
REMARK  4 active torsions:
REMARK  status: ('A' for Active; 'I' for Inactive)
REMARK    1  A    between atoms: CA   and  CB  
REMARK    2  A    between atoms: CB   and  CG  
REMARK    3  A    between atoms: CG   and  CD  
REMARK    4  A    between atoms: CD   and  CE  
ROOT
ATOM      1  CA  LYS A 131      29.867  25.555  16.977  1.00 20.52     0.186 C 
ENDROOT
BRANCH   1   2
ATOM      2  CB  LYS A 131      28.345  25.722  17.026  1.00 20.94     0.034 C 
BRANCH   2   3
ATOM      3  CG  LYS A 131      27.601  24.400  16.908  1.00 22.96     0.005 C 
BRANCH   3   4
ATOM      4  CD  LYS A 131      26.177  24.508  17.375  1.00 24.33     0.041 C 
BRANCH   4   5
ATOM      5  CE  LYS A 131      26.052  25.660  18.368  1.00 26.91     0.338 C 
ATOM      6  NZ  LYS A 131      24.955  26.573  17.969  1.00 27.40     0.618 N 
ENDBRANCH   4   5
ENDBRANCH   3   4
ENDBRANCH   2   3
ENDBRANCH   1   2
END_RES LYS A 131
BEGIN_RES LYS A 135
REMARK  4 active torsions:
REMARK  status: ('A' for Active; 'I' for Inactive)
REMARK    5  A    between atoms: CA   and  CB  
REMARK    6  A    between atoms: CB   and  CG  
REMARK    7  A    between atoms: CG   and  CD  
REMARK    8  A    between atoms: CD   and  CE  
ROOT
ATOM      7  CA  LYS A 135      33.193  34.663   9.290  1.00 25.02     0.186 C 
ENDROOT
BRANCH   7   8
ATOM      8  CB  LYS A 135      32.060  35.360  10.034  1.00 26.63     0.034 C 
BRANCH   8   9
ATOM      9  CG  LYS A 135      32.523  36.162  11.222  1.00 29.45     0.005 C 
BRANCH   9  10
ATOM     10  CD  LYS A 135      31.879  37.540  11.224  1.00 32.00     0.041 C 
BRANCH  10  11
ATOM     11  CE  LYS A 135      31.020  37.728   9.988  1.00 34.25     0.338 C 
ATOM     12  NZ  LYS A 135      29.938  38.721  10.233  1.00 35.99     0.618 N 
ENDBRANCH  10  11
ENDBRANCH   9  10
ENDBRANCH   8   9
ENDBRANCH   7   8
END_RES LYS A 135
