REMARK VINA RESULT:    -4.858      4.317      9.485
REMARK INTER + INTRA:         -23.183
REMARK INTER:                 -10.982
REMARK INTRA:                 -12.201
REMARK UNBOUND:               -10.372
REMARK SMILES CC(=O)N[C@@H]1[C@@H](O)C[C@](OC[C@H]2O[C@@H](O[C@H]3[C@H](O)[C@@H](O)[C@H](OCCN=[N+]=[N-])O[C@@H]3CO)[C@H](O)[C@@H](O)[C@H]2O)(C(=O)O)O[C@H]1C(O)[C@H](O)CNC(=O)OCc1cn(CC(=O)NCc2cccs2)nn1
REMARK SMILES IDX 43 1 42 2 9 3 8 4 41 5 6 6 5 7 10 8 11 9 12 10 14 11 13 12
REMARK SMILES IDX 32 13 34 14 36 15 15 16 16 17 29 18 28 19 21 20 17 21 19 22
REMARK SMILES IDX 30 23 31 24 22 26 23 27 24 28 25 29 26 30 27 31 18 32 20 34
REMARK SMILES IDX 33 36 35 38 37 40 38 42 39 43 40 44 7 46 4 48 2 49 1 51 3 52
REMARK SMILES IDX 44 53 45 55 46 56 47 58 48 59 49 60 50 62 51 63 52 64 53 65
REMARK SMILES IDX 54 66 67 67 55 68 66 69 56 70 57 71 58 72 59 73 60 75 61 76
REMARK SMILES IDX 62 77 65 78 63 79 64 80
REMARK H PARENT 31 25 18 33 20 35 33 37 35 39 37 41 40 45 7 47 4 50 44 54
REMARK H PARENT 46 57 48 61 59 74
REMARK Flexibility Score: inf
ROOT
ATOM      1  C   UNL     1      30.292  32.153  15.325  1.00  0.00     0.176 C 
ENDROOT
BRANCH   1   2
ATOM      2  C   UNL     1      30.259  33.651  15.490  1.00  0.00     0.178 C 
ATOM      3  C   UNL     1      28.557  34.728  14.250  1.00  0.00     0.272 C 
ATOM      4  C   UNL     1      29.532  34.737  13.061  1.00  0.00     0.113 C 
ATOM      5  O   UNL     1      28.983  34.067  15.331  1.00  0.00    -0.332 OA
ATOM      6  C   UNL     1      30.867  35.133  13.550  1.00  0.00     0.145 C 
ATOM      7  C   UNL     1      31.320  34.405  14.789  1.00  0.00     0.142 C 
BRANCH   3   8
ATOM      8  O   UNL     1      27.413  34.164  13.735  1.00  0.00    -0.338 OA
BRANCH   8   9
ATOM      9  C   UNL     1      26.642  33.358  14.468  1.00  0.00     0.199 C 
BRANCH   9  10
ATOM     10  C   UNL     1      25.410  33.905  15.130  1.00  0.00     0.179 C 
ATOM     11  C   UNL     1      23.148  33.541  14.983  1.00  0.00     0.282 C 
ATOM     12  O   UNL     1      24.408  32.933  14.890  1.00  0.00    -0.341 OA
ATOM     13  C   UNL     1      23.051  34.435  16.173  1.00  0.00     0.202 C 
ATOM     14  C   UNL     1      24.139  34.279  17.183  1.00  0.00     0.179 C 
ATOM     15  C   UNL     1      25.498  33.975  16.639  1.00  0.00     0.177 C 
BRANCH  11  16
ATOM     16  O   UNL     1      22.123  32.638  14.967  1.00  0.00    -0.341 OA
BRANCH  16  17
ATOM     17  C   UNL     1      22.550  31.313  14.921  1.00  0.00     0.184 C 
ATOM     18  C   UNL     1      22.027  30.553  13.783  1.00  0.00     0.178 C 
ATOM     19  O   UNL     1      21.111  29.564  14.020  1.00  0.00    -0.341 OA
ATOM     20  C   UNL     1      20.565  29.478  15.260  1.00  0.00     0.281 C 
ATOM     21  C   UNL     1      22.345  30.729  16.290  1.00  0.00     0.180 C 
ATOM     22  C   UNL     1      21.732  29.352  16.256  1.00  0.00     0.202 C 
BRANCH  18  23
ATOM     23  C   UNL     1      23.181  29.849  13.040  1.00  0.00     0.191 C 
BRANCH  23  24
ATOM     24  O   UNL     1      24.400  30.444  13.284  1.00  0.00    -0.394 OA
ATOM     25  H   UNL     1      25.017  30.192  12.545  1.00  0.00     0.210 HD
ENDBRANCH  23  24
ENDBRANCH  18  23
BRANCH  20  26
ATOM     26  O   UNL     1      19.892  28.250  15.369  1.00  0.00    -0.350 OA
BRANCH  26  27
ATOM     27  C   UNL     1      20.400  27.306  14.499  1.00  0.00     0.169 C 
BRANCH  27  28
ATOM     28  C   UNL     1      19.214  26.490  13.976  1.00  0.00     0.119 C 
BRANCH  28  29
ATOM     29  N   UNL     1      18.869  26.951  12.639  1.00  0.00    -0.092 NA
ATOM     30  N   UNL     1      17.701  27.229  12.376  1.00  0.00     0.001 N 
ATOM     31  N   UNL     1      16.585  27.713  12.108  1.00  0.00    -0.003 NA
ENDBRANCH  28  29
ENDBRANCH  27  28
ENDBRANCH  26  27
ENDBRANCH  20  26
BRANCH  21  32
ATOM     32  O   UNL     1      23.506  30.742  17.070  1.00  0.00    -0.387 OA
ATOM     33  H   UNL     1      23.596  29.888  17.593  1.00  0.00     0.211 HD
ENDBRANCH  21  32
BRANCH  22  34
ATOM     34  O   UNL     1      21.268  29.052  17.522  1.00  0.00    -0.385 OA
ATOM     35  H   UNL     1      20.292  28.880  17.507  1.00  0.00     0.211 HD
ENDBRANCH  22  34
ENDBRANCH  16  17
ENDBRANCH  11  16
BRANCH  13  36
ATOM     36  O   UNL     1      22.937  35.793  15.797  1.00  0.00    -0.385 OA
ATOM     37  H   UNL     1      23.765  36.292  15.886  1.00  0.00     0.211 HD
ENDBRANCH  13  36
BRANCH  14  38
ATOM     38  O   UNL     1      23.760  33.353  18.183  1.00  0.00    -0.387 OA
ATOM     39  H   UNL     1      24.314  33.491  18.990  1.00  0.00     0.211 HD
ENDBRANCH  14  38
BRANCH  15  40
ATOM     40  O   UNL     1      25.845  32.693  17.129  1.00  0.00    -0.387 OA
ATOM     41  H   UNL     1      26.798  32.489  16.996  1.00  0.00     0.211 HD
ENDBRANCH  15  40
ENDBRANCH   9  10
ENDBRANCH   8   9
ENDBRANCH   3   8
BRANCH   3  42
ATOM     42  C   UNL     1      28.357  36.176  14.570  1.00  0.00     0.364 C 
ATOM     43  O   UNL     1      28.442  36.668  15.717  1.00  0.00    -0.246 OA
BRANCH  42  44
ATOM     44  O   UNL     1      28.059  37.060  13.540  1.00  0.00    -0.477 OA
ATOM     45  H   UNL     1      28.467  36.936  12.622  1.00  0.00     0.296 HD
ENDBRANCH  42  44
ENDBRANCH   3  42
BRANCH   6  46
ATOM     46  O   UNL     1      31.814  34.982  12.497  1.00  0.00    -0.391 OA
ATOM     47  H   UNL     1      31.417  35.203  11.627  1.00  0.00     0.211 HD
ENDBRANCH   6  46
BRANCH   7  48
ATOM     48  N   UNL     1      32.029  35.300  15.682  1.00  0.00    -0.348 N 
ATOM     49  C   UNL     1      33.414  35.514  15.520  1.00  0.00     0.217 C 
ATOM     50  H   UNL     1      31.542  35.805  16.468  1.00  0.00     0.163 HD
ATOM     51  C   UNL     1      34.127  36.438  16.450  1.00  0.00     0.114 C 
ATOM     52  O   UNL     1      34.106  34.967  14.629  1.00  0.00    -0.275 OA
ENDBRANCH   7  48
ENDBRANCH   1   2
BRANCH   1  53
ATOM     53  O   UNL     1      31.526  31.607  15.120  1.00  0.00    -0.388 OA
ATOM     54  H   UNL     1      31.996  31.878  14.302  1.00  0.00     0.211 HD
ENDBRANCH   1  53
BRANCH   1  55
ATOM     55  C   UNL     1      29.452  31.380  16.318  1.00  0.00     0.165 C 
BRANCH  55  56
ATOM     56  O   UNL     1      30.159  30.924  17.389  1.00  0.00    -0.388 OA
ATOM     57  H   UNL     1      31.106  30.730  17.215  1.00  0.00     0.211 HD
ENDBRANCH  55  56
BRANCH  55  58
ATOM     58  C   UNL     1      28.725  30.248  15.615  1.00  0.00     0.154 C 
BRANCH  58  59
ATOM     59  N   UNL     1      27.931  29.454  16.505  1.00  0.00    -0.319 N 
ATOM     60  C   UNL     1      26.517  29.372  16.543  1.00  0.00     0.407 C 
ATOM     61  H   UNL     1      28.404  28.829  17.252  1.00  0.00     0.167 HD
ATOM     62  O   UNL     1      25.803  30.004  15.765  1.00  0.00    -0.225 OA
BRANCH  60  63
ATOM     63  O   UNL     1      25.856  28.555  17.482  1.00  0.00    -0.443 OA
BRANCH  63  64
ATOM     64  C   UNL     1      25.995  28.650  18.862  1.00  0.00     0.294 C 
BRANCH  64  65
ATOM     65  C   UNL     1      26.178  30.015  19.371  1.00  0.00     0.120 A 
ATOM     66  C   UNL     1      27.348  30.582  19.828  1.00  0.00     0.138 A 
ATOM     67  N   UNL     1      25.229  30.982  19.484  1.00  0.00    -0.132 NA
ATOM     68  N   UNL     1      27.095  31.844  20.199  1.00  0.00    -0.243 N 
ATOM     69  N   UNL     1      25.818  32.049  19.978  1.00  0.00    -0.067 NA
BRANCH  68  70
ATOM     70  C   UNL     1      27.972  32.859  20.737  1.00  0.00     0.245 C 
BRANCH  70  71
ATOM     71  C   UNL     1      29.361  32.369  20.655  1.00  0.00     0.242 C 
ATOM     72  O   UNL     1      30.053  32.608  19.649  1.00  0.00    -0.273 OA
ATOM     73  N   UNL     1      29.922  31.621  21.718  1.00  0.00    -0.350 N 
ATOM     74  H   UNL     1      29.367  31.395  22.591  1.00  0.00     0.163 HD
BRANCH  73  75
ATOM     75  C   UNL     1      31.265  31.130  21.679  1.00  0.00     0.162 C 
BRANCH  75  76
ATOM     76  C   UNL     1      31.244  29.687  21.398  1.00  0.00     0.024 A 
ATOM     77  C   UNL     1      31.950  28.929  20.521  1.00  0.00     0.017 A 
ATOM     78  S   UNL     1      30.215  28.517  22.212  1.00  0.00    -0.147 S 
ATOM     79  C   UNL     1      31.735  27.606  20.472  1.00  0.00     0.012 A 
ATOM     80  C   UNL     1      30.826  27.038  21.285  1.00  0.00     0.065 A 
ENDBRANCH  75  76
ENDBRANCH  73  75
ENDBRANCH  70  71
ENDBRANCH  68  70
ENDBRANCH  64  65
ENDBRANCH  63  64
ENDBRANCH  60  63
ENDBRANCH  58  59
ENDBRANCH  55  58
ENDBRANCH   1  55
TORSDOF 33
BEGIN_RES LYS A 131
REMARK  4 active torsions:
REMARK  status: ('A' for Active; 'I' for Inactive)
REMARK    1  A    between atoms: CA   and  CB  
REMARK    2  A    between atoms: CB   and  CG  
REMARK    3  A    between atoms: CG   and  CD  
REMARK    4  A    between atoms: CD   and  CE  
ROOT
ATOM      1  CA  LYS A 131      29.867  25.555  16.977  1.00 20.52     0.186 C 
ENDROOT
BRANCH   1   2
ATOM      2  CB  LYS A 131      28.345  25.722  17.026  1.00 20.94     0.034 C 
BRANCH   2   3
ATOM      3  CG  LYS A 131      27.601  24.401  16.901  1.00 22.96     0.005 C 
BRANCH   3   4
ATOM      4  CD  LYS A 131      26.502  24.272  17.918  1.00 24.33     0.041 C 
BRANCH   4   5
ATOM      5  CE  LYS A 131      25.151  24.462  17.235  1.00 26.91     0.338 C 
ATOM      6  NZ  LYS A 131      24.414  23.178  17.175  1.00 27.40     0.618 N 
ENDBRANCH   4   5
ENDBRANCH   3   4
ENDBRANCH   2   3
ENDBRANCH   1   2
END_RES LYS A 131
BEGIN_RES LYS A 135
REMARK  4 active torsions:
REMARK  status: ('A' for Active; 'I' for Inactive)
REMARK    5  A    between atoms: CA   and  CB  
REMARK    6  A    between atoms: CB   and  CG  
REMARK    7  A    between atoms: CG   and  CD  
REMARK    8  A    between atoms: CD   and  CE  
ROOT
ATOM      7  CA  LYS A 135      33.193  34.663   9.290  1.00 25.02     0.186 C 
ENDROOT
BRANCH   7   8
ATOM      8  CB  LYS A 135      32.060  35.360  10.034  1.00 26.63     0.034 C 
BRANCH   8   9
ATOM      9  CG  LYS A 135      30.799  35.497   9.220  1.00 29.45     0.005 C 
BRANCH   9  10
ATOM     10  CD  LYS A 135      30.187  34.132   8.946  1.00 32.00     0.041 C 
BRANCH  10  11
ATOM     11  CE  LYS A 135      28.739  34.097   9.397  1.00 34.25     0.338 C 
ATOM     12  NZ  LYS A 135      27.832  34.596   8.327  1.00 35.99     0.618 N 
ENDBRANCH  10  11
ENDBRANCH   9  10
ENDBRANCH   8   9
ENDBRANCH   7   8
END_RES LYS A 135
