REMARK VINA RESULT:    -5.335      4.082     10.039
REMARK INTER + INTRA:         -26.894
REMARK INTER:                 -16.332
REMARK INTRA:                 -10.562
REMARK UNBOUND:               -12.046
REMARK SMILES CC(=O)N[C@@H]1[C@@H](O)C[C@](OC[C@H]2O[C@@H](O[C@H]3[C@H](O)[C@@H](O)[C@H](OCCN=[N+]=[N-])O[C@@H]3CO)[C@H](O)[C@@H](O)[C@H]2O)(C(=O)O)O[C@H]1C(O)[C@H](O)CNC(=O)OCc1cn(C[C@@H](C(=O)O)C(c2ccccc2)c2ccccc2)nn1
REMARK SMILES IDX 43 1 42 2 9 3 8 4 41 5 6 6 5 7 10 8 11 9 12 10 14 11 13 12
REMARK SMILES IDX 32 13 34 14 36 15 15 16 16 17 29 18 28 19 21 20 17 21 19 22
REMARK SMILES IDX 30 23 31 24 22 26 23 27 24 28 25 29 26 30 27 31 18 32 20 34
REMARK SMILES IDX 33 36 35 38 37 40 38 42 39 43 40 44 7 46 4 48 2 49 1 51 3 52
REMARK SMILES IDX 44 53 45 55 46 56 47 58 48 59 49 60 50 62 51 63 52 64 53 65
REMARK SMILES IDX 54 66 75 67 55 68 74 69 56 70 57 71 58 72 59 73 60 74 61 76
REMARK SMILES IDX 62 77 63 78 67 79 64 80 66 81 65 82 68 83 69 84 73 85 70 86
REMARK SMILES IDX 72 87 71 88
REMARK H PARENT 31 25 18 33 20 35 33 37 35 39 37 41 40 45 7 47 4 50 44 54
REMARK H PARENT 46 57 48 61 60 75
REMARK Flexibility Score: inf
ROOT
ATOM      1  C   UNL     1      22.866  35.088  12.148  1.00  0.00     0.176 C 
ENDROOT
BRANCH   1   2
ATOM      2  C   UNL     1      23.191  33.655  12.624  1.00  0.00     0.178 C 
ATOM      3  C   UNL     1      22.449  31.674  13.554  1.00  0.00     0.272 C 
ATOM      4  C   UNL     1      23.927  31.374  13.139  1.00  0.00     0.113 C 
ATOM      5  O   UNL     1      22.165  33.008  13.207  1.00  0.00    -0.332 OA
ATOM      6  C   UNL     1      24.883  32.350  13.732  1.00  0.00     0.145 C 
ATOM      7  C   UNL     1      24.457  33.753  13.442  1.00  0.00     0.142 C 
BRANCH   3   8
ATOM      8  O   UNL     1      22.311  31.353  14.797  1.00  0.00    -0.338 OA
BRANCH   8   9
ATOM      9  C   UNL     1      21.929  31.837  15.912  1.00  0.00     0.199 C 
BRANCH   9  10
ATOM     10  C   UNL     1      22.315  31.306  17.268  1.00  0.00     0.179 C 
ATOM     11  C   UNL     1      24.259  30.233  18.100  1.00  0.00     0.282 C 
ATOM     12  O   UNL     1      23.318  30.394  17.157  1.00  0.00    -0.341 OA
ATOM     13  C   UNL     1      24.158  30.959  19.384  1.00  0.00     0.202 C 
ATOM     14  C   UNL     1      23.087  32.009  19.450  1.00  0.00     0.179 C 
ATOM     15  C   UNL     1      22.895  32.505  18.053  1.00  0.00     0.177 C 
BRANCH  11  16
ATOM     16  O   UNL     1      25.470  30.672  17.488  1.00  0.00    -0.341 OA
BRANCH  16  17
ATOM     17  C   UNL     1      26.325  29.653  17.177  1.00  0.00     0.184 C 
ATOM     18  C   UNL     1      27.041  29.225  18.428  1.00  0.00     0.178 C 
ATOM     19  O   UNL     1      28.175  29.986  18.683  1.00  0.00    -0.341 OA
ATOM     20  C   UNL     1      28.110  31.283  18.154  1.00  0.00     0.281 C 
ATOM     21  C   UNL     1      27.383  30.069  16.164  1.00  0.00     0.180 C 
ATOM     22  C   UNL     1      28.133  31.288  16.663  1.00  0.00     0.202 C 
BRANCH  18  23
ATOM     23  C   UNL     1      27.410  27.769  18.463  1.00  0.00     0.191 C 
BRANCH  23  24
ATOM     24  O   UNL     1      28.484  27.502  19.287  1.00  0.00    -0.394 OA
ATOM     25  H   UNL     1      28.660  28.338  19.814  1.00  0.00     0.210 HD
ENDBRANCH  23  24
ENDBRANCH  18  23
BRANCH  20  26
ATOM     26  O   UNL     1      29.204  31.986  18.605  1.00  0.00    -0.350 OA
BRANCH  26  27
ATOM     27  C   UNL     1      30.378  31.795  17.946  1.00  0.00     0.169 C 
BRANCH  27  28
ATOM     28  C   UNL     1      31.062  33.049  17.510  1.00  0.00     0.119 C 
BRANCH  28  29
ATOM     29  N   UNL     1      31.509  32.810  16.123  1.00  0.00    -0.092 NA
ATOM     30  N   UNL     1      30.737  33.154  15.224  1.00  0.00     0.001 N 
ATOM     31  N   UNL     1      29.924  33.356  14.325  1.00  0.00    -0.003 NA
ENDBRANCH  28  29
ENDBRANCH  27  28
ENDBRANCH  26  27
ENDBRANCH  20  26
BRANCH  21  32
ATOM     32  O   UNL     1      28.297  29.023  16.075  1.00  0.00    -0.387 OA
ATOM     33  H   UNL     1      28.058  28.359  15.389  1.00  0.00     0.211 HD
ENDBRANCH  21  32
BRANCH  22  34
ATOM     34  O   UNL     1      27.526  32.446  16.196  1.00  0.00    -0.385 OA
ATOM     35  H   UNL     1      28.147  32.839  15.505  1.00  0.00     0.211 HD
ENDBRANCH  22  34
ENDBRANCH  16  17
ENDBRANCH  11  16
BRANCH  13  36
ATOM     36  O   UNL     1      23.874  30.055  20.436  1.00  0.00    -0.385 OA
ATOM     37  H   UNL     1      22.887  29.982  20.571  1.00  0.00     0.211 HD
ENDBRANCH  13  36
BRANCH  14  38
ATOM     38  O   UNL     1      23.476  33.034  20.289  1.00  0.00    -0.387 OA
ATOM     39  H   UNL     1      22.858  33.802  20.170  1.00  0.00     0.211 HD
ENDBRANCH  14  38
BRANCH  15  40
ATOM     40  O   UNL     1      24.125  32.883  17.535  1.00  0.00    -0.387 OA
ATOM     41  H   UNL     1      24.123  33.857  17.427  1.00  0.00     0.211 HD
ENDBRANCH  15  40
ENDBRANCH   9  10
ENDBRANCH   8   9
ENDBRANCH   3   8
BRANCH   3  42
ATOM     42  C   UNL     1      21.686  30.863  12.584  1.00  0.00     0.364 C 
ATOM     43  O   UNL     1      21.978  29.704  12.226  1.00  0.00    -0.246 OA
BRANCH  42  44
ATOM     44  O   UNL     1      20.526  31.408  11.992  1.00  0.00    -0.477 OA
ATOM     45  H   UNL     1      19.938  31.968  12.571  1.00  0.00     0.296 HD
ENDBRANCH  42  44
ENDBRANCH   3  42
BRANCH   6  46
ATOM     46  O   UNL     1      25.063  32.151  15.109  1.00  0.00    -0.391 OA
ATOM     47  H   UNL     1      25.436  31.260  15.308  1.00  0.00     0.211 HD
ENDBRANCH   6  46
BRANCH   7  48
ATOM     48  N   UNL     1      25.464  34.400  12.634  1.00  0.00    -0.348 N 
ATOM     49  C   UNL     1      26.639  34.941  13.214  1.00  0.00     0.217 C 
ATOM     50  H   UNL     1      25.310  34.464  11.588  1.00  0.00     0.163 HD
ATOM     51  C   UNL     1      27.691  35.616  12.378  1.00  0.00     0.114 C 
ATOM     52  O   UNL     1      26.768  34.836  14.461  1.00  0.00    -0.275 OA
ENDBRANCH   7  48
ENDBRANCH   1   2
BRANCH   1  53
ATOM     53  O   UNL     1      23.169  36.007  13.116  1.00  0.00    -0.388 OA
ATOM     54  H   UNL     1      23.451  35.615  13.974  1.00  0.00     0.211 HD
ENDBRANCH   1  53
BRANCH   1  55
ATOM     55  C   UNL     1      21.444  35.199  11.759  1.00  0.00     0.165 C 
BRANCH  55  56
ATOM     56  O   UNL     1      20.997  34.123  10.963  1.00  0.00    -0.388 OA
ATOM     57  H   UNL     1      20.803  33.390  11.627  1.00  0.00     0.211 HD
ENDBRANCH  55  56
BRANCH  55  58
ATOM     58  C   UNL     1      20.903  36.465  11.210  1.00  0.00     0.154 C 
BRANCH  58  59
ATOM     59  N   UNL     1      21.574  37.019  10.092  1.00  0.00    -0.319 N 
ATOM     60  C   UNL     1      21.464  36.597   8.750  1.00  0.00     0.407 C 
ATOM     61  H   UNL     1      22.244  37.862  10.279  1.00  0.00     0.167 HD
ATOM     62  O   UNL     1      20.769  35.627   8.400  1.00  0.00    -0.225 OA
BRANCH  60  63
ATOM     63  O   UNL     1      22.158  37.303   7.790  1.00  0.00    -0.443 OA
BRANCH  63  64
ATOM     64  C   UNL     1      22.540  38.621   7.971  1.00  0.00     0.294 C 
BRANCH  64  65
ATOM     65  C   UNL     1      23.957  38.810   8.314  1.00  0.00     0.120 A 
ATOM     66  C   UNL     1      25.041  38.988   7.489  1.00  0.00     0.138 A 
ATOM     67  N   UNL     1      24.484  38.811   9.578  1.00  0.00    -0.132 NA
ATOM     68  N   UNL     1      26.151  39.087   8.228  1.00  0.00    -0.251 N 
ATOM     69  N   UNL     1      25.784  38.976   9.490  1.00  0.00    -0.067 NA
BRANCH  68  70
ATOM     70  C   UNL     1      27.541  39.285   7.771  1.00  0.00     0.162 C 
BRANCH  70  71
ATOM     71  C   UNL     1      28.090  37.999   7.246  1.00  0.00     0.132 C 
BRANCH  71  72
ATOM     72  C   UNL     1      28.459  38.126   5.804  1.00  0.00     0.309 C 
ATOM     73  O   UNL     1      29.613  38.378   5.422  1.00  0.00    -0.252 OA
BRANCH  72  74
ATOM     74  O   UNL     1      27.482  37.958   4.838  1.00  0.00    -0.481 OA
ATOM     75  H   UNL     1      27.596  38.405   3.924  1.00  0.00     0.296 HD
ENDBRANCH  72  74
ENDBRANCH  71  72
BRANCH  71  76
ATOM     76  C   UNL     1      29.127  37.303   8.045  1.00  0.00     0.065 C 
BRANCH  76  77
ATOM     77  C   UNL     1      29.905  38.098   8.997  1.00  0.00    -0.040 A 
ATOM     78  C   UNL     1      31.175  38.589   8.661  1.00  0.00     0.004 A 
ATOM     79  C   UNL     1      29.464  38.419  10.283  1.00  0.00     0.004 A 
ATOM     80  C   UNL     1      31.935  39.326   9.514  1.00  0.00     0.000 A 
ATOM     81  C   UNL     1      30.239  39.165  11.137  1.00  0.00     0.000 A 
ATOM     82  C   UNL     1      31.485  39.627  10.762  1.00  0.00     0.000 A 
ENDBRANCH  76  77
BRANCH  76  83
ATOM     83  C   UNL     1      28.702  35.969   8.545  1.00  0.00    -0.040 A 
ATOM     84  C   UNL     1      27.350  35.697   8.518  1.00  0.00     0.004 A 
ATOM     85  C   UNL     1      29.587  35.032   9.006  1.00  0.00     0.004 A 
ATOM     86  C   UNL     1      26.869  34.493   8.947  1.00  0.00     0.000 A 
ATOM     87  C   UNL     1      29.083  33.810   9.440  1.00  0.00     0.000 A 
ATOM     88  C   UNL     1      27.735  33.532   9.415  1.00  0.00     0.000 A 
ENDBRANCH  76  83
ENDBRANCH  71  76
ENDBRANCH  70  71
ENDBRANCH  68  70
ENDBRANCH  64  65
ENDBRANCH  63  64
ENDBRANCH  60  63
ENDBRANCH  58  59
ENDBRANCH  55  58
ENDBRANCH   1  55
TORSDOF 36
BEGIN_RES LYS A 131
REMARK  4 active torsions:
REMARK  status: ('A' for Active; 'I' for Inactive)
REMARK    1  A    between atoms: CA   and  CB  
REMARK    2  A    between atoms: CB   and  CG  
REMARK    3  A    between atoms: CG   and  CD  
REMARK    4  A    between atoms: CD   and  CE  
ROOT
ATOM      1  CA  LYS A 131      29.867  25.555  16.977  1.00 20.52     0.186 C 
ENDROOT
BRANCH   1   2
ATOM      2  CB  LYS A 131      28.345  25.722  17.026  1.00 20.94     0.034 C 
BRANCH   2   3
ATOM      3  CG  LYS A 131      27.601  24.403  16.887  1.00 22.96     0.005 C 
BRANCH   3   4
ATOM      4  CD  LYS A 131      26.556  24.227  17.954  1.00 24.33     0.041 C 
BRANCH   4   5
ATOM      5  CE  LYS A 131      25.257  23.741  17.319  1.00 26.91     0.338 C 
ATOM      6  NZ  LYS A 131      24.566  22.786  18.217  1.00 27.40     0.618 N 
ENDBRANCH   4   5
ENDBRANCH   3   4
ENDBRANCH   2   3
ENDBRANCH   1   2
END_RES LYS A 131
BEGIN_RES LYS A 135
REMARK  4 active torsions:
REMARK  status: ('A' for Active; 'I' for Inactive)
REMARK    5  A    between atoms: CA   and  CB  
REMARK    6  A    between atoms: CB   and  CG  
REMARK    7  A    between atoms: CG   and  CD  
REMARK    8  A    between atoms: CD   and  CE  
ROOT
ATOM      7  CA  LYS A 135      33.193  34.663   9.290  1.00 25.02     0.186 C 
ENDROOT
BRANCH   7   8
ATOM      8  CB  LYS A 135      32.060  35.360  10.034  1.00 26.63     0.034 C 
BRANCH   8   9
ATOM      9  CG  LYS A 135      32.495  36.011  11.322  1.00 29.45     0.005 C 
BRANCH   9  10
ATOM     10  CD  LYS A 135      31.392  35.926  12.365  1.00 32.00     0.041 C 
BRANCH  10  11
ATOM     11  CE  LYS A 135      31.753  36.746  13.589  1.00 34.25     0.338 C 
ATOM     12  NZ  LYS A 135      32.691  36.002  14.476  1.00 35.99     0.618 N 
ENDBRANCH  10  11
ENDBRANCH   9  10
ENDBRANCH   8   9
ENDBRANCH   7   8
END_RES LYS A 135
