REMARK VINA RESULT:    -4.840      4.493      8.553
REMARK INTER + INTRA:         -23.728
REMARK INTER:                  -8.523
REMARK INTRA:                 -15.205
REMARK UNBOUND:               -10.398
REMARK SMILES CC(=O)N[C@@H]1[C@@H](O)C[C@](OC[C@H]2O[C@@H](O[C@H]3[C@H](O)[C@@H](O)[C@H](OCCN=[N+]=[N-])O[C@@H]3CO)[C@H](O)[C@@H](O)[C@H]2O)(C(=O)O)O[C@H]1C(O)[C@H](O)CNC(=O)OCc1cn([C@@H](CCC(=O)O)C(=O)O)nn1
REMARK SMILES IDX 43 1 42 2 9 3 8 4 41 5 6 6 5 7 10 8 11 9 12 10 14 11 13 12
REMARK SMILES IDX 32 13 34 14 36 15 15 16 16 17 29 18 28 19 21 20 17 21 19 22
REMARK SMILES IDX 30 23 31 24 22 26 23 27 24 28 25 29 26 30 27 31 18 32 20 34
REMARK SMILES IDX 33 36 35 38 37 40 38 42 39 43 40 44 7 46 4 48 2 49 1 51 3 52
REMARK SMILES IDX 44 53 45 55 46 56 47 58 48 59 49 60 50 62 51 63 52 64 53 65
REMARK SMILES IDX 54 66 66 67 55 68 65 69 56 70 57 71 58 72 59 73 60 74 61 75
REMARK SMILES IDX 62 77 63 78 64 79
REMARK H PARENT 31 25 18 33 20 35 33 37 35 39 37 41 40 45 7 47 4 50 44 54
REMARK H PARENT 46 57 48 61 61 76 64 80
REMARK Flexibility Score: inf
ROOT
ATOM      1  C   UNL     1      26.553  30.695  15.329  1.00  0.00     0.176 C 
ENDROOT
BRANCH   1   2
ATOM      2  C   UNL     1      26.292  32.202  15.334  1.00  0.00     0.178 C 
ATOM      3  C   UNL     1      27.664  34.114  15.279  1.00  0.00     0.272 C 
ATOM      4  C   UNL     1      27.183  34.650  16.568  1.00  0.00     0.113 C 
ATOM      5  O   UNL     1      27.587  32.712  15.417  1.00  0.00    -0.332 OA
ATOM      6  C   UNL     1      26.396  33.634  17.351  1.00  0.00     0.145 C 
ATOM      7  C   UNL     1      25.579  32.666  16.572  1.00  0.00     0.142 C 
BRANCH   3   8
ATOM      8  O   UNL     1      28.999  34.399  15.074  1.00  0.00    -0.338 OA
BRANCH   8   9
ATOM      9  C   UNL     1      29.745  35.150  15.842  1.00  0.00     0.199 C 
BRANCH   9  10
ATOM     10  C   UNL     1      30.776  34.615  16.796  1.00  0.00     0.179 C 
ATOM     11  C   UNL     1      30.662  32.994  18.470  1.00  0.00     0.282 C 
ATOM     12  O   UNL     1      30.238  34.202  17.980  1.00  0.00    -0.341 OA
ATOM     13  C   UNL     1      30.339  31.924  17.450  1.00  0.00     0.202 C 
ATOM     14  C   UNL     1      31.146  32.178  16.218  1.00  0.00     0.179 C 
ATOM     15  C   UNL     1      31.652  33.572  16.112  1.00  0.00     0.177 C 
BRANCH  11  16
ATOM     16  O   UNL     1      29.952  32.718  19.640  1.00  0.00    -0.341 OA
BRANCH  16  17
ATOM     17  C   UNL     1      30.603  33.031  20.806  1.00  0.00     0.184 C 
ATOM     18  C   UNL     1      31.954  32.328  20.902  1.00  0.00     0.178 C 
ATOM     19  O   UNL     1      31.955  31.494  22.017  1.00  0.00    -0.341 OA
ATOM     20  C   UNL     1      31.077  30.396  21.796  1.00  0.00     0.281 C 
ATOM     21  C   UNL     1      29.752  32.514  21.949  1.00  0.00     0.180 C 
ATOM     22  C   UNL     1      29.696  30.979  21.794  1.00  0.00     0.202 C 
BRANCH  18  23
ATOM     23  C   UNL     1      33.046  33.363  21.113  1.00  0.00     0.191 C 
BRANCH  23  24
ATOM     24  O   UNL     1      33.178  33.714  22.443  1.00  0.00    -0.394 OA
ATOM     25  H   UNL     1      32.299  33.889  22.871  1.00  0.00     0.210 HD
ENDBRANCH  23  24
ENDBRANCH  18  23
BRANCH  20  26
ATOM     26  O   UNL     1      31.341  29.472  22.764  1.00  0.00    -0.350 OA
BRANCH  26  27
ATOM     27  C   UNL     1      32.046  28.372  22.361  1.00  0.00     0.169 C 
BRANCH  27  28
ATOM     28  C   UNL     1      31.610  27.813  21.022  1.00  0.00     0.119 C 
BRANCH  28  29
ATOM     29  N   UNL     1      30.419  26.994  21.131  1.00  0.00    -0.092 NA
ATOM     30  N   UNL     1      29.287  27.398  20.885  1.00  0.00     0.001 N 
ATOM     31  N   UNL     1      28.243  27.831  20.447  1.00  0.00    -0.003 NA
ENDBRANCH  28  29
ENDBRANCH  27  28
ENDBRANCH  26  27
ENDBRANCH  20  26
BRANCH  21  32
ATOM     32  O   UNL     1      30.260  32.857  23.196  1.00  0.00    -0.387 OA
ATOM     33  H   UNL     1      31.261  32.974  23.185  1.00  0.00     0.211 HD
ENDBRANCH  21  32
BRANCH  22  34
ATOM     34  O   UNL     1      29.176  30.793  20.489  1.00  0.00    -0.385 OA
ATOM     35  H   UNL     1      29.657  31.418  19.889  1.00  0.00     0.211 HD
ENDBRANCH  22  34
ENDBRANCH  16  17
ENDBRANCH  11  16
BRANCH  13  36
ATOM     36  O   UNL     1      30.613  30.656  17.967  1.00  0.00    -0.385 OA
ATOM     37  H   UNL     1      30.075  30.586  18.818  1.00  0.00     0.211 HD
ENDBRANCH  13  36
BRANCH  14  38
ATOM     38  O   UNL     1      30.462  31.819  15.053  1.00  0.00    -0.387 OA
ATOM     39  H   UNL     1      29.532  31.537  15.297  1.00  0.00     0.211 HD
ENDBRANCH  14  38
BRANCH  15  40
ATOM     40  O   UNL     1      31.713  33.876  14.750  1.00  0.00    -0.387 OA
ATOM     41  H   UNL     1      31.474  33.094  14.204  1.00  0.00     0.211 HD
ENDBRANCH  15  40
ENDBRANCH   9  10
ENDBRANCH   8   9
ENDBRANCH   3   8
BRANCH   3  42
ATOM     42  C   UNL     1      26.950  34.486  14.065  1.00  0.00     0.364 C 
ATOM     43  O   UNL     1      27.605  34.484  12.959  1.00  0.00    -0.246 OA
BRANCH  42  44
ATOM     44  O   UNL     1      25.627  34.857  13.921  1.00  0.00    -0.477 OA
ATOM     45  H   UNL     1      24.888  34.194  13.905  1.00  0.00     0.296 HD
ENDBRANCH  42  44
ENDBRANCH   3  42
BRANCH   6  46
ATOM     46  O   UNL     1      27.345  32.854  18.068  1.00  0.00    -0.391 OA
ATOM     47  H   UNL     1      28.167  32.717  17.532  1.00  0.00     0.211 HD
ENDBRANCH   6  46
BRANCH   7  48
ATOM     48  N   UNL     1      24.279  33.220  16.425  1.00  0.00    -0.348 N 
ATOM     49  C   UNL     1      23.082  32.464  16.475  1.00  0.00     0.217 C 
ATOM     50  H   UNL     1      24.137  34.240  16.290  1.00  0.00     0.163 HD
ATOM     51  C   UNL     1      21.735  33.117  16.306  1.00  0.00     0.114 C 
ATOM     52  O   UNL     1      23.117  31.250  16.659  1.00  0.00    -0.275 OA
ENDBRANCH   7  48
ENDBRANCH   1   2
BRANCH   1  53
ATOM     53  O   UNL     1      25.344  30.019  15.444  1.00  0.00    -0.388 OA
ATOM     54  H   UNL     1      25.102  29.607  14.572  1.00  0.00     0.211 HD
ENDBRANCH   1  53
BRANCH   1  55
ATOM     55  C   UNL     1      27.538  30.188  16.274  1.00  0.00     0.165 C 
BRANCH  55  56
ATOM     56  O   UNL     1      28.682  29.758  15.537  1.00  0.00    -0.388 OA
ATOM     57  H   UNL     1      28.464  28.884  15.135  1.00  0.00     0.211 HD
ENDBRANCH  55  56
BRANCH  55  58
ATOM     58  C   UNL     1      27.166  29.009  17.123  1.00  0.00     0.154 C 
BRANCH  58  59
ATOM     59  N   UNL     1      26.506  29.376  18.353  1.00  0.00    -0.319 N 
ATOM     60  C   UNL     1      25.140  29.077  18.638  1.00  0.00     0.407 C 
ATOM     61  H   UNL     1      27.034  29.894  19.073  1.00  0.00     0.167 HD
ATOM     62  O   UNL     1      24.443  28.475  17.822  1.00  0.00    -0.225 OA
BRANCH  60  63
ATOM     63  O   UNL     1      24.627  29.483  19.845  1.00  0.00    -0.443 OA
BRANCH  63  64
ATOM     64  C   UNL     1      23.911  30.670  20.027  1.00  0.00     0.294 C 
BRANCH  64  65
ATOM     65  C   UNL     1      24.842  31.760  20.409  1.00  0.00     0.120 A 
ATOM     66  C   UNL     1      24.590  33.107  20.567  1.00  0.00     0.139 A 
ATOM     67  N   UNL     1      26.170  31.611  20.658  1.00  0.00    -0.132 NA
ATOM     68  N   UNL     1      25.753  33.735  20.905  1.00  0.00    -0.238 N 
ATOM     69  N   UNL     1      26.689  32.786  20.949  1.00  0.00    -0.066 NA
BRANCH  68  70
ATOM     70  C   UNL     1      25.919  35.115  21.179  1.00  0.00     0.219 C 
BRANCH  70  71
ATOM     71  C   UNL     1      25.431  35.670  22.466  1.00  0.00     0.051 C 
BRANCH  71  72
ATOM     72  C   UNL     1      24.498  36.809  22.470  1.00  0.00     0.125 C 
BRANCH  72  73
ATOM     73  C   UNL     1      23.103  36.597  22.145  1.00  0.00     0.303 C 
ATOM     74  O   UNL     1      22.613  35.978  21.184  1.00  0.00    -0.252 OA
BRANCH  73  75
ATOM     75  O   UNL     1      22.108  37.153  23.010  1.00  0.00    -0.481 OA
ATOM     76  H   UNL     1      21.432  37.794  22.626  1.00  0.00     0.296 HD
ENDBRANCH  73  75
ENDBRANCH  72  73
ENDBRANCH  71  72
ENDBRANCH  70  71
BRANCH  70  77
ATOM     77  C   UNL     1      27.371  35.455  21.046  1.00  0.00     0.328 C 
ATOM     78  O   UNL     1      27.968  36.045  21.966  1.00  0.00    -0.250 OA
BRANCH  77  79
ATOM     79  O   UNL     1      28.095  35.132  19.913  1.00  0.00    -0.480 OA
ATOM     80  H   UNL     1      27.638  34.939  19.020  1.00  0.00     0.296 HD
ENDBRANCH  77  79
ENDBRANCH  70  77
ENDBRANCH  68  70
ENDBRANCH  64  65
ENDBRANCH  63  64
ENDBRANCH  60  63
ENDBRANCH  58  59
ENDBRANCH  55  58
ENDBRANCH   1  55
TORSDOF 36
BEGIN_RES LYS A 131
REMARK  4 active torsions:
REMARK  status: ('A' for Active; 'I' for Inactive)
REMARK    1  A    between atoms: CA   and  CB  
REMARK    2  A    between atoms: CB   and  CG  
REMARK    3  A    between atoms: CG   and  CD  
REMARK    4  A    between atoms: CD   and  CE  
ROOT
ATOM      1  CA  LYS A 131      29.867  25.555  16.977  1.00 20.52     0.186 C 
ENDROOT
BRANCH   1   2
ATOM      2  CB  LYS A 131      28.345  25.722  17.026  1.00 20.94     0.034 C 
BRANCH   2   3
ATOM      3  CG  LYS A 131      27.602  24.400  16.913  1.00 22.96     0.005 C 
BRANCH   3   4
ATOM      4  CD  LYS A 131      26.674  24.171  18.073  1.00 24.33     0.041 C 
BRANCH   4   5
ATOM      5  CE  LYS A 131      26.150  25.511  18.579  1.00 26.91     0.338 C 
ATOM      6  NZ  LYS A 131      25.644  25.381  19.966  1.00 27.40     0.618 N 
ENDBRANCH   4   5
ENDBRANCH   3   4
ENDBRANCH   2   3
ENDBRANCH   1   2
END_RES LYS A 131
BEGIN_RES LYS A 135
REMARK  4 active torsions:
REMARK  status: ('A' for Active; 'I' for Inactive)
REMARK    5  A    between atoms: CA   and  CB  
REMARK    6  A    between atoms: CB   and  CG  
REMARK    7  A    between atoms: CG   and  CD  
REMARK    8  A    between atoms: CD   and  CE  
ROOT
ATOM      7  CA  LYS A 135      33.193  34.663   9.290  1.00 25.02     0.186 C 
ENDROOT
BRANCH   7   8
ATOM      8  CB  LYS A 135      32.060  35.360  10.034  1.00 26.63     0.034 C 
BRANCH   8   9
ATOM      9  CG  LYS A 135      30.797  35.492   9.222  1.00 29.45     0.005 C 
BRANCH   9  10
ATOM     10  CD  LYS A 135      30.054  34.166   9.167  1.00 32.00     0.041 C 
BRANCH  10  11
ATOM     11  CE  LYS A 135      28.616  34.380   8.735  1.00 34.25     0.338 C 
ATOM     12  NZ  LYS A 135      27.676  33.620   9.605  1.00 35.99     0.618 N 
ENDBRANCH  10  11
ENDBRANCH   9  10
ENDBRANCH   8   9
ENDBRANCH   7   8
END_RES LYS A 135
