REMARK VINA RESULT:    -2.944      3.262      9.545
REMARK INTER + INTRA:         -22.007
REMARK INTER:                  -9.505
REMARK INTRA:                 -12.502
REMARK UNBOUND:               -13.729
REMARK SMILES CCOC(CCn1cc(COC(=O)NC[C@@H](O)C(O)[C@@H]2O[C@@](OC[C@H]3O[C@@H](O[C@H]4[C@H](O)[C@@H](O)[C@H](OCCN=[N+]=[N-])O[C@@H]4CO)[C@H](O)[C@@H](O)[C@H]3O)(C(=O)O)C[C@H](O)[C@H]2NC(C)=O)nn1)OCC
REMARK SMILES IDX 18 1 20 2 22 3 54 4 21 5 55 6 57 7 23 8 24 9 25 10 27 11
REMARK SMILES IDX 26 12 45 13 47 14 49 15 28 16 29 17 42 18 41 19 34 20 30 21
REMARK SMILES IDX 32 22 43 23 44 24 35 26 36 27 37 28 38 29 39 30 40 31 31 32
REMARK SMILES IDX 33 34 46 36 48 38 50 40 51 42 52 43 53 44 56 46 58 48 59 49
REMARK SMILES IDX 60 51 61 52 19 53 16 55 17 56 15 58 14 59 12 60 13 62 11 63
REMARK SMILES IDX 10 64 9 65 8 66 62 67 7 68 63 69 6 70 5 71 4 72 3 73 2 74
REMARK SMILES IDX 1 75 64 76 65 77 66 78
REMARK H PARENT 44 25 31 33 33 35 46 37 48 39 50 41 53 45 56 47 58 50 19 54
REMARK H PARENT 17 57 14 61
REMARK Flexibility Score: inf
ROOT
ATOM      1  C   UNL     1      29.765  33.555  15.841  1.00  0.00     0.176 C 
ENDROOT
BRANCH   1   2
ATOM      2  C   UNL     1      30.294  34.753  15.110  1.00  0.00     0.178 C 
ATOM      3  C   UNL     1      32.216  35.909  14.544  1.00  0.00     0.272 C 
ATOM      4  C   UNL     1      31.202  36.682  13.778  1.00  0.00     0.113 C 
ATOM      5  O   UNL     1      31.665  34.842  15.290  1.00  0.00    -0.332 OA
ATOM      6  C   UNL     1      29.958  37.043  14.513  1.00  0.00     0.145 C 
ATOM      7  C   UNL     1      29.739  36.065  15.674  1.00  0.00     0.142 C 
BRANCH   3   8
ATOM      8  O   UNL     1      33.062  36.570  15.339  1.00  0.00    -0.338 OA
BRANCH   8   9
ATOM      9  C   UNL     1      33.337  36.159  16.590  1.00  0.00     0.199 C 
BRANCH   9  10
ATOM     10  C   UNL     1      32.558  36.954  17.613  1.00  0.00     0.179 C 
ATOM     11  C   UNL     1      31.809  37.075  19.727  1.00  0.00     0.282 C 
ATOM     12  O   UNL     1      32.908  36.673  18.921  1.00  0.00    -0.341 OA
ATOM     13  C   UNL     1      31.766  38.558  19.738  1.00  0.00     0.202 C 
ATOM     14  C   UNL     1      31.662  39.076  18.323  1.00  0.00     0.179 C 
ATOM     15  C   UNL     1      32.648  38.457  17.369  1.00  0.00     0.177 C 
BRANCH  11  16
ATOM     16  O   UNL     1      31.929  36.472  20.983  1.00  0.00    -0.341 OA
BRANCH  16  17
ATOM     17  C   UNL     1      31.399  35.222  20.928  1.00  0.00     0.184 C 
ATOM     18  C   UNL     1      32.254  34.102  20.476  1.00  0.00     0.178 C 
ATOM     19  O   UNL     1      31.642  32.904  20.871  1.00  0.00    -0.341 OA
ATOM     20  C   UNL     1      30.451  32.706  20.155  1.00  0.00     0.281 C 
ATOM     21  C   UNL     1      30.179  35.189  19.953  1.00  0.00     0.180 C 
ATOM     22  C   UNL     1      29.488  33.865  20.308  1.00  0.00     0.202 C 
BRANCH  18  23
ATOM     23  C   UNL     1      33.614  34.159  21.103  1.00  0.00     0.191 C 
BRANCH  23  24
ATOM     24  O   UNL     1      34.516  34.907  20.346  1.00  0.00    -0.394 OA
ATOM     25  H   UNL     1      34.121  35.271  19.534  1.00  0.00     0.210 HD
ENDBRANCH  23  24
ENDBRANCH  18  23
BRANCH  20  26
ATOM     26  O   UNL     1      29.851  31.581  20.692  1.00  0.00    -0.350 OA
BRANCH  26  27
ATOM     27  C   UNL     1      30.681  30.637  21.216  1.00  0.00     0.169 C 
BRANCH  27  28
ATOM     28  C   UNL     1      31.049  29.621  20.167  1.00  0.00     0.119 C 
BRANCH  28  29
ATOM     29  N   UNL     1      32.219  28.870  20.617  1.00  0.00    -0.092 NA
ATOM     30  N   UNL     1      31.997  28.072  21.552  1.00  0.00     0.001 N 
ATOM     31  N   UNL     1      32.091  27.548  22.664  1.00  0.00    -0.003 NA
ENDBRANCH  28  29
ENDBRANCH  27  28
ENDBRANCH  26  27
ENDBRANCH  20  26
BRANCH  21  32
ATOM     32  O   UNL     1      29.339  36.248  20.172  1.00  0.00    -0.387 OA
ATOM     33  H   UNL     1      29.028  36.309  21.108  1.00  0.00     0.211 HD
ENDBRANCH  21  32
BRANCH  22  34
ATOM     34  O   UNL     1      28.394  33.649  19.515  1.00  0.00    -0.385 OA
ATOM     35  H   UNL     1      28.607  34.035  18.609  1.00  0.00     0.211 HD
ENDBRANCH  22  34
ENDBRANCH  16  17
ENDBRANCH  11  16
BRANCH  13  36
ATOM     36  O   UNL     1      30.624  39.033  20.402  1.00  0.00    -0.385 OA
ATOM     37  H   UNL     1      29.986  39.447  19.778  1.00  0.00     0.211 HD
ENDBRANCH  13  36
BRANCH  14  38
ATOM     38  O   UNL     1      31.678  40.465  18.276  1.00  0.00    -0.387 OA
ATOM     39  H   UNL     1      32.498  40.802  17.825  1.00  0.00     0.211 HD
ENDBRANCH  14  38
BRANCH  15  40
ATOM     40  O   UNL     1      33.949  38.882  17.595  1.00  0.00    -0.387 OA
ATOM     41  H   UNL     1      34.505  38.758  16.794  1.00  0.00     0.211 HD
ENDBRANCH  15  40
ENDBRANCH   9  10
ENDBRANCH   8   9
ENDBRANCH   3   8
BRANCH   3  42
ATOM     42  C   UNL     1      33.061  35.203  13.527  1.00  0.00     0.364 C 
ATOM     43  O   UNL     1      33.185  35.634  12.366  1.00  0.00    -0.246 OA
BRANCH  42  44
ATOM     44  O   UNL     1      33.744  34.033  13.842  1.00  0.00    -0.477 OA
ATOM     45  H   UNL     1      34.704  33.939  13.530  1.00  0.00     0.296 HD
ENDBRANCH  42  44
ENDBRANCH   3  42
BRANCH   6  46
ATOM     46  O   UNL     1      29.897  38.343  14.948  1.00  0.00    -0.391 OA
ATOM     47  H   UNL     1      30.126  39.014  14.258  1.00  0.00     0.211 HD
ENDBRANCH   6  46
BRANCH   7  48
ATOM     48  N   UNL     1      28.370  35.981  16.065  1.00  0.00    -0.348 N 
ATOM     49  C   UNL     1      27.918  36.824  17.120  1.00  0.00     0.217 C 
ATOM     50  H   UNL     1      27.686  35.340  15.620  1.00  0.00     0.163 HD
ATOM     51  C   UNL     1      26.498  36.760  17.551  1.00  0.00     0.114 C 
ATOM     52  O   UNL     1      28.711  37.637  17.705  1.00  0.00    -0.275 OA
ENDBRANCH   7  48
ENDBRANCH   1   2
BRANCH   1  53
ATOM     53  O   UNL     1      28.769  32.994  15.021  1.00  0.00    -0.388 OA
ATOM     54  H   UNL     1      27.917  33.514  15.103  1.00  0.00     0.211 HD
ENDBRANCH   1  53
BRANCH   1  55
ATOM     55  C   UNL     1      30.883  32.534  15.929  1.00  0.00     0.165 C 
BRANCH  55  56
ATOM     56  O   UNL     1      31.370  32.226  14.693  1.00  0.00    -0.388 OA
ATOM     57  H   UNL     1      30.731  31.757  14.100  1.00  0.00     0.211 HD
ENDBRANCH  55  56
BRANCH  55  58
ATOM     58  C   UNL     1      30.405  31.296  16.637  1.00  0.00     0.154 C 
BRANCH  58  59
ATOM     59  N   UNL     1      29.309  31.480  17.542  1.00  0.00    -0.319 N 
ATOM     60  C   UNL     1      28.207  30.620  17.665  1.00  0.00     0.407 C 
ATOM     61  H   UNL     1      29.364  32.350  18.157  1.00  0.00     0.167 HD
ATOM     62  O   UNL     1      28.074  29.585  16.992  1.00  0.00    -0.225 OA
BRANCH  60  63
ATOM     63  O   UNL     1      27.176  30.906  18.588  1.00  0.00    -0.443 OA
BRANCH  63  64
ATOM     64  C   UNL     1      25.830  31.035  18.106  1.00  0.00     0.294 C 
BRANCH  64  65
ATOM     65  C   UNL     1      25.827  31.999  16.975  1.00  0.00     0.120 A 
ATOM     66  C   UNL     1      25.284  31.820  15.725  1.00  0.00     0.138 A 
ATOM     67  N   UNL     1      26.368  33.220  16.983  1.00  0.00    -0.132 NA
ATOM     68  N   UNL     1      25.525  32.949  15.027  1.00  0.00    -0.252 N 
ATOM     69  N   UNL     1      26.182  33.777  15.820  1.00  0.00    -0.067 NA
BRANCH  68  70
ATOM     70  C   UNL     1      25.113  33.160  13.670  1.00  0.00     0.151 C 
BRANCH  70  71
ATOM     71  C   UNL     1      24.865  34.595  13.304  1.00  0.00     0.086 C 
BRANCH  71  72
ATOM     72  C   UNL     1      26.083  35.137  12.558  1.00  0.00     0.251 C 
BRANCH  72  73
ATOM     73  O   UNL     1      26.718  36.010  13.421  1.00  0.00    -0.353 OA
BRANCH  73  74
ATOM     74  C   UNL     1      25.880  37.031  13.851  1.00  0.00     0.160 C 
ATOM     75  C   UNL     1      26.541  38.389  13.707  1.00  0.00     0.035 C 
ENDBRANCH  73  74
ENDBRANCH  72  73
BRANCH  72  76
ATOM     76  O   UNL     1      25.758  35.637  11.332  1.00  0.00    -0.353 OA
BRANCH  76  77
ATOM     77  C   UNL     1      24.520  35.330  10.836  1.00  0.00     0.160 C 
ATOM     78  C   UNL     1      24.521  35.529   9.339  1.00  0.00     0.035 C 
ENDBRANCH  76  77
ENDBRANCH  72  76
ENDBRANCH  71  72
ENDBRANCH  70  71
ENDBRANCH  68  70
ENDBRANCH  64  65
ENDBRANCH  63  64
ENDBRANCH  60  63
ENDBRANCH  58  59
ENDBRANCH  55  58
ENDBRANCH   1  55
TORSDOF 36
BEGIN_RES LYS A 131
REMARK  4 active torsions:
REMARK  status: ('A' for Active; 'I' for Inactive)
REMARK    1  A    between atoms: CA   and  CB  
REMARK    2  A    between atoms: CB   and  CG  
REMARK    3  A    between atoms: CG   and  CD  
REMARK    4  A    between atoms: CD   and  CE  
ROOT
ATOM      1  CA  LYS A 131      29.867  25.555  16.977  1.00 20.52     0.186 C 
ENDROOT
BRANCH   1   2
ATOM      2  CB  LYS A 131      28.345  25.722  17.026  1.00 20.94     0.034 C 
BRANCH   2   3
ATOM      3  CG  LYS A 131      27.601  24.401  16.901  1.00 22.96     0.005 C 
BRANCH   3   4
ATOM      4  CD  LYS A 131      26.636  24.185  18.033  1.00 24.33     0.041 C 
BRANCH   4   5
ATOM      5  CE  LYS A 131      26.417  25.501  18.773  1.00 26.91     0.338 C 
ATOM      6  NZ  LYS A 131      24.975  25.712  19.042  1.00 27.40     0.618 N 
ENDBRANCH   4   5
ENDBRANCH   3   4
ENDBRANCH   2   3
ENDBRANCH   1   2
END_RES LYS A 131
BEGIN_RES LYS A 135
REMARK  4 active torsions:
REMARK  status: ('A' for Active; 'I' for Inactive)
REMARK    5  A    between atoms: CA   and  CB  
REMARK    6  A    between atoms: CB   and  CG  
REMARK    7  A    between atoms: CG   and  CD  
REMARK    8  A    between atoms: CD   and  CE  
ROOT
ATOM      7  CA  LYS A 135      33.193  34.663   9.290  1.00 25.02     0.186 C 
ENDROOT
BRANCH   7   8
ATOM      8  CB  LYS A 135      32.060  35.360  10.034  1.00 26.63     0.034 C 
BRANCH   8   9
ATOM      9  CG  LYS A 135      30.824  35.564   9.196  1.00 29.45     0.005 C 
BRANCH   9  10
ATOM     10  CD  LYS A 135      30.151  34.233   8.900  1.00 32.00     0.041 C 
BRANCH  10  11
ATOM     11  CE  LYS A 135      28.682  34.438   8.582  1.00 34.25     0.338 C 
ATOM     12  NZ  LYS A 135      27.819  33.656   9.509  1.00 35.99     0.618 N 
ENDBRANCH  10  11
ENDBRANCH   9  10
ENDBRANCH   8   9
ENDBRANCH   7   8
END_RES LYS A 135
