REMARK VINA RESULT:    -4.629      2.803      7.950
REMARK INTER + INTRA:         -23.343
REMARK INTER:                 -12.281
REMARK INTRA:                 -11.062
REMARK UNBOUND:               -11.408
REMARK SMILES CC(=O)N[C@@H]1[C@@H](O)C[C@](OC[C@H]2O[C@@H](O[C@H]3[C@H](O)[C@@H](O)[C@H](OCCN=[N+]=[N-])O[C@@H]3CO)[C@H](O)[C@@H](O)[C@H]2O)(C(=O)O)O[C@H]1C(O)[C@H](O)CNC(=O)OCc1cn(CS(=O)(=O)c2ccccc2)nn1
REMARK SMILES IDX 9 1 8 2 6 3 5 4 42 5 41 6 10 7 11 8 12 9 14 10 13 11 32 12
REMARK SMILES IDX 34 13 36 14 15 15 16 16 29 17 28 18 21 19 17 20 19 21 30 22
REMARK SMILES IDX 31 23 22 25 23 26 24 27 25 28 26 29 27 30 18 31 20 33 33 35
REMARK SMILES IDX 35 37 37 39 38 41 39 42 40 43 7 45 43 47 44 48 45 50 46 51
REMARK SMILES IDX 47 53 48 54 49 55 50 57 51 58 52 59 53 60 54 61 67 62 55 63
REMARK SMILES IDX 66 64 56 65 57 66 58 67 59 68 60 69 61 70 65 71 62 72 64 73
REMARK SMILES IDX 63 74 4 75 2 76 1 78 3 79
REMARK H PARENT 31 24 18 32 20 34 33 36 35 38 37 40 40 44 7 46 44 49 46 52
REMARK H PARENT 48 56 4 77
REMARK Flexibility Score: inf
ROOT
ATOM      1  C   UNL     1      31.582  35.429  18.294  1.00  0.00     0.272 C 
ATOM      2  C   UNL     1      30.810  36.622  17.903  1.00  0.00     0.113 C 
ATOM      3  C   UNL     1      29.567  36.343  17.081  1.00  0.00     0.145 C 
ATOM      4  C   UNL     1      29.985  35.450  15.965  1.00  0.00     0.142 C 
ATOM      5  C   UNL     1      30.781  34.259  16.419  1.00  0.00     0.178 C 
ATOM      6  O   UNL     1      31.769  34.472  17.309  1.00  0.00    -0.332 OA
ENDROOT
BRANCH   1   7
ATOM      7  O   UNL     1      31.189  34.884  19.497  1.00  0.00    -0.338 OA
BRANCH   7   8
ATOM      8  C   UNL     1      31.663  33.652  19.809  1.00  0.00     0.199 C 
BRANCH   8   9
ATOM      9  C   UNL     1      31.322  33.287  21.270  1.00  0.00     0.179 C 
ATOM     10  C   UNL     1      31.932  31.106  21.957  1.00  0.00     0.282 C 
ATOM     11  O   UNL     1      31.091  31.969  21.312  1.00  0.00    -0.341 OA
ATOM     12  C   UNL     1      33.337  31.574  21.931  1.00  0.00     0.202 C 
ATOM     13  C   UNL     1      33.471  32.984  22.421  1.00  0.00     0.179 C 
ATOM     14  C   UNL     1      32.266  33.819  22.267  1.00  0.00     0.177 C 
BRANCH  10  15
ATOM     15  O   UNL     1      31.759  29.876  21.301  1.00  0.00    -0.341 OA
BRANCH  15  16
ATOM     16  C   UNL     1      30.639  29.180  21.606  1.00  0.00     0.184 C 
ATOM     17  C   UNL     1      30.928  27.780  22.059  1.00  0.00     0.178 C 
ATOM     18  O   UNL     1      29.803  27.328  22.742  1.00  0.00    -0.341 OA
ATOM     19  C   UNL     1      28.610  27.548  22.111  1.00  0.00     0.281 C 
ATOM     20  C   UNL     1      29.751  28.968  20.354  1.00  0.00     0.180 C 
ATOM     21  C   UNL     1      28.690  28.001  20.704  1.00  0.00     0.202 C 
BRANCH  17  22
ATOM     22  C   UNL     1      32.120  27.609  22.933  1.00  0.00     0.191 C 
BRANCH  22  23
ATOM     23  O   UNL     1      33.273  27.821  22.186  1.00  0.00    -0.394 OA
ATOM     24  H   UNL     1      33.319  28.762  21.899  1.00  0.00     0.210 HD
ENDBRANCH  22  23
ENDBRANCH  17  22
BRANCH  19  25
ATOM     25  O   UNL     1      27.934  28.508  22.858  1.00  0.00    -0.350 OA
BRANCH  25  26
ATOM     26  C   UNL     1      26.708  28.866  22.250  1.00  0.00     0.169 C 
BRANCH  26  27
ATOM     27  C   UNL     1      26.139  30.075  22.960  1.00  0.00     0.119 C 
BRANCH  27  28
ATOM     28  N   UNL     1      27.213  31.055  23.093  1.00  0.00    -0.092 NA
ATOM     29  N   UNL     1      27.392  31.848  22.147  1.00  0.00     0.001 N 
ATOM     30  N   UNL     1      27.683  32.422  21.081  1.00  0.00    -0.003 NA
ENDBRANCH  27  28
ENDBRANCH  26  27
ENDBRANCH  25  26
ENDBRANCH  19  25
BRANCH  20  31
ATOM     31  O   UNL     1      29.201  30.172  19.948  1.00  0.00    -0.387 OA
ATOM     32  H   UNL     1      28.741  30.022  19.082  1.00  0.00     0.211 HD
ENDBRANCH  20  31
BRANCH  21  33
ATOM     33  O   UNL     1      28.887  26.843  19.911  1.00  0.00    -0.385 OA
ATOM     34  H   UNL     1      29.194  26.076  20.438  1.00  0.00     0.211 HD
ENDBRANCH  21  33
ENDBRANCH  15  16
ENDBRANCH  10  15
BRANCH  12  35
ATOM     35  O   UNL     1      34.146  30.815  22.836  1.00  0.00    -0.385 OA
ATOM     36  H   UNL     1      35.005  31.299  22.872  1.00  0.00     0.211 HD
ENDBRANCH  12  35
BRANCH  13  37
ATOM     37  O   UNL     1      34.601  33.610  21.837  1.00  0.00    -0.387 OA
ATOM     38  H   UNL     1      34.344  34.522  21.520  1.00  0.00     0.211 HD
ENDBRANCH  13  37
BRANCH  14  39
ATOM     39  O   UNL     1      32.652  35.145  21.993  1.00  0.00    -0.387 OA
ATOM     40  H   UNL     1      33.321  35.409  22.676  1.00  0.00     0.211 HD
ENDBRANCH  14  39
ENDBRANCH   8   9
ENDBRANCH   7   8
ENDBRANCH   1   7
BRANCH   1  41
ATOM     41  C   UNL     1      33.003  35.929  18.501  1.00  0.00     0.364 C 
ATOM     42  O   UNL     1      33.249  36.569  19.536  1.00  0.00    -0.246 OA
BRANCH  41  43
ATOM     43  O   UNL     1      33.983  35.668  17.557  1.00  0.00    -0.477 OA
ATOM     44  H   UNL     1      33.803  34.994  16.798  1.00  0.00     0.296 HD
ENDBRANCH  41  43
ENDBRANCH   1  41
BRANCH   3  45
ATOM     45  O   UNL     1      28.595  35.837  17.899  1.00  0.00    -0.391 OA
ATOM     46  H   UNL     1      28.342  36.551  18.547  1.00  0.00     0.211 HD
ENDBRANCH   3  45
BRANCH   5  47
ATOM     47  C   UNL     1      29.912  33.065  16.740  1.00  0.00     0.176 C 
BRANCH  47  48
ATOM     48  O   UNL     1      28.584  33.219  16.350  1.00  0.00    -0.388 OA
ATOM     49  H   UNL     1      28.458  33.441  15.416  1.00  0.00     0.211 HD
ENDBRANCH  47  48
BRANCH  47  50
ATOM     50  C   UNL     1      30.457  31.766  16.164  1.00  0.00     0.165 C 
BRANCH  50  51
ATOM     51  O   UNL     1      31.165  31.953  14.999  1.00  0.00    -0.388 OA
ATOM     52  H   UNL     1      31.237  32.870  14.692  1.00  0.00     0.211 HD
ENDBRANCH  50  51
BRANCH  50  53
ATOM     53  C   UNL     1      29.458  30.680  16.045  1.00  0.00     0.154 C 
BRANCH  53  54
ATOM     54  N   UNL     1      28.636  30.410  17.185  1.00  0.00    -0.319 N 
ATOM     55  C   UNL     1      27.420  29.689  17.192  1.00  0.00     0.407 C 
ATOM     56  H   UNL     1      28.967  30.790  18.124  1.00  0.00     0.167 HD
ATOM     57  O   UNL     1      26.957  29.197  16.146  1.00  0.00    -0.225 OA
BRANCH  55  58
ATOM     58  O   UNL     1      26.746  29.537  18.392  1.00  0.00    -0.443 OA
BRANCH  58  59
ATOM     59  C   UNL     1      25.526  30.144  18.701  1.00  0.00     0.294 C 
BRANCH  59  60
ATOM     60  C   UNL     1      25.394  31.404  17.946  1.00  0.00     0.120 A 
ATOM     61  C   UNL     1      24.392  31.653  17.024  1.00  0.00     0.139 A 
ATOM     62  N   UNL     1      26.139  32.521  17.969  1.00  0.00    -0.132 NA
ATOM     63  N   UNL     1      24.552  32.891  16.522  1.00  0.00    -0.237 N 
ATOM     64  N   UNL     1      25.628  33.389  17.122  1.00  0.00    -0.066 NA
BRANCH  63  65
ATOM     65  C   UNL     1      23.724  33.540  15.544  1.00  0.00     0.287 C 
BRANCH  65  66
ATOM     66  S   UNL     1      24.429  33.159  13.940  1.00  0.00     0.198 S 
ATOM     67  O   UNL     1      25.894  32.970  14.041  1.00  0.00    -0.222 OA
ATOM     68  O   UNL     1      24.076  34.318  13.023  1.00  0.00    -0.222 OA
BRANCH  66  69
ATOM     69  C   UNL     1      23.651  31.709  13.363  1.00  0.00     0.069 A 
ATOM     70  C   UNL     1      24.314  30.503  13.286  1.00  0.00     0.020 A 
ATOM     71  C   UNL     1      22.333  31.723  12.962  1.00  0.00     0.020 A 
ATOM     72  C   UNL     1      23.704  29.363  12.832  1.00  0.00     0.001 A 
ATOM     73  C   UNL     1      21.708  30.591  12.505  1.00  0.00     0.001 A 
ATOM     74  C   UNL     1      22.400  29.407  12.441  1.00  0.00     0.000 A 
ENDBRANCH  66  69
ENDBRANCH  65  66
ENDBRANCH  63  65
ENDBRANCH  59  60
ENDBRANCH  58  59
ENDBRANCH  55  58
ENDBRANCH  53  54
ENDBRANCH  50  53
ENDBRANCH  47  50
ENDBRANCH   5  47
BRANCH   4  75
ATOM     75  N   UNL     1      30.837  36.211  15.059  1.00  0.00    -0.348 N 
ATOM     76  C   UNL     1      31.222  35.699  13.788  1.00  0.00     0.217 C 
ATOM     77  H   UNL     1      31.209  37.178  15.307  1.00  0.00     0.163 HD
ATOM     78  C   UNL     1      32.105  36.526  12.890  1.00  0.00     0.114 C 
ATOM     79  O   UNL     1      30.832  34.559  13.404  1.00  0.00    -0.275 OA
ENDBRANCH   4  75
TORSDOF 32
BEGIN_RES LYS A 131
REMARK  4 active torsions:
REMARK  status: ('A' for Active; 'I' for Inactive)
REMARK    1  A    between atoms: CA   and  CB  
REMARK    2  A    between atoms: CB   and  CG  
REMARK    3  A    between atoms: CG   and  CD  
REMARK    4  A    between atoms: CD   and  CE  
ROOT
ATOM      1  CA  LYS A 131      29.867  25.555  16.977  1.00 20.52     0.186 C 
ENDROOT
BRANCH   1   2
ATOM      2  CB  LYS A 131      28.345  25.722  17.026  1.00 20.94     0.034 C 
BRANCH   2   3
ATOM      3  CG  LYS A 131      27.603  24.396  16.969  1.00 22.96     0.005 C 
BRANCH   3   4
ATOM      4  CD  LYS A 131      26.147  24.546  17.315  1.00 24.33     0.041 C 
BRANCH   4   5
ATOM      5  CE  LYS A 131      25.998  24.713  18.824  1.00 26.91     0.338 C 
ATOM      6  NZ  LYS A 131      25.556  26.089  19.152  1.00 27.40     0.618 N 
ENDBRANCH   4   5
ENDBRANCH   3   4
ENDBRANCH   2   3
ENDBRANCH   1   2
END_RES LYS A 131
BEGIN_RES LYS A 135
REMARK  4 active torsions:
REMARK  status: ('A' for Active; 'I' for Inactive)
REMARK    5  A    between atoms: CA   and  CB  
REMARK    6  A    between atoms: CB   and  CG  
REMARK    7  A    between atoms: CG   and  CD  
REMARK    8  A    between atoms: CD   and  CE  
ROOT
ATOM      7  CA  LYS A 135      33.193  34.663   9.290  1.00 25.02     0.186 C 
ENDROOT
BRANCH   7   8
ATOM      8  CB  LYS A 135      32.060  35.360  10.034  1.00 26.63     0.034 C 
BRANCH   8   9
ATOM      9  CG  LYS A 135      30.749  34.619   9.966  1.00 29.45     0.005 C 
BRANCH   9  10
ATOM     10  CD  LYS A 135      30.352  34.362   8.521  1.00 32.00     0.041 C 
BRANCH  10  11
ATOM     11  CE  LYS A 135      28.854  34.518   8.345  1.00 34.25     0.338 C 
ATOM     12  NZ  LYS A 135      28.110  33.803   9.419  1.00 35.99     0.618 N 
ENDBRANCH  10  11
ENDBRANCH   9  10
ENDBRANCH   8   9
ENDBRANCH   7   8
END_RES LYS A 135
