REMARK VINA RESULT:    -4.045      2.711      6.822
REMARK INTER + INTRA:         -22.892
REMARK INTER:                 -10.789
REMARK INTRA:                 -12.103
REMARK UNBOUND:               -12.699
REMARK SMILES CC(=O)N[C@@H]1[C@@H](O)C[C@](OC[C@H]2O[C@@H](O[C@H]3[C@H](O)[C@@H](O)[C@H](OCCN=[N+]=[N-])O[C@@H]3CO)[C@H](O)[C@@H](O)[C@H]2O)(C(=O)O)O[C@H]1C(O)[C@H](O)CNC(=O)OCc1cn(Cc2ccc(Br)cc2)nn1
REMARK SMILES IDX 9 1 8 2 6 3 5 4 42 5 41 6 10 7 11 8 12 9 14 10 13 11 32 12
REMARK SMILES IDX 34 13 36 14 15 15 16 16 29 17 28 18 21 19 17 20 19 21 30 22
REMARK SMILES IDX 31 23 22 25 23 26 24 27 25 28 26 29 27 30 18 31 20 33 33 35
REMARK SMILES IDX 35 37 37 39 38 41 39 42 40 43 7 45 43 47 44 48 45 50 46 51
REMARK SMILES IDX 47 53 48 54 49 55 50 57 51 58 52 59 53 60 54 61 65 62 55 63
REMARK SMILES IDX 64 64 56 65 57 66 58 67 63 68 59 69 62 70 60 71 61 72 4 73
REMARK SMILES IDX 2 74 1 76 3 77
REMARK H PARENT 31 24 18 32 20 34 33 36 35 38 37 40 40 44 7 46 44 49 46 52
REMARK H PARENT 48 56 4 75
REMARK Flexibility Score: inf
ROOT
ATOM      1  C   UNL     1      28.626  36.409  13.435  1.00  0.00     0.272 C 
ATOM      2  C   UNL     1      27.489  37.365  13.419  1.00  0.00     0.113 C 
ATOM      3  C   UNL     1      26.666  37.509  14.637  1.00  0.00     0.145 C 
ATOM      4  C   UNL     1      26.777  36.310  15.617  1.00  0.00     0.142 C 
ATOM      5  C   UNL     1      27.070  35.165  14.687  1.00  0.00     0.178 C 
ATOM      6  O   UNL     1      28.441  35.370  14.364  1.00  0.00    -0.332 OA
ENDROOT
BRANCH   1   7
ATOM      7  O   UNL     1      29.881  36.842  13.373  1.00  0.00    -0.338 OA
BRANCH   7   8
ATOM      8  C   UNL     1      30.714  37.426  14.147  1.00  0.00     0.199 C 
BRANCH   8   9
ATOM      9  C   UNL     1      31.805  36.565  14.739  1.00  0.00     0.179 C 
ATOM     10  C   UNL     1      32.289  34.914  16.217  1.00  0.00     0.282 C 
ATOM     11  O   UNL     1      31.385  35.835  15.820  1.00  0.00    -0.341 OA
ATOM     12  C   UNL     1      33.686  35.034  15.636  1.00  0.00     0.202 C 
ATOM     13  C   UNL     1      33.653  35.180  14.131  1.00  0.00     0.179 C 
ATOM     14  C   UNL     1      32.249  35.548  13.676  1.00  0.00     0.177 C 
BRANCH  10  15
ATOM     15  O   UNL     1      31.939  33.607  16.143  1.00  0.00    -0.341 OA
BRANCH  15  16
ATOM     16  C   UNL     1      30.838  33.087  16.701  1.00  0.00     0.184 C 
ATOM     17  C   UNL     1      30.825  32.966  18.190  1.00  0.00     0.178 C 
ATOM     18  O   UNL     1      30.776  31.677  18.646  1.00  0.00    -0.341 OA
ATOM     19  C   UNL     1      29.642  30.975  18.262  1.00  0.00     0.281 C 
ATOM     20  C   UNL     1      30.565  31.724  16.099  1.00  0.00     0.180 C 
ATOM     21  C   UNL     1      29.351  31.149  16.785  1.00  0.00     0.202 C 
BRANCH  17  22
ATOM     22  C   UNL     1      29.703  33.810  18.750  1.00  0.00     0.191 C 
BRANCH  22  23
ATOM     23  O   UNL     1      29.317  34.817  17.842  1.00  0.00    -0.394 OA
ATOM     24  H   UNL     1      30.071  35.385  17.603  1.00  0.00     0.210 HD
ENDBRANCH  22  23
ENDBRANCH  17  22
BRANCH  19  25
ATOM     25  O   UNL     1      28.521  31.245  19.029  1.00  0.00    -0.350 OA
BRANCH  25  26
ATOM     26  C   UNL     1      27.812  30.151  19.447  1.00  0.00     0.169 C 
BRANCH  26  27
ATOM     27  C   UNL     1      26.415  30.082  18.904  1.00  0.00     0.119 C 
BRANCH  27  28
ATOM     28  N   UNL     1      25.635  31.215  19.387  1.00  0.00    -0.092 NA
ATOM     29  N   UNL     1      24.926  31.849  18.608  1.00  0.00     0.001 N 
ATOM     30  N   UNL     1      24.346  32.703  17.899  1.00  0.00    -0.003 NA
ENDBRANCH  27  28
ENDBRANCH  26  27
ENDBRANCH  25  26
ENDBRANCH  19  25
BRANCH  20  31
ATOM     31  O   UNL     1      30.211  31.945  14.753  1.00  0.00    -0.387 OA
ATOM     32  H   UNL     1      29.344  32.436  14.709  1.00  0.00     0.211 HD
ENDBRANCH  20  31
BRANCH  21  33
ATOM     33  O   UNL     1      28.927  29.962  16.197  1.00  0.00    -0.385 OA
ATOM     34  H   UNL     1      27.955  29.880  16.371  1.00  0.00     0.211 HD
ENDBRANCH  21  33
ENDBRANCH  15  16
ENDBRANCH  10  15
BRANCH  12  35
ATOM     35  O   UNL     1      34.425  36.071  16.178  1.00  0.00    -0.385 OA
ATOM     36  H   UNL     1      33.919  36.671  16.774  1.00  0.00     0.211 HD
ENDBRANCH  12  35
BRANCH  13  37
ATOM     37  O   UNL     1      34.108  34.050  13.463  1.00  0.00    -0.387 OA
ATOM     38  H   UNL     1      33.876  34.165  12.509  1.00  0.00     0.211 HD
ENDBRANCH  13  37
BRANCH  14  39
ATOM     39  O   UNL     1      31.372  34.463  13.789  1.00  0.00    -0.387 OA
ATOM     40  H   UNL     1      30.497  34.776  14.091  1.00  0.00     0.211 HD
ENDBRANCH  14  39
ENDBRANCH   8   9
ENDBRANCH   7   8
ENDBRANCH   1   7
BRANCH   1  41
ATOM     41  C   UNL     1      28.505  35.640  12.109  1.00  0.00     0.364 C 
ATOM     42  O   UNL     1      27.892  36.174  11.187  1.00  0.00    -0.246 OA
BRANCH  41  43
ATOM     43  O   UNL     1      29.052  34.398  11.923  1.00  0.00    -0.477 OA
ATOM     44  H   UNL     1      29.539  33.935  12.706  1.00  0.00     0.296 HD
ENDBRANCH  41  43
ENDBRANCH   1  41
BRANCH   3  45
ATOM     45  O   UNL     1      26.771  38.712  15.317  1.00  0.00    -0.391 OA
ATOM     46  H   UNL     1      27.513  39.224  14.929  1.00  0.00     0.211 HD
ENDBRANCH   3  45
BRANCH   5  47
ATOM     47  C   UNL     1      26.887  33.788  15.206  1.00  0.00     0.176 C 
BRANCH  47  48
ATOM     48  O   UNL     1      27.132  33.678  16.535  1.00  0.00    -0.388 OA
ATOM     49  H   UNL     1      27.613  32.876  16.769  1.00  0.00     0.211 HD
ENDBRANCH  47  48
BRANCH  47  50
ATOM     50  C   UNL     1      25.765  32.970  14.722  1.00  0.00     0.165 C 
BRANCH  50  51
ATOM     51  O   UNL     1      24.519  33.585  14.928  1.00  0.00    -0.388 OA
ATOM     52  H   UNL     1      24.431  34.056  15.769  1.00  0.00     0.211 HD
ENDBRANCH  50  51
BRANCH  50  53
ATOM     53  C   UNL     1      25.712  31.529  15.032  1.00  0.00     0.154 C 
BRANCH  53  54
ATOM     54  N   UNL     1      24.379  30.953  15.083  1.00  0.00    -0.319 N 
ATOM     55  C   UNL     1      23.776  30.364  13.942  1.00  0.00     0.407 C 
ATOM     56  H   UNL     1      23.800  30.940  15.959  1.00  0.00     0.167 HD
ATOM     57  O   UNL     1      24.412  30.320  12.840  1.00  0.00    -0.225 OA
BRANCH  55  58
ATOM     58  O   UNL     1      22.496  29.817  13.945  1.00  0.00    -0.443 OA
BRANCH  58  59
ATOM     59  C   UNL     1      21.433  30.475  14.660  1.00  0.00     0.294 C 
BRANCH  59  60
ATOM     60  C   UNL     1      21.429  31.931  14.443  1.00  0.00     0.120 A 
ATOM     61  C   UNL     1      21.100  32.558  13.257  1.00  0.00     0.138 A 
ATOM     62  N   UNL     1      21.738  32.891  15.315  1.00  0.00    -0.132 NA
ATOM     63  N   UNL     1      21.218  33.878  13.444  1.00  0.00    -0.248 N 
ATOM     64  N   UNL     1      21.605  34.048  14.692  1.00  0.00    -0.067 NA
BRANCH  63  65
ATOM     65  C   UNL     1      20.962  34.950  12.502  1.00  0.00     0.181 C 
BRANCH  65  66
ATOM     66  C   UNL     1      22.054  35.160  11.525  1.00  0.00    -0.026 A 
ATOM     67  C   UNL     1      23.370  35.131  11.997  1.00  0.00     0.007 A 
ATOM     68  C   UNL     1      21.862  35.366  10.189  1.00  0.00     0.007 A 
ATOM     69  C   UNL     1      24.428  35.307  11.120  1.00  0.00     0.016 A 
ATOM     70  C   UNL     1      22.919  35.545   9.295  1.00  0.00     0.016 A 
ATOM     71  C   UNL     1      24.202  35.513   9.771  1.00  0.00     0.017 A 
ATOM     72  Br  UNL     1      25.697  35.750   8.584  1.00  0.00    -0.051 Br
ENDBRANCH  65  66
ENDBRANCH  63  65
ENDBRANCH  59  60
ENDBRANCH  58  59
ENDBRANCH  55  58
ENDBRANCH  53  54
ENDBRANCH  50  53
ENDBRANCH  47  50
ENDBRANCH   5  47
BRANCH   4  73
ATOM     73  N   UNL     1      25.599  36.225  16.400  1.00  0.00    -0.348 N 
ATOM     74  C   UNL     1      25.673  36.218  17.814  1.00  0.00     0.217 C 
ATOM     75  H   UNL     1      24.670  36.184  15.947  1.00  0.00     0.163 HD
ATOM     76  C   UNL     1      24.524  36.140  18.720  1.00  0.00     0.114 C 
ATOM     77  O   UNL     1      26.834  36.287  18.355  1.00  0.00    -0.275 OA
ENDBRANCH   4  73
TORSDOF 31
BEGIN_RES LYS A 131
REMARK  4 active torsions:
REMARK  status: ('A' for Active; 'I' for Inactive)
REMARK    1  A    between atoms: CA   and  CB  
REMARK    2  A    between atoms: CB   and  CG  
REMARK    3  A    between atoms: CG   and  CD  
REMARK    4  A    between atoms: CD   and  CE  
ROOT
ATOM      1  CA  LYS A 131      29.867  25.555  16.977  1.00 20.52     0.186 C 
ENDROOT
BRANCH   1   2
ATOM      2  CB  LYS A 131      28.345  25.722  17.026  1.00 20.94     0.034 C 
BRANCH   2   3
ATOM      3  CG  LYS A 131      27.602  24.399  16.925  1.00 22.96     0.005 C 
BRANCH   3   4
ATOM      4  CD  LYS A 131      26.548  24.258  17.988  1.00 24.33     0.041 C 
BRANCH   4   5
ATOM      5  CE  LYS A 131      25.166  24.365  17.352  1.00 26.91     0.338 C 
ATOM      6  NZ  LYS A 131      24.557  25.683  17.649  1.00 27.40     0.618 N 
ENDBRANCH   4   5
ENDBRANCH   3   4
ENDBRANCH   2   3
ENDBRANCH   1   2
END_RES LYS A 131
BEGIN_RES LYS A 135
REMARK  4 active torsions:
REMARK  status: ('A' for Active; 'I' for Inactive)
REMARK    5  A    between atoms: CA   and  CB  
REMARK    6  A    between atoms: CB   and  CG  
REMARK    7  A    between atoms: CG   and  CD  
REMARK    8  A    between atoms: CD   and  CE  
ROOT
ATOM      7  CA  LYS A 135      33.193  34.663   9.290  1.00 25.02     0.186 C 
ENDROOT
BRANCH   7   8
ATOM      8  CB  LYS A 135      32.060  35.360  10.034  1.00 26.63     0.034 C 
BRANCH   8   9
ATOM      9  CG  LYS A 135      30.921  35.780   9.141  1.00 29.45     0.005 C 
BRANCH   9  10
ATOM     10  CD  LYS A 135      30.188  34.564   8.598  1.00 32.00     0.041 C 
BRANCH  10  11
ATOM     11  CE  LYS A 135      29.207  34.972   7.516  1.00 34.25     0.338 C 
ATOM     12  NZ  LYS A 135      29.123  36.455   7.399  1.00 35.99     0.618 N 
ENDBRANCH  10  11
ENDBRANCH   9  10
ENDBRANCH   8   9
ENDBRANCH   7   8
END_RES LYS A 135
