REMARK VINA RESULT:    -5.578      4.478      9.118
REMARK INTER + INTRA:         -21.632
REMARK INTER:                 -14.056
REMARK INTRA:                  -7.575
REMARK UNBOUND:                -7.575
REMARK SMILES CC(=O)N[C@@H]1[C@@H](O)C[C@](OC[C@H]2O[C@@H](O[C@H]3[C@H](O)[C@@H](O)[C@H](OCCN=[N+]=[N-])O[C@@H]3CO)[C@H](O)[C@@H](O)[C@H]2O)(C(=O)O)O[C@H]1C(O)[C@H](O)CNC(=O)OCc1cn(Cc2ccccc2Br)nn1
REMARK SMILES IDX 9 1 8 2 6 3 5 4 42 5 41 6 10 7 11 8 12 9 14 10 13 11 32 12
REMARK SMILES IDX 34 13 36 14 15 15 16 16 29 17 28 18 21 19 17 20 19 21 30 22
REMARK SMILES IDX 31 23 22 25 23 26 24 27 25 28 26 29 27 30 18 31 20 33 33 35
REMARK SMILES IDX 35 37 37 39 38 41 39 42 40 43 7 45 43 47 44 48 45 50 46 51
REMARK SMILES IDX 47 53 48 54 49 55 50 57 51 58 52 59 53 60 54 61 65 62 55 63
REMARK SMILES IDX 64 64 56 65 57 66 58 67 62 68 59 69 61 70 63 71 60 72 4 73
REMARK SMILES IDX 2 74 1 76 3 77
REMARK H PARENT 31 24 18 32 20 34 33 36 35 38 37 40 40 44 7 46 44 49 46 52
REMARK H PARENT 48 56 4 75
REMARK Flexibility Score: inf
ROOT
ATOM      1  C   UNL     1      27.878  39.668   8.264  1.00  0.00     0.272 C 
ATOM      2  C   UNL     1      28.125  40.864   7.431  1.00  0.00     0.113 C 
ATOM      3  C   UNL     1      29.511  40.879   6.892  1.00  0.00     0.145 C 
ATOM      4  C   UNL     1      29.754  39.618   6.111  1.00  0.00     0.142 C 
ATOM      5  C   UNL     1      29.075  38.423   6.659  1.00  0.00     0.178 C 
ATOM      6  O   UNL     1      27.882  38.577   7.273  1.00  0.00    -0.332 OA
ENDROOT
BRANCH   1   7
ATOM      7  O   UNL     1      26.655  39.583   8.820  1.00  0.00    -0.338 OA
BRANCH   7   8
ATOM      8  C   UNL     1      25.532  39.164   8.333  1.00  0.00     0.199 C 
BRANCH   8   9
ATOM      9  C   UNL     1      24.634  38.100   8.785  1.00  0.00     0.179 C 
ATOM     10  C   UNL     1      22.707  36.877   8.554  1.00  0.00     0.282 C 
ATOM     11  O   UNL     1      23.706  37.605   7.863  1.00  0.00    -0.341 OA
ATOM     12  C   UNL     1      23.315  35.542   8.883  1.00  0.00     0.202 C 
ATOM     13  C   UNL     1      24.641  35.692   9.545  1.00  0.00     0.179 C 
ATOM     14  C   UNL     1      25.133  37.096   9.759  1.00  0.00     0.177 C 
BRANCH  10  15
ATOM     15  O   UNL     1      21.637  36.794   7.715  1.00  0.00    -0.341 OA
BRANCH  15  16
ATOM     16  C   UNL     1      20.433  37.248   8.162  1.00  0.00     0.184 C 
ATOM     17  C   UNL     1      20.238  37.262   9.638  1.00  0.00     0.178 C 
ATOM     18  O   UNL     1      19.020  36.652   9.925  1.00  0.00    -0.341 OA
ATOM     19  C   UNL     1      19.164  35.298   9.529  1.00  0.00     0.281 C 
ATOM     20  C   UNL     1      19.251  36.579   7.477  1.00  0.00     0.180 C 
ATOM     21  C   UNL     1      19.012  35.191   8.036  1.00  0.00     0.202 C 
BRANCH  17  22
ATOM     22  C   UNL     1      20.149  38.681  10.196  1.00  0.00     0.191 C 
BRANCH  22  23
ATOM     23  O   UNL     1      21.254  38.961  10.999  1.00  0.00    -0.394 OA
ATOM     24  H   UNL     1      22.047  39.216  10.475  1.00  0.00     0.210 HD
ENDBRANCH  22  23
ENDBRANCH  17  22
BRANCH  19  25
ATOM     25  O   UNL     1      18.193  34.593  10.235  1.00  0.00    -0.350 OA
BRANCH  25  26
ATOM     26  C   UNL     1      18.689  33.392  10.741  1.00  0.00     0.169 C 
BRANCH  26  27
ATOM     27  C   UNL     1      17.641  32.320  10.501  1.00  0.00     0.119 C 
BRANCH  27  28
ATOM     28  N   UNL     1      17.656  31.421  11.627  1.00  0.00    -0.092 NA
ATOM     29  N   UNL     1      18.595  30.646  11.827  1.00  0.00     0.001 N 
ATOM     30  N   UNL     1      19.342  29.656  11.676  1.00  0.00    -0.003 NA
ENDBRANCH  27  28
ENDBRANCH  26  27
ENDBRANCH  25  26
ENDBRANCH  19  25
BRANCH  20  31
ATOM     31  O   UNL     1      18.075  37.297   7.704  1.00  0.00    -0.387 OA
ATOM     32  H   UNL     1      17.379  36.886   7.119  1.00  0.00     0.211 HD
ENDBRANCH  20  31
BRANCH  21  33
ATOM     33  O   UNL     1      19.800  34.230   7.456  1.00  0.00    -0.385 OA
ATOM     34  H   UNL     1      19.302  33.381   7.405  1.00  0.00     0.211 HD
ENDBRANCH  21  33
ENDBRANCH  15  16
ENDBRANCH  10  15
BRANCH  12  35
ATOM     35  O   UNL     1      22.507  34.821   9.777  1.00  0.00    -0.385 OA
ATOM     36  H   UNL     1      22.658  35.210  10.669  1.00  0.00     0.211 HD
ENDBRANCH  12  35
BRANCH  13  37
ATOM     37  O   UNL     1      25.605  35.006   8.793  1.00  0.00    -0.387 OA
ATOM     38  H   UNL     1      25.251  34.685   7.939  1.00  0.00     0.211 HD
ENDBRANCH  13  37
BRANCH  14  39
ATOM     39  O   UNL     1      26.517  37.029   9.811  1.00  0.00    -0.387 OA
ATOM     40  H   UNL     1      26.952  37.620  10.442  1.00  0.00     0.211 HD
ENDBRANCH  14  39
ENDBRANCH   8   9
ENDBRANCH   7   8
ENDBRANCH   1   7
BRANCH   1  41
ATOM     41  C   UNL     1      28.962  39.212   9.158  1.00  0.00     0.364 C 
ATOM     42  O   UNL     1      29.829  39.932   9.703  1.00  0.00    -0.246 OA
BRANCH  41  43
ATOM     43  O   UNL     1      29.066  37.859   9.436  1.00  0.00    -0.477 OA
ATOM     44  H   UNL     1      29.729  37.500  10.124  1.00  0.00     0.296 HD
ENDBRANCH  41  43
ENDBRANCH   1  41
BRANCH   3  45
ATOM     45  O   UNL     1      29.543  41.978   5.974  1.00  0.00    -0.391 OA
ATOM     46  H   UNL     1      29.097  42.759   6.356  1.00  0.00     0.211 HD
ENDBRANCH   3  45
BRANCH   5  47
ATOM     47  C   UNL     1      28.856  37.404   5.537  1.00  0.00     0.176 C 
BRANCH  47  48
ATOM     48  O   UNL     1      28.032  38.000   4.594  1.00  0.00    -0.388 OA
ATOM     49  H   UNL     1      28.342  37.892   3.678  1.00  0.00     0.211 HD
ENDBRANCH  47  48
BRANCH  47  50
ATOM     50  C   UNL     1      28.229  36.142   6.018  1.00  0.00     0.165 C 
BRANCH  50  51
ATOM     51  O   UNL     1      27.007  36.378   6.671  1.00  0.00    -0.388 OA
ATOM     52  H   UNL     1      27.101  37.129   7.311  1.00  0.00     0.211 HD
ENDBRANCH  50  51
BRANCH  50  53
ATOM     53  C   UNL     1      29.109  35.468   7.038  1.00  0.00     0.154 C 
BRANCH  53  54
ATOM     54  N   UNL     1      28.419  35.299   8.267  1.00  0.00    -0.319 N 
ATOM     55  C   UNL     1      28.909  34.548   9.356  1.00  0.00     0.407 C 
ATOM     56  H   UNL     1      27.473  35.771   8.366  1.00  0.00     0.167 HD
ATOM     57  O   UNL     1      30.021  33.967   9.304  1.00  0.00    -0.225 OA
BRANCH  55  58
ATOM     58  O   UNL     1      28.174  34.420  10.542  1.00  0.00    -0.443 OA
BRANCH  58  59
ATOM     59  C   UNL     1      28.694  34.823  11.780  1.00  0.00     0.294 C 
BRANCH  59  60
ATOM     60  C   UNL     1      27.718  34.782  12.893  1.00  0.00     0.120 A 
ATOM     61  C   UNL     1      26.341  34.566  12.717  1.00  0.00     0.138 A 
ATOM     62  N   UNL     1      27.892  34.927  14.209  1.00  0.00    -0.132 NA
ATOM     63  N   UNL     1      25.764  34.591  13.913  1.00  0.00    -0.248 N 
ATOM     64  N   UNL     1      26.728  34.813  14.812  1.00  0.00    -0.067 NA
BRANCH  63  65
ATOM     65  C   UNL     1      24.358  34.405  14.267  1.00  0.00     0.182 C 
BRANCH  65  66
ATOM     66  C   UNL     1      23.778  33.151  13.742  1.00  0.00    -0.012 A 
ATOM     67  C   UNL     1      24.584  32.001  13.794  1.00  0.00     0.007 A 
ATOM     68  C   UNL     1      22.530  33.047  13.190  1.00  0.00     0.023 A 
ATOM     69  C   UNL     1      24.100  30.831  13.294  1.00  0.00     0.000 A 
ATOM     70  C   UNL     1      22.052  31.849  12.684  1.00  0.00     0.016 A 
ATOM     71  Br  UNL     1      21.368  34.549  13.143  1.00  0.00    -0.050 Br
ATOM     72  C   UNL     1      22.851  30.738  12.742  1.00  0.00     0.001 A 
ENDBRANCH  65  66
ENDBRANCH  63  65
ENDBRANCH  59  60
ENDBRANCH  58  59
ENDBRANCH  55  58
ENDBRANCH  53  54
ENDBRANCH  50  53
ENDBRANCH  47  50
ENDBRANCH   5  47
BRANCH   4  73
ATOM     73  N   UNL     1      31.173  39.390   6.021  1.00  0.00    -0.348 N 
ATOM     74  C   UNL     1      32.020  40.068   5.093  1.00  0.00     0.217 C 
ATOM     75  H   UNL     1      31.661  38.706   6.637  1.00  0.00     0.163 HD
ATOM     76  C   UNL     1      33.488  39.780   5.053  1.00  0.00     0.114 C 
ATOM     77  O   UNL     1      31.506  40.896   4.329  1.00  0.00    -0.275 OA
ENDBRANCH   4  73
TORSDOF 31
BEGIN_RES LYS A 131
REMARK  4 active torsions:
REMARK  status: ('A' for Active; 'I' for Inactive)
REMARK    1  A    between atoms: CA   and  CB  
REMARK    2  A    between atoms: CB   and  CG  
REMARK    3  A    between atoms: CG   and  CD  
REMARK    4  A    between atoms: CD   and  CE  
ROOT
ATOM      1  CA  LYS A 131      29.867  25.555  16.977  1.00 20.52     0.186 C 
ENDROOT
BRANCH   1   2
ATOM      2  CB  LYS A 131      28.345  25.722  17.026  1.00 20.94     0.034 C 
BRANCH   2   3
ATOM      3  CG  LYS A 131      27.599  24.433  16.717  1.00 22.96     0.005 C 
BRANCH   3   4
ATOM      4  CD  LYS A 131      27.012  23.808  17.951  1.00 24.33     0.041 C 
BRANCH   4   5
ATOM      5  CE  LYS A 131      25.581  23.362  17.665  1.00 26.91     0.338 C 
ATOM      6  NZ  LYS A 131      24.852  24.409  16.912  1.00 27.40     0.618 N 
ENDBRANCH   4   5
ENDBRANCH   3   4
ENDBRANCH   2   3
ENDBRANCH   1   2
END_RES LYS A 131
BEGIN_RES LYS A 135
REMARK  4 active torsions:
REMARK  status: ('A' for Active; 'I' for Inactive)
REMARK    5  A    between atoms: CA   and  CB  
REMARK    6  A    between atoms: CB   and  CG  
REMARK    7  A    between atoms: CG   and  CD  
REMARK    8  A    between atoms: CD   and  CE  
ROOT
ATOM      7  CA  LYS A 135      33.193  34.663   9.290  1.00 25.02     0.186 C 
ENDROOT
BRANCH   7   8
ATOM      8  CB  LYS A 135      32.060  35.360  10.034  1.00 26.63     0.034 C 
BRANCH   8   9
ATOM      9  CG  LYS A 135      32.488  35.981  11.338  1.00 29.45     0.005 C 
BRANCH   9  10
ATOM     10  CD  LYS A 135      31.893  37.372  11.491  1.00 32.00     0.041 C 
BRANCH  10  11
ATOM     11  CE  LYS A 135      31.249  37.529  12.856  1.00 34.25     0.338 C 
ATOM     12  NZ  LYS A 135      29.982  38.305  12.765  1.00 35.99     0.618 N 
ENDBRANCH  10  11
ENDBRANCH   9  10
ENDBRANCH   8   9
ENDBRANCH   7   8
END_RES LYS A 135
