REMARK VINA RESULT:    -3.743      3.845      9.525
REMARK INTER + INTRA:         -22.968
REMARK INTER:                  -9.188
REMARK INTRA:                 -13.781
REMARK UNBOUND:               -13.100
REMARK SMILES CC(=O)N[C@@H]1[C@@H](O)C[C@](OC[C@H]2O[C@@H](O[C@H]3[C@H](O)[C@@H](O)[C@H](OCCN=[N+]=[N-])O[C@@H]3CO)[C@H](O)[C@@H](O)[C@H]2O)(C(=O)O)O[C@H]1C(O)[C@H](O)CNC(=O)OCc1cn(CCNS(C)(=O)=O)nn1
REMARK SMILES IDX 43 1 42 2 9 3 8 4 41 5 6 6 5 7 10 8 11 9 12 10 14 11 13 12
REMARK SMILES IDX 32 13 34 14 36 15 15 16 16 17 29 18 28 19 21 20 17 21 19 22
REMARK SMILES IDX 30 23 31 24 22 26 23 27 24 28 25 29 26 30 27 31 18 32 20 34
REMARK SMILES IDX 33 36 35 38 37 40 38 42 39 43 40 44 7 46 4 48 2 49 1 51 3 52
REMARK SMILES IDX 44 53 45 55 46 56 47 58 48 59 49 60 50 62 51 63 52 64 53 65
REMARK SMILES IDX 54 66 64 67 55 68 63 69 56 70 57 71 58 72 59 74 61 75 62 76
REMARK SMILES IDX 60 77
REMARK H PARENT 31 25 18 33 20 35 33 37 35 39 37 41 40 45 7 47 4 50 44 54
REMARK H PARENT 46 57 48 61 58 73
REMARK Flexibility Score: inf
ROOT
ATOM      1  C   UNL     1      23.878  33.876  12.711  1.00  0.00     0.176 C 
ENDROOT
BRANCH   1   2
ATOM      2  C   UNL     1      24.700  34.544  11.592  1.00  0.00     0.178 C 
ATOM      3  C   UNL     1      26.909  35.256  11.281  1.00  0.00     0.272 C 
ATOM      4  C   UNL     1      26.564  36.682  11.121  1.00  0.00     0.113 C 
ATOM      5  O   UNL     1      25.974  34.572  12.048  1.00  0.00    -0.332 OA
ATOM      6  C   UNL     1      25.108  37.020  11.290  1.00  0.00     0.145 C 
ATOM      7  C   UNL     1      24.149  35.880  11.285  1.00  0.00     0.142 C 
BRANCH   3   8
ATOM      8  O   UNL     1      28.127  34.985  11.912  1.00  0.00    -0.338 OA
BRANCH   8   9
ATOM      9  C   UNL     1      28.835  36.133  12.222  1.00  0.00     0.199 C 
BRANCH   9  10
ATOM     10  C   UNL     1      29.680  35.910  13.428  1.00  0.00     0.179 C 
ATOM     11  C   UNL     1      29.713  35.691  15.724  1.00  0.00     0.282 C 
ATOM     12  O   UNL     1      28.923  35.674  14.562  1.00  0.00    -0.341 OA
ATOM     13  C   UNL     1      30.728  34.601  15.716  1.00  0.00     0.202 C 
ATOM     14  C   UNL     1      31.644  34.850  14.536  1.00  0.00     0.179 C 
ATOM     15  C   UNL     1      30.844  34.989  13.285  1.00  0.00     0.177 C 
BRANCH  11  16
ATOM     16  O   UNL     1      28.862  35.596  16.783  1.00  0.00    -0.341 OA
BRANCH  16  17
ATOM     17  C   UNL     1      27.545  35.486  16.494  1.00  0.00     0.184 C 
ATOM     18  C   UNL     1      26.562  36.408  17.098  1.00  0.00     0.178 C 
ATOM     19  O   UNL     1      25.321  35.771  17.127  1.00  0.00    -0.341 OA
ATOM     20  C   UNL     1      25.244  34.824  18.107  1.00  0.00     0.281 C 
ATOM     21  C   UNL     1      27.043  34.032  16.713  1.00  0.00     0.180 C 
ATOM     22  C   UNL     1      26.538  34.036  18.140  1.00  0.00     0.202 C 
BRANCH  18  23
ATOM     23  C   UNL     1      26.344  37.621  16.199  1.00  0.00     0.191 C 
BRANCH  23  24
ATOM     24  O   UNL     1      26.561  37.256  14.850  1.00  0.00    -0.394 OA
ATOM     25  H   UNL     1      25.881  37.642  14.256  1.00  0.00     0.210 HD
ENDBRANCH  23  24
ENDBRANCH  18  23
BRANCH  20  26
ATOM     26  O   UNL     1      24.141  33.978  17.923  1.00  0.00    -0.350 OA
BRANCH  26  27
ATOM     27  C   UNL     1      23.666  33.405  19.075  1.00  0.00     0.169 C 
BRANCH  27  28
ATOM     28  C   UNL     1      23.732  31.918  18.927  1.00  0.00     0.119 C 
BRANCH  28  29
ATOM     29  N   UNL     1      24.387  31.281  20.063  1.00  0.00    -0.092 NA
ATOM     30  N   UNL     1      25.481  31.779  20.382  1.00  0.00     0.001 N 
ATOM     31  N   UNL     1      26.578  32.002  20.879  1.00  0.00    -0.003 NA
ENDBRANCH  28  29
ENDBRANCH  27  28
ENDBRANCH  26  27
ENDBRANCH  20  26
BRANCH  21  32
ATOM     32  O   UNL     1      25.951  33.781  15.877  1.00  0.00    -0.387 OA
ATOM     33  H   UNL     1      26.277  33.692  14.942  1.00  0.00     0.211 HD
ENDBRANCH  21  32
BRANCH  22  34
ATOM     34  O   UNL     1      27.440  34.531  19.054  1.00  0.00    -0.385 OA
ATOM     35  H   UNL     1      27.980  35.292  18.721  1.00  0.00     0.211 HD
ENDBRANCH  22  34
ENDBRANCH  16  17
ENDBRANCH  11  16
BRANCH  13  36
ATOM     36  O   UNL     1      31.557  34.675  16.845  1.00  0.00    -0.385 OA
ATOM     37  H   UNL     1      31.919  35.588  16.981  1.00  0.00     0.211 HD
ENDBRANCH  13  36
BRANCH  14  38
ATOM     38  O   UNL     1      32.669  33.939  14.469  1.00  0.00    -0.387 OA
ATOM     39  H   UNL     1      33.285  34.114  13.689  1.00  0.00     0.211 HD
ENDBRANCH  14  38
BRANCH  15  40
ATOM     40  O   UNL     1      30.370  33.733  12.919  1.00  0.00    -0.387 OA
ATOM     41  H   UNL     1      29.953  33.240  13.672  1.00  0.00     0.211 HD
ENDBRANCH  15  40
ENDBRANCH   9  10
ENDBRANCH   8   9
ENDBRANCH   3   8
BRANCH   3  42
ATOM     42  C   UNL     1      27.024  34.582   9.965  1.00  0.00     0.364 C 
ATOM     43  O   UNL     1      27.759  33.554   9.797  1.00  0.00    -0.246 OA
BRANCH  42  44
ATOM     44  O   UNL     1      26.364  34.991   8.824  1.00  0.00    -0.477 OA
ATOM     45  H   UNL     1      25.954  34.347   8.152  1.00  0.00     0.296 HD
ENDBRANCH  42  44
ENDBRANCH   3  42
BRANCH   6  46
ATOM     46  O   UNL     1      24.903  37.798  12.420  1.00  0.00    -0.391 OA
ATOM     47  H   UNL     1      24.060  38.295  12.446  1.00  0.00     0.211 HD
ENDBRANCH   6  46
BRANCH   7  48
ATOM     48  N   UNL     1      23.493  35.853   9.967  1.00  0.00    -0.348 N 
ATOM     49  C   UNL     1      22.131  35.651   9.727  1.00  0.00     0.217 C 
ATOM     50  H   UNL     1      24.099  36.036   9.091  1.00  0.00     0.163 HD
ATOM     51  C   UNL     1      21.578  35.631   8.326  1.00  0.00     0.114 C 
ATOM     52  O   UNL     1      21.307  35.476  10.665  1.00  0.00    -0.275 OA
ENDBRANCH   7  48
ENDBRANCH   1   2
BRANCH   1  53
ATOM     53  O   UNL     1      24.684  32.908  13.337  1.00  0.00    -0.388 OA
ATOM     54  H   UNL     1      24.136  32.478  14.018  1.00  0.00     0.211 HD
ENDBRANCH   1  53
BRANCH   1  55
ATOM     55  C   UNL     1      23.480  34.883  13.726  1.00  0.00     0.165 C 
BRANCH  55  56
ATOM     56  O   UNL     1      24.506  35.514  14.385  1.00  0.00    -0.388 OA
ATOM     57  H   UNL     1      25.352  35.548  13.864  1.00  0.00     0.211 HD
ENDBRANCH  55  56
BRANCH  55  58
ATOM     58  C   UNL     1      22.401  34.457  14.673  1.00  0.00     0.154 C 
BRANCH  58  59
ATOM     59  N   UNL     1      22.770  33.290  15.430  1.00  0.00    -0.319 N 
ATOM     60  C   UNL     1      21.876  32.153  15.383  1.00  0.00     0.407 C 
ATOM     61  H   UNL     1      23.625  33.211  16.001  1.00  0.00     0.167 HD
ATOM     62  O   UNL     1      20.853  32.270  14.661  1.00  0.00    -0.225 OA
BRANCH  60  63
ATOM     63  O   UNL     1      22.146  31.016  16.099  1.00  0.00    -0.443 OA
BRANCH  63  64
ATOM     64  C   UNL     1      22.828  29.942  15.497  1.00  0.00     0.294 C 
BRANCH  64  65
ATOM     65  C   UNL     1      24.274  30.010  15.776  1.00  0.00     0.120 A 
ATOM     66  C   UNL     1      25.031  29.116  16.516  1.00  0.00     0.138 A 
ATOM     67  N   UNL     1      25.133  30.922  15.342  1.00  0.00    -0.132 NA
ATOM     68  N   UNL     1      26.308  29.501  16.511  1.00  0.00    -0.251 N 
ATOM     69  N   UNL     1      26.360  30.619  15.785  1.00  0.00    -0.067 NA
BRANCH  68  70
ATOM     70  C   UNL     1      27.417  28.838  17.176  1.00  0.00     0.162 C 
BRANCH  70  71
ATOM     71  C   UNL     1      27.770  29.587  18.460  1.00  0.00     0.122 C 
BRANCH  71  72
ATOM     72  N   UNL     1      28.052  30.966  18.183  1.00  0.00    -0.214 NA
ATOM     73  H   UNL     1      27.568  31.566  18.904  1.00  0.00     0.141 HD
BRANCH  72  74
ATOM     74  S   UNL     1      29.729  31.339  18.271  1.00  0.00     0.208 S 
ATOM     75  O   UNL     1      30.391  31.074  16.929  1.00  0.00    -0.213 OA
ATOM     76  O   UNL     1      29.819  32.825  18.564  1.00  0.00    -0.213 OA
ATOM     77  C   UNL     1      30.519  30.418  19.554  1.00  0.00     0.176 C 
ENDBRANCH  72  74
ENDBRANCH  71  72
ENDBRANCH  70  71
ENDBRANCH  68  70
ENDBRANCH  64  65
ENDBRANCH  63  64
ENDBRANCH  60  63
ENDBRANCH  58  59
ENDBRANCH  55  58
ENDBRANCH   1  55
TORSDOF 33
BEGIN_RES LYS A 131
REMARK  4 active torsions:
REMARK  status: ('A' for Active; 'I' for Inactive)
REMARK    1  A    between atoms: CA   and  CB  
REMARK    2  A    between atoms: CB   and  CG  
REMARK    3  A    between atoms: CG   and  CD  
REMARK    4  A    between atoms: CD   and  CE  
ROOT
ATOM      1  CA  LYS A 131      29.867  25.555  16.977  1.00 20.52     0.186 C 
ENDROOT
BRANCH   1   2
ATOM      2  CB  LYS A 131      28.345  25.722  17.026  1.00 20.94     0.034 C 
BRANCH   2   3
ATOM      3  CG  LYS A 131      27.601  24.401  16.901  1.00 22.96     0.005 C 
BRANCH   3   4
ATOM      4  CD  LYS A 131      26.154  24.527  17.289  1.00 24.33     0.041 C 
BRANCH   4   5
ATOM      5  CE  LYS A 131      25.684  23.226  17.932  1.00 26.91     0.338 C 
ATOM      6  NZ  LYS A 131      24.447  22.741  17.277  1.00 27.40     0.618 N 
ENDBRANCH   4   5
ENDBRANCH   3   4
ENDBRANCH   2   3
ENDBRANCH   1   2
END_RES LYS A 131
BEGIN_RES LYS A 135
REMARK  4 active torsions:
REMARK  status: ('A' for Active; 'I' for Inactive)
REMARK    5  A    between atoms: CA   and  CB  
REMARK    6  A    between atoms: CB   and  CG  
REMARK    7  A    between atoms: CG   and  CD  
REMARK    8  A    between atoms: CD   and  CE  
ROOT
ATOM      7  CA  LYS A 135      33.193  34.663   9.290  1.00 25.02     0.186 C 
ENDROOT
BRANCH   7   8
ATOM      8  CB  LYS A 135      32.060  35.360  10.034  1.00 26.63     0.034 C 
BRANCH   8   9
ATOM      9  CG  LYS A 135      30.739  35.301   9.312  1.00 29.45     0.005 C 
BRANCH   9  10
ATOM     10  CD  LYS A 135      30.258  36.699   8.957  1.00 32.00     0.041 C 
BRANCH  10  11
ATOM     11  CE  LYS A 135      29.264  36.646   7.812  1.00 34.25     0.338 C 
ATOM     12  NZ  LYS A 135      29.264  35.305   7.164  1.00 35.99     0.618 N 
ENDBRANCH  10  11
ENDBRANCH   9  10
ENDBRANCH   8   9
ENDBRANCH   7   8
END_RES LYS A 135
