REMARK VINA RESULT:    -5.200      2.090      4.448
REMARK INTER + INTRA:         -21.467
REMARK INTER:                 -11.833
REMARK INTRA:                  -9.634
REMARK UNBOUND:                -8.212
REMARK SMILES CC(=O)N[C@@H]1[C@@H](O)C[C@](OC[C@H]2O[C@@H](O[C@H]3[C@H](O)[C@@H](O)[C@H](OCCN=[N+]=[N-])O[C@@H]3CO)[C@H](O)[C@@H](O)[C@H]2O)(C(=O)O)O[C@H]1C(O)[C@H](O)CNC(=O)OCc1cn(-c2ccc(CO)cn2)nn1
REMARK SMILES IDX 9 1 8 2 6 3 5 4 42 5 41 6 10 7 11 8 12 9 14 10 13 11 32 12
REMARK SMILES IDX 34 13 36 14 15 15 16 16 29 17 28 18 21 19 17 20 19 21 30 22
REMARK SMILES IDX 31 23 22 25 23 26 24 27 25 28 26 29 27 30 18 31 20 33 33 35
REMARK SMILES IDX 35 37 37 39 38 41 39 42 40 43 7 45 43 47 44 48 45 50 46 51
REMARK SMILES IDX 47 53 48 54 49 55 50 57 51 58 52 59 53 60 54 61 65 62 55 63
REMARK SMILES IDX 64 64 56 65 57 66 63 67 58 68 62 69 59 70 60 71 61 72 4 74
REMARK SMILES IDX 2 75 1 77 3 78
REMARK H PARENT 31 24 18 32 20 34 33 36 35 38 37 40 40 44 7 46 44 49 46 52
REMARK H PARENT 48 56 61 73 4 76
REMARK Flexibility Score: inf
ROOT
ATOM      1  C   UNL     1      28.045  36.763   8.447  1.00  0.00     0.272 C 
ATOM      2  C   UNL     1      29.062  36.964   9.507  1.00  0.00     0.113 C 
ATOM      3  C   UNL     1      30.401  37.361   8.952  1.00  0.00     0.145 C 
ATOM      4  C   UNL     1      30.233  38.483   7.945  1.00  0.00     0.142 C 
ATOM      5  C   UNL     1      29.201  38.138   6.953  1.00  0.00     0.178 C 
ATOM      6  O   UNL     1      28.025  37.749   7.494  1.00  0.00    -0.332 OA
ENDROOT
BRANCH   1   7
ATOM      7  O   UNL     1      26.752  36.638   8.927  1.00  0.00    -0.338 OA
BRANCH   7   8
ATOM      8  C   UNL     1      25.797  37.100   8.045  1.00  0.00     0.199 C 
BRANCH   8   9
ATOM      9  C   UNL     1      24.434  36.702   8.524  1.00  0.00     0.179 C 
ATOM     10  C   UNL     1      23.333  35.887  10.322  1.00  0.00     0.282 C 
ATOM     11  O   UNL     1      24.312  36.832   9.921  1.00  0.00    -0.341 OA
ATOM     12  C   UNL     1      22.118  36.036   9.501  1.00  0.00     0.202 C 
ATOM     13  C   UNL     1      22.036  37.302   8.664  1.00  0.00     0.179 C 
ATOM     14  C   UNL     1      23.351  37.539   7.926  1.00  0.00     0.177 C 
BRANCH  10  15
ATOM     15  O   UNL     1      23.133  35.990  11.703  1.00  0.00    -0.341 OA
BRANCH  15  16
ATOM     16  C   UNL     1      24.225  35.572  12.431  1.00  0.00     0.184 C 
ATOM     17  C   UNL     1      24.857  34.293  11.980  1.00  0.00     0.178 C 
ATOM     18  O   UNL     1      24.697  33.244  12.881  1.00  0.00    -0.341 OA
ATOM     19  C   UNL     1      23.384  32.976  13.177  1.00  0.00     0.281 C 
ATOM     20  C   UNL     1      23.714  35.335  13.865  1.00  0.00     0.180 C 
ATOM     21  C   UNL     1      22.664  34.226  13.707  1.00  0.00     0.202 C 
BRANCH  17  22
ATOM     22  C   UNL     1      26.377  34.539  11.934  1.00  0.00     0.191 C 
BRANCH  22  23
ATOM     23  O   UNL     1      26.863  34.244  10.651  1.00  0.00    -0.394 OA
ATOM     24  H   UNL     1      26.164  33.762  10.113  1.00  0.00     0.210 HD
ENDBRANCH  22  23
ENDBRANCH  17  22
BRANCH  19  25
ATOM     25  O   UNL     1      23.348  31.990  14.158  1.00  0.00    -0.350 OA
BRANCH  25  26
ATOM     26  C   UNL     1      24.525  31.298  14.279  1.00  0.00     0.169 C 
BRANCH  26  27
ATOM     27  C   UNL     1      24.818  31.120  15.764  1.00  0.00     0.119 C 
BRANCH  27  28
ATOM     28  N   UNL     1      26.195  31.493  16.055  1.00  0.00    -0.092 NA
ATOM     29  N   UNL     1      26.786  32.399  15.492  1.00  0.00     0.001 N 
ATOM     30  N   UNL     1      27.306  33.494  15.279  1.00  0.00    -0.003 NA
ENDBRANCH  27  28
ENDBRANCH  26  27
ENDBRANCH  25  26
ENDBRANCH  19  25
BRANCH  20  31
ATOM     31  O   UNL     1      24.713  35.013  14.741  1.00  0.00    -0.387 OA
ATOM     32  H   UNL     1      24.878  35.758  15.337  1.00  0.00     0.211 HD
ENDBRANCH  20  31
BRANCH  21  33
ATOM     33  O   UNL     1      21.755  34.687  12.759  1.00  0.00    -0.385 OA
ATOM     34  H   UNL     1      20.986  34.062  12.756  1.00  0.00     0.211 HD
ENDBRANCH  21  33
ENDBRANCH  15  16
ENDBRANCH  10  15
BRANCH  12  35
ATOM     35  O   UNL     1      22.022  34.932   8.621  1.00  0.00    -0.385 OA
ATOM     36  H   UNL     1      22.287  35.181   7.698  1.00  0.00     0.211 HD
ENDBRANCH  12  35
BRANCH  13  37
ATOM     37  O   UNL     1      21.633  38.396   9.409  1.00  0.00    -0.387 OA
ATOM     38  H   UNL     1      22.042  38.455  10.286  1.00  0.00     0.211 HD
ENDBRANCH  13  37
BRANCH  14  39
ATOM     39  O   UNL     1      23.634  38.885   8.011  1.00  0.00    -0.387 OA
ATOM     40  H   UNL     1      24.577  39.034   7.806  1.00  0.00     0.211 HD
ENDBRANCH  14  39
ENDBRANCH   8   9
ENDBRANCH   7   8
ENDBRANCH   1   7
BRANCH   1  41
ATOM     41  C   UNL     1      28.296  35.484   7.675  1.00  0.00     0.364 C 
ATOM     42  O   UNL     1      28.141  35.393   6.434  1.00  0.00    -0.246 OA
BRANCH  41  43
ATOM     43  O   UNL     1      28.716  34.344   8.332  1.00  0.00    -0.477 OA
ATOM     44  H   UNL     1      29.678  34.287   8.688  1.00  0.00     0.296 HD
ENDBRANCH  41  43
ENDBRANCH   1  41
BRANCH   3  45
ATOM     45  O   UNL     1      31.125  37.915  10.026  1.00  0.00    -0.391 OA
ATOM     46  H   UNL     1      30.776  38.774  10.327  1.00  0.00     0.211 HD
ENDBRANCH   3  45
BRANCH   5  47
ATOM     47  C   UNL     1      28.973  39.220   5.913  1.00  0.00     0.176 C 
BRANCH  47  48
ATOM     48  O   UNL     1      29.026  40.472   6.523  1.00  0.00    -0.388 OA
ATOM     49  H   UNL     1      28.869  41.188   5.864  1.00  0.00     0.211 HD
ENDBRANCH  47  48
BRANCH  47  50
ATOM     50  C   UNL     1      27.703  39.123   5.157  1.00  0.00     0.165 C 
BRANCH  50  51
ATOM     51  O   UNL     1      27.461  37.837   4.654  1.00  0.00    -0.388 OA
ATOM     52  H   UNL     1      26.783  37.811   3.962  1.00  0.00     0.211 HD
ENDBRANCH  50  51
BRANCH  50  53
ATOM     53  C   UNL     1      27.483  40.162   4.095  1.00  0.00     0.154 C 
BRANCH  53  54
ATOM     54  N   UNL     1      26.487  41.116   4.507  1.00  0.00    -0.319 N 
ATOM     55  C   UNL     1      26.870  42.426   4.880  1.00  0.00     0.407 C 
ATOM     56  H   UNL     1      25.453  40.831   4.531  1.00  0.00     0.167 HD
ATOM     57  O   UNL     1      28.058  42.816   4.870  1.00  0.00    -0.225 OA
BRANCH  55  58
ATOM     58  O   UNL     1      25.918  43.368   5.285  1.00  0.00    -0.443 OA
BRANCH  58  59
ATOM     59  C   UNL     1      25.674  43.551   6.651  1.00  0.00     0.294 C 
BRANCH  59  60
ATOM     60  C   UNL     1      25.973  42.414   7.511  1.00  0.00     0.121 A 
ATOM     61  C   UNL     1      26.910  42.361   8.513  1.00  0.00     0.146 A 
ATOM     62  N   UNL     1      25.392  41.203   7.485  1.00  0.00    -0.131 NA
ATOM     63  N   UNL     1      26.877  41.131   9.065  1.00  0.00    -0.202 N 
ATOM     64  N   UNL     1      25.943  40.462   8.413  1.00  0.00    -0.061 NA
BRANCH  63  65
ATOM     65  C   UNL     1      27.708  40.699  10.130  1.00  0.00     0.155 A 
ATOM     66  C   UNL     1      28.987  41.213  10.315  1.00  0.00     0.049 A 
ATOM     67  N   UNL     1      27.291  39.765  11.002  1.00  0.00    -0.237 NA
ATOM     68  C   UNL     1      29.790  40.771  11.358  1.00  0.00     0.011 A 
ATOM     69  C   UNL     1      28.057  39.320  12.027  1.00  0.00     0.119 A 
ATOM     70  C   UNL     1      29.335  39.812  12.236  1.00  0.00    -0.004 A 
BRANCH  70  71
ATOM     71  C   UNL     1      30.200  39.342  13.351  1.00  0.00     0.193 C 
BRANCH  71  72
ATOM     72  O   UNL     1      31.394  38.812  12.863  1.00  0.00    -0.392 OA
ATOM     73  H   UNL     1      31.998  38.527  13.579  1.00  0.00     0.211 HD
ENDBRANCH  71  72
ENDBRANCH  70  71
ENDBRANCH  63  65
ENDBRANCH  59  60
ENDBRANCH  58  59
ENDBRANCH  55  58
ENDBRANCH  53  54
ENDBRANCH  50  53
ENDBRANCH  47  50
ENDBRANCH   5  47
BRANCH   4  74
ATOM     74  N   UNL     1      31.528  38.772   7.326  1.00  0.00    -0.348 N 
ATOM     75  C   UNL     1      32.343  39.821   7.747  1.00  0.00     0.217 C 
ATOM     76  H   UNL     1      31.841  38.157   6.549  1.00  0.00     0.163 HD
ATOM     77  C   UNL     1      33.651  40.013   7.015  1.00  0.00     0.114 C 
ATOM     78  O   UNL     1      32.060  40.595   8.672  1.00  0.00    -0.275 OA
ENDBRANCH   4  74
TORSDOF 32
BEGIN_RES LYS A 131
REMARK  4 active torsions:
REMARK  status: ('A' for Active; 'I' for Inactive)
REMARK    1  A    between atoms: CA   and  CB  
REMARK    2  A    between atoms: CB   and  CG  
REMARK    3  A    between atoms: CG   and  CD  
REMARK    4  A    between atoms: CD   and  CE  
ROOT
ATOM      1  CA  LYS A 131      29.867  25.555  16.977  1.00 20.52     0.186 C 
ENDROOT
BRANCH   1   2
ATOM      2  CB  LYS A 131      28.345  25.722  17.026  1.00 20.94     0.034 C 
BRANCH   2   3
ATOM      3  CG  LYS A 131      27.601  24.401  16.904  1.00 22.96     0.005 C 
BRANCH   3   4
ATOM      4  CD  LYS A 131      26.153  24.529  17.286  1.00 24.33     0.041 C 
BRANCH   4   5
ATOM      5  CE  LYS A 131      26.042  25.248  18.627  1.00 26.91     0.338 C 
ATOM      6  NZ  LYS A 131      25.095  26.384  18.530  1.00 27.40     0.618 N 
ENDBRANCH   4   5
ENDBRANCH   3   4
ENDBRANCH   2   3
ENDBRANCH   1   2
END_RES LYS A 131
BEGIN_RES LYS A 135
REMARK  4 active torsions:
REMARK  status: ('A' for Active; 'I' for Inactive)
REMARK    5  A    between atoms: CA   and  CB  
REMARK    6  A    between atoms: CB   and  CG  
REMARK    7  A    between atoms: CG   and  CD  
REMARK    8  A    between atoms: CD   and  CE  
ROOT
ATOM      7  CA  LYS A 135      33.193  34.663   9.290  1.00 25.02     0.186 C 
ENDROOT
BRANCH   7   8
ATOM      8  CB  LYS A 135      32.060  35.360  10.034  1.00 26.63     0.034 C 
BRANCH   8   9
ATOM      9  CG  LYS A 135      31.258  34.436  10.913  1.00 29.45     0.005 C 
BRANCH   9  10
ATOM     10  CD  LYS A 135      31.216  34.956  12.342  1.00 32.00     0.041 C 
BRANCH  10  11
ATOM     11  CE  LYS A 135      29.783  35.057  12.829  1.00 34.25     0.338 C 
ATOM     12  NZ  LYS A 135      29.699  35.852  14.086  1.00 35.99     0.618 N 
ENDBRANCH  10  11
ENDBRANCH   9  10
ENDBRANCH   8   9
ENDBRANCH   7   8
END_RES LYS A 135
