REMARK VINA RESULT:    -4.099      5.055     10.507
REMARK INTER + INTRA:         -21.977
REMARK INTER:                 -10.569
REMARK INTRA:                 -11.408
REMARK UNBOUND:               -11.408
REMARK SMILES CC(=O)N[C@@H]1[C@@H](O)C[C@](OC[C@H]2O[C@@H](O[C@H]3[C@H](O)[C@@H](O)[C@H](OCCN=[N+]=[N-])O[C@@H]3CO)[C@H](O)[C@@H](O)[C@H]2O)(C(=O)O)O[C@H]1C(O)[C@H](O)CNC(=O)OCc1cn(CS(=O)(=O)c2ccccc2)nn1
REMARK SMILES IDX 9 1 8 2 6 3 5 4 42 5 41 6 10 7 11 8 12 9 14 10 13 11 32 12
REMARK SMILES IDX 34 13 36 14 15 15 16 16 29 17 28 18 21 19 17 20 19 21 30 22
REMARK SMILES IDX 31 23 22 25 23 26 24 27 25 28 26 29 27 30 18 31 20 33 33 35
REMARK SMILES IDX 35 37 37 39 38 41 39 42 40 43 7 45 43 47 44 48 45 50 46 51
REMARK SMILES IDX 47 53 48 54 49 55 50 57 51 58 52 59 53 60 54 61 67 62 55 63
REMARK SMILES IDX 66 64 56 65 57 66 58 67 59 68 60 69 61 70 65 71 62 72 64 73
REMARK SMILES IDX 63 74 4 75 2 76 1 78 3 79
REMARK H PARENT 31 24 18 32 20 34 33 36 35 38 37 40 40 44 7 46 44 49 46 52
REMARK H PARENT 48 56 4 77
REMARK Flexibility Score: inf
ROOT
ATOM      1  C   UNL     1      24.478  38.279   9.124  1.00  0.00     0.272 C 
ATOM      2  C   UNL     1      23.518  37.583   8.248  1.00  0.00     0.113 C 
ATOM      3  C   UNL     1      22.084  38.062   8.357  1.00  0.00     0.145 C 
ATOM      4  C   UNL     1      21.746  38.072   9.807  1.00  0.00     0.142 C 
ATOM      5  C   UNL     1      22.765  38.782  10.654  1.00  0.00     0.178 C 
ATOM      6  O   UNL     1      24.064  38.507  10.427  1.00  0.00    -0.332 OA
ENDROOT
BRANCH   1   7
ATOM      7  O   UNL     1      25.049  39.393   8.546  1.00  0.00    -0.338 OA
BRANCH   7   8
ATOM      8  C   UNL     1      25.394  39.308   7.236  1.00  0.00     0.199 C 
BRANCH   8   9
ATOM      9  C   UNL     1      26.522  40.307   6.902  1.00  0.00     0.179 C 
ATOM     10  C   UNL     1      28.675  39.733   7.699  1.00  0.00     0.282 C 
ATOM     11  O   UNL     1      27.423  40.243   7.891  1.00  0.00    -0.341 OA
ATOM     12  C   UNL     1      28.694  38.676   6.662  1.00  0.00     0.202 C 
ATOM     13  C   UNL     1      28.053  39.127   5.384  1.00  0.00     0.179 C 
ATOM     14  C   UNL     1      27.047  40.195   5.530  1.00  0.00     0.177 C 
BRANCH  10  15
ATOM     15  O   UNL     1      29.070  39.260   8.962  1.00  0.00    -0.341 OA
BRANCH  15  16
ATOM     16  C   UNL     1      29.653  40.159   9.789  1.00  0.00     0.184 C 
ATOM     17  C   UNL     1      30.888  39.624  10.451  1.00  0.00     0.178 C 
ATOM     18  O   UNL     1      31.620  40.718  10.902  1.00  0.00    -0.341 OA
ATOM     19  C   UNL     1      30.900  41.659  11.585  1.00  0.00     0.281 C 
ATOM     20  C   UNL     1      28.732  40.500  10.986  1.00  0.00     0.180 C 
ATOM     21  C   UNL     1      29.522  41.279  11.963  1.00  0.00     0.202 C 
BRANCH  17  22
ATOM     22  C   UNL     1      31.769  38.774   9.604  1.00  0.00     0.191 C 
BRANCH  22  23
ATOM     23  O   UNL     1      32.244  37.708  10.359  1.00  0.00    -0.394 OA
ATOM     24  H   UNL     1      31.571  37.444  11.029  1.00  0.00     0.210 HD
ENDBRANCH  22  23
ENDBRANCH  17  22
BRANCH  19  25
ATOM     25  O   UNL     1      30.852  42.790  10.775  1.00  0.00    -0.350 OA
BRANCH  25  26
ATOM     26  C   UNL     1      32.106  43.048  10.173  1.00  0.00     0.169 C 
BRANCH  26  27
ATOM     27  C   UNL     1      31.931  43.100   8.671  1.00  0.00     0.119 C 
BRANCH  27  28
ATOM     28  N   UNL     1      32.857  42.134   8.085  1.00  0.00    -0.092 NA
ATOM     29  N   UNL     1      32.444  41.447   7.128  1.00  0.00     0.001 N 
ATOM     30  N   UNL     1      31.899  40.626   6.369  1.00  0.00    -0.003 NA
ENDBRANCH  27  28
ENDBRANCH  26  27
ENDBRANCH  25  26
ENDBRANCH  19  25
BRANCH  20  31
ATOM     31  O   UNL     1      27.635  41.227  10.554  1.00  0.00    -0.387 OA
ATOM     32  H   UNL     1      27.043  40.616  10.047  1.00  0.00     0.211 HD
ENDBRANCH  20  31
BRANCH  21  33
ATOM     33  O   UNL     1      29.619  40.506  13.148  1.00  0.00    -0.385 OA
ATOM     34  H   UNL     1      29.720  41.062  13.949  1.00  0.00     0.211 HD
ENDBRANCH  21  33
ENDBRANCH  15  16
ENDBRANCH  10  15
BRANCH  12  35
ATOM     35  O   UNL     1      30.036  38.356   6.281  1.00  0.00    -0.385 OA
ATOM     36  H   UNL     1      30.110  37.381   6.418  1.00  0.00     0.211 HD
ENDBRANCH  12  35
BRANCH  13  37
ATOM     37  O   UNL     1      27.521  38.021   4.675  1.00  0.00    -0.387 OA
ATOM     38  H   UNL     1      27.259  38.316   3.756  1.00  0.00     0.211 HD
ENDBRANCH  13  37
BRANCH  14  39
ATOM     39  O   UNL     1      26.030  40.008   4.575  1.00  0.00    -0.387 OA
ATOM     40  H   UNL     1      25.339  39.425   4.985  1.00  0.00     0.211 HD
ENDBRANCH  14  39
ENDBRANCH   8   9
ENDBRANCH   7   8
ENDBRANCH   1   7
BRANCH   1  41
ATOM     41  C   UNL     1      25.610  37.286   9.337  1.00  0.00     0.364 C 
ATOM     42  O   UNL     1      25.423  36.108   8.991  1.00  0.00    -0.246 OA
BRANCH  41  43
ATOM     43  O   UNL     1      26.807  37.699   9.898  1.00  0.00    -0.477 OA
ATOM     44  H   UNL     1      27.080  38.692   9.861  1.00  0.00     0.296 HD
ENDBRANCH  41  43
ENDBRANCH   1  41
BRANCH   3  45
ATOM     45  O   UNL     1      21.967  39.268   7.724  1.00  0.00    -0.391 OA
ATOM     46  H   UNL     1      22.450  39.947   8.272  1.00  0.00     0.211 HD
ENDBRANCH   3  45
BRANCH   5  47
ATOM     47  C   UNL     1      22.467  40.255  10.811  1.00  0.00     0.176 C 
BRANCH  47  48
ATOM     48  O   UNL     1      21.204  40.517  11.336  1.00  0.00    -0.388 OA
ATOM     49  H   UNL     1      20.535  39.846  11.139  1.00  0.00     0.211 HD
ENDBRANCH  47  48
BRANCH  47  50
ATOM     50  C   UNL     1      23.517  40.982  11.639  1.00  0.00     0.165 C 
BRANCH  50  51
ATOM     51  O   UNL     1      24.703  41.160  10.965  1.00  0.00    -0.388 OA
ATOM     52  H   UNL     1      25.237  41.919  11.246  1.00  0.00     0.211 HD
ENDBRANCH  50  51
BRANCH  50  53
ATOM     53  C   UNL     1      23.722  40.426  12.996  1.00  0.00     0.154 C 
BRANCH  53  54
ATOM     54  N   UNL     1      24.838  39.551  13.189  1.00  0.00    -0.319 N 
ATOM     55  C   UNL     1      26.172  39.937  13.454  1.00  0.00     0.407 C 
ATOM     56  H   UNL     1      24.652  38.503  13.127  1.00  0.00     0.167 HD
ATOM     57  O   UNL     1      26.487  41.137  13.556  1.00  0.00    -0.225 OA
BRANCH  55  58
ATOM     58  O   UNL     1      27.133  38.949  13.600  1.00  0.00    -0.443 OA
BRANCH  58  59
ATOM     59  C   UNL     1      26.966  37.784  14.352  1.00  0.00     0.294 C 
BRANCH  59  60
ATOM     60  C   UNL     1      26.677  36.650  13.453  1.00  0.00     0.120 A 
ATOM     61  C   UNL     1      25.479  35.957  13.443  1.00  0.00     0.139 A 
ATOM     62  N   UNL     1      27.430  36.069  12.506  1.00  0.00    -0.132 NA
ATOM     63  N   UNL     1      25.535  34.991  12.507  1.00  0.00    -0.237 N 
ATOM     64  N   UNL     1      26.741  35.090  11.958  1.00  0.00    -0.066 NA
BRANCH  63  65
ATOM     65  C   UNL     1      24.502  34.053  12.171  1.00  0.00     0.287 C 
BRANCH  65  66
ATOM     66  S   UNL     1      24.173  33.098  13.652  1.00  0.00     0.198 S 
ATOM     67  O   UNL     1      23.260  33.831  14.559  1.00  0.00    -0.222 OA
ATOM     68  O   UNL     1      25.518  32.831  14.306  1.00  0.00    -0.222 OA
BRANCH  66  69
ATOM     69  C   UNL     1      23.467  31.585  13.146  1.00  0.00     0.069 A 
ATOM     70  C   UNL     1      24.195  30.415  13.106  1.00  0.00     0.020 A 
ATOM     71  C   UNL     1      22.145  31.511  12.767  1.00  0.00     0.020 A 
ATOM     72  C   UNL     1      23.642  29.226  12.708  1.00  0.00     0.001 A 
ATOM     73  C   UNL     1      21.577  30.329  12.366  1.00  0.00     0.001 A 
ATOM     74  C   UNL     1      22.331  29.183  12.337  1.00  0.00     0.000 A 
ENDBRANCH  66  69
ENDBRANCH  65  66
ENDBRANCH  63  65
ENDBRANCH  59  60
ENDBRANCH  58  59
ENDBRANCH  55  58
ENDBRANCH  53  54
ENDBRANCH  50  53
ENDBRANCH  47  50
ENDBRANCH   5  47
BRANCH   4  75
ATOM     75  N   UNL     1      21.687  36.693  10.277  1.00  0.00    -0.348 N 
ATOM     76  C   UNL     1      20.581  36.204  11.027  1.00  0.00     0.217 C 
ATOM     77  H   UNL     1      22.468  35.994  10.084  1.00  0.00     0.163 HD
ATOM     78  C   UNL     1      20.571  34.771  11.490  1.00  0.00     0.114 C 
ATOM     79  O   UNL     1      19.606  36.959  11.309  1.00  0.00    -0.275 OA
ENDBRANCH   4  75
TORSDOF 32
BEGIN_RES LYS A 131
REMARK  4 active torsions:
REMARK  status: ('A' for Active; 'I' for Inactive)
REMARK    1  A    between atoms: CA   and  CB  
REMARK    2  A    between atoms: CB   and  CG  
REMARK    3  A    between atoms: CG   and  CD  
REMARK    4  A    between atoms: CD   and  CE  
ROOT
ATOM      1  CA  LYS A 131      29.867  25.555  16.977  1.00 20.52     0.186 C 
ENDROOT
BRANCH   1   2
ATOM      2  CB  LYS A 131      28.345  25.722  17.026  1.00 20.94     0.034 C 
BRANCH   2   3
ATOM      3  CG  LYS A 131      27.602  24.400  16.916  1.00 22.96     0.005 C 
BRANCH   3   4
ATOM      4  CD  LYS A 131      26.153  24.531  17.296  1.00 24.33     0.041 C 
BRANCH   4   5
ATOM      5  CE  LYS A 131      25.958  24.054  18.732  1.00 26.91     0.338 C 
ATOM      6  NZ  LYS A 131      24.710  23.264  18.851  1.00 27.40     0.618 N 
ENDBRANCH   4   5
ENDBRANCH   3   4
ENDBRANCH   2   3
ENDBRANCH   1   2
END_RES LYS A 131
BEGIN_RES LYS A 135
REMARK  4 active torsions:
REMARK  status: ('A' for Active; 'I' for Inactive)
REMARK    5  A    between atoms: CA   and  CB  
REMARK    6  A    between atoms: CB   and  CG  
REMARK    7  A    between atoms: CG   and  CD  
REMARK    8  A    between atoms: CD   and  CE  
ROOT
ATOM      7  CA  LYS A 135      33.193  34.663   9.290  1.00 25.02     0.186 C 
ENDROOT
BRANCH   7   8
ATOM      8  CB  LYS A 135      32.060  35.360  10.034  1.00 26.63     0.034 C 
BRANCH   8   9
ATOM      9  CG  LYS A 135      30.704  34.761   9.764  1.00 29.45     0.005 C 
BRANCH   9  10
ATOM     10  CD  LYS A 135      30.609  34.273   8.327  1.00 32.00     0.041 C 
BRANCH  10  11
ATOM     11  CE  LYS A 135      29.558  35.057   7.565  1.00 34.25     0.338 C 
ATOM     12  NZ  LYS A 135      28.205  34.851   8.153  1.00 35.99     0.618 N 
ENDBRANCH  10  11
ENDBRANCH   9  10
ENDBRANCH   8   9
ENDBRANCH   7   8
END_RES LYS A 135
