REMARK VINA RESULT:    -4.237      2.993      8.155
REMARK INTER + INTRA:         -22.291
REMARK INTER:                  -9.743
REMARK INTRA:                 -12.548
REMARK UNBOUND:               -11.119
REMARK SMILES CC(=O)N[C@@H]1[C@@H](O)C[C@](OC[C@H]2O[C@@H](O[C@H]3[C@H](O)[C@@H](O)[C@H](OCCN=[N+]=[N-])O[C@@H]3CO)[C@H](O)[C@@H](O)[C@H]2O)(C(=O)O)O[C@H]1C(O)[C@H](O)CNC(=O)OCc1cn(CC(O)CO)nn1
REMARK SMILES IDX 43 1 42 2 9 3 8 4 41 5 6 6 5 7 10 8 11 9 12 10 14 11 13 12
REMARK SMILES IDX 32 13 34 14 36 15 15 16 16 17 29 18 28 19 21 20 17 21 19 22
REMARK SMILES IDX 30 23 31 24 22 26 23 27 24 28 25 29 26 30 27 31 18 32 20 34
REMARK SMILES IDX 33 36 35 38 37 40 38 42 39 43 40 44 7 46 4 48 2 49 1 51 3 52
REMARK SMILES IDX 44 53 45 55 46 56 47 58 48 59 49 60 50 62 51 63 52 64 53 65
REMARK SMILES IDX 54 66 62 67 55 68 61 69 56 70 57 71 58 72 59 74 60 75
REMARK H PARENT 31 25 18 33 20 35 33 37 35 39 37 41 40 45 7 47 4 50 44 54
REMARK H PARENT 46 57 48 61 58 73 60 76
REMARK Flexibility Score: inf
ROOT
ATOM      1  C   UNL     1      24.156  37.271   7.668  1.00  0.00     0.176 C 
ENDROOT
BRANCH   1   2
ATOM      2  C   UNL     1      23.222  38.469   7.925  1.00  0.00     0.178 C 
ATOM      3  C   UNL     1      23.222  40.748   8.546  1.00  0.00     0.272 C 
ATOM      4  C   UNL     1      22.178  40.481   9.595  1.00  0.00     0.113 C 
ATOM      5  O   UNL     1      23.907  39.555   8.272  1.00  0.00    -0.332 OA
ATOM      6  C   UNL     1      21.922  39.066   9.952  1.00  0.00     0.145 C 
ATOM      7  C   UNL     1      22.182  38.057   8.897  1.00  0.00     0.142 C 
BRANCH   3   8
ATOM      8  O   UNL     1      24.104  41.627   8.973  1.00  0.00    -0.338 OA
BRANCH   8   9
ATOM      9  C   UNL     1      24.796  42.010   9.961  1.00  0.00     0.199 C 
BRANCH   9  10
ATOM     10  C   UNL     1      26.076  41.384  10.412  1.00  0.00     0.179 C 
ATOM     11  C   UNL     1      26.858  39.633  11.659  1.00  0.00     0.282 C 
ATOM     12  O   UNL     1      25.799  40.032  10.849  1.00  0.00    -0.341 OA
ATOM     13  C   UNL     1      28.154  40.320  11.398  1.00  0.00     0.202 C 
ATOM     14  C   UNL     1      28.377  40.762   9.983  1.00  0.00     0.179 C 
ATOM     15  C   UNL     1      27.073  41.111   9.285  1.00  0.00     0.177 C 
BRANCH  11  16
ATOM     16  O   UNL     1      27.064  38.270  11.702  1.00  0.00    -0.341 OA
BRANCH  16  17
ATOM     17  C   UNL     1      26.866  37.705  12.960  1.00  0.00     0.184 C 
ATOM     18  C   UNL     1      27.667  36.443  13.072  1.00  0.00     0.178 C 
ATOM     19  O   UNL     1      26.886  35.308  13.227  1.00  0.00    -0.341 OA
ATOM     20  C   UNL     1      25.780  35.336  12.362  1.00  0.00     0.281 C 
ATOM     21  C   UNL     1      25.427  37.584  13.244  1.00  0.00     0.180 C 
ATOM     22  C   UNL     1      24.784  36.260  13.021  1.00  0.00     0.202 C 
BRANCH  18  23
ATOM     23  C   UNL     1      28.643  36.488  14.230  1.00  0.00     0.191 C 
BRANCH  23  24
ATOM     24  O   UNL     1      29.412  37.643  14.212  1.00  0.00    -0.394 OA
ATOM     25  H   UNL     1      29.082  38.221  14.972  1.00  0.00     0.210 HD
ENDBRANCH  23  24
ENDBRANCH  18  23
BRANCH  20  26
ATOM     26  O   UNL     1      25.299  34.038  12.306  1.00  0.00    -0.350 OA
BRANCH  26  27
ATOM     27  C   UNL     1      25.182  33.419  13.541  1.00  0.00     0.169 C 
BRANCH  27  28
ATOM     28  C   UNL     1      24.044  32.424  13.597  1.00  0.00     0.119 C 
BRANCH  28  29
ATOM     29  N   UNL     1      23.929  31.790  14.882  1.00  0.00    -0.092 NA
ATOM     30  N   UNL     1      23.917  30.581  15.081  1.00  0.00     0.001 N 
ATOM     31  N   UNL     1      23.822  29.355  15.127  1.00  0.00    -0.003 NA
ENDBRANCH  28  29
ENDBRANCH  27  28
ENDBRANCH  26  27
ENDBRANCH  20  26
BRANCH  21  32
ATOM     32  O   UNL     1      25.115  37.996  14.564  1.00  0.00    -0.387 OA
ATOM     33  H   UNL     1      25.383  38.971  14.580  1.00  0.00     0.211 HD
ENDBRANCH  21  32
BRANCH  22  34
ATOM     34  O   UNL     1      23.588  36.329  12.311  1.00  0.00    -0.385 OA
ATOM     35  H   UNL     1      23.607  35.835  11.475  1.00  0.00     0.211 HD
ENDBRANCH  22  34
ENDBRANCH  16  17
ENDBRANCH  11  16
BRANCH  13  36
ATOM     36  O   UNL     1      28.411  41.344  12.339  1.00  0.00    -0.385 OA
ATOM     37  H   UNL     1      27.977  41.190  13.198  1.00  0.00     0.211 HD
ENDBRANCH  13  36
BRANCH  14  38
ATOM     38  O   UNL     1      29.120  39.858   9.228  1.00  0.00    -0.387 OA
ATOM     39  H   UNL     1      28.737  39.806   8.320  1.00  0.00     0.211 HD
ENDBRANCH  14  38
BRANCH  15  40
ATOM     40  O   UNL     1      26.628  39.917   8.655  1.00  0.00    -0.387 OA
ATOM     41  H   UNL     1      27.144  39.141   8.980  1.00  0.00     0.211 HD
ENDBRANCH  15  40
ENDBRANCH   9  10
ENDBRANCH   8   9
ENDBRANCH   3   8
BRANCH   3  42
ATOM     42  C   UNL     1      22.592  41.198   7.262  1.00  0.00     0.364 C 
ATOM     43  O   UNL     1      23.374  41.708   6.401  1.00  0.00    -0.246 OA
BRANCH  42  44
ATOM     44  O   UNL     1      21.253  41.087   6.989  1.00  0.00    -0.477 OA
ATOM     45  H   UNL     1      20.563  40.899   7.725  1.00  0.00     0.296 HD
ENDBRANCH  42  44
ENDBRANCH   3  42
BRANCH   6  46
ATOM     46  O   UNL     1      22.745  38.764  11.064  1.00  0.00    -0.391 OA
ATOM     47  H   UNL     1      23.373  38.056  10.820  1.00  0.00     0.211 HD
ENDBRANCH   6  46
BRANCH   7  48
ATOM     48  N   UNL     1      20.917  37.678   8.273  1.00  0.00    -0.348 N 
ATOM     49  C   UNL     1      20.533  36.323   8.111  1.00  0.00     0.217 C 
ATOM     50  H   UNL     1      20.250  38.393   7.921  1.00  0.00     0.163 HD
ATOM     51  C   UNL     1      19.248  35.933   7.476  1.00  0.00     0.114 C 
ATOM     52  O   UNL     1      21.325  35.441   8.529  1.00  0.00    -0.275 OA
ENDBRANCH   7  48
ENDBRANCH   1   2
BRANCH   1  53
ATOM     53  O   UNL     1      25.341  37.728   7.124  1.00  0.00    -0.388 OA
ATOM     54  H   UNL     1      26.097  37.553   7.737  1.00  0.00     0.211 HD
ENDBRANCH   1  53
BRANCH   1  55
ATOM     55  C   UNL     1      24.437  36.545   8.974  1.00  0.00     0.165 C 
BRANCH  55  56
ATOM     56  O   UNL     1      25.268  37.430   9.704  1.00  0.00    -0.388 OA
ATOM     57  H   UNL     1      24.754  38.239   9.944  1.00  0.00     0.211 HD
ENDBRANCH  55  56
BRANCH  55  58
ATOM     58  C   UNL     1      25.160  35.253   8.805  1.00  0.00     0.154 C 
BRANCH  58  59
ATOM     59  N   UNL     1      26.533  35.443   8.388  1.00  0.00    -0.319 N 
ATOM     60  C   UNL     1      27.562  34.612   8.886  1.00  0.00     0.407 C 
ATOM     61  H   UNL     1      26.811  36.200   7.702  1.00  0.00     0.167 HD
ATOM     62  O   UNL     1      27.337  33.695   9.709  1.00  0.00    -0.225 OA
BRANCH  60  63
ATOM     63  O   UNL     1      28.871  34.774   8.477  1.00  0.00    -0.443 OA
BRANCH  63  64
ATOM     64  C   UNL     1      29.328  35.185   7.237  1.00  0.00     0.294 C 
BRANCH  64  65
ATOM     65  C   UNL     1      28.836  36.503   6.776  1.00  0.00     0.120 A 
ATOM     66  C   UNL     1      28.583  36.833   5.475  1.00  0.00     0.138 A 
ATOM     67  N   UNL     1      28.571  37.588   7.564  1.00  0.00    -0.132 NA
ATOM     68  N   UNL     1      28.169  38.113   5.493  1.00  0.00    -0.249 N 
ATOM     69  N   UNL     1      28.169  38.541   6.732  1.00  0.00    -0.067 NA
BRANCH  68  70
ATOM     70  C   UNL     1      27.791  38.916   4.350  1.00  0.00     0.180 C 
BRANCH  70  71
ATOM     71  C   UNL     1      27.712  40.370   4.834  1.00  0.00     0.161 C 
BRANCH  71  72
ATOM     72  O   UNL     1      28.474  41.126   3.977  1.00  0.00    -0.389 OA
ATOM     73  H   UNL     1      29.132  41.689   4.453  1.00  0.00     0.211 HD
ENDBRANCH  71  72
BRANCH  71  74
ATOM     74  C   UNL     1      26.271  40.821   4.851  1.00  0.00     0.189 C 
BRANCH  74  75
ATOM     75  O   UNL     1      25.561  40.107   5.790  1.00  0.00    -0.394 OA
ATOM     76  H   UNL     1      26.070  40.083   6.641  1.00  0.00     0.210 HD
ENDBRANCH  74  75
ENDBRANCH  71  74
ENDBRANCH  70  71
ENDBRANCH  68  70
ENDBRANCH  64  65
ENDBRANCH  63  64
ENDBRANCH  60  63
ENDBRANCH  58  59
ENDBRANCH  55  58
ENDBRANCH   1  55
TORSDOF 34
BEGIN_RES LYS A 131
REMARK  4 active torsions:
REMARK  status: ('A' for Active; 'I' for Inactive)
REMARK    1  A    between atoms: CA   and  CB  
REMARK    2  A    between atoms: CB   and  CG  
REMARK    3  A    between atoms: CG   and  CD  
REMARK    4  A    between atoms: CD   and  CE  
ROOT
ATOM      1  CA  LYS A 131      29.867  25.555  16.977  1.00 20.52     0.186 C 
ENDROOT
BRANCH   1   2
ATOM      2  CB  LYS A 131      28.345  25.722  17.026  1.00 20.94     0.034 C 
BRANCH   2   3
ATOM      3  CG  LYS A 131      27.601  24.404  16.875  1.00 22.96     0.005 C 
BRANCH   3   4
ATOM      4  CD  LYS A 131      26.681  24.137  18.034  1.00 24.33     0.041 C 
BRANCH   4   5
ATOM      5  CE  LYS A 131      25.531  23.246  17.576  1.00 26.91     0.338 C 
ATOM      6  NZ  LYS A 131      24.504  24.047  16.870  1.00 27.40     0.618 N 
ENDBRANCH   4   5
ENDBRANCH   3   4
ENDBRANCH   2   3
ENDBRANCH   1   2
END_RES LYS A 131
BEGIN_RES LYS A 135
REMARK  4 active torsions:
REMARK  status: ('A' for Active; 'I' for Inactive)
REMARK    5  A    between atoms: CA   and  CB  
REMARK    6  A    between atoms: CB   and  CG  
REMARK    7  A    between atoms: CG   and  CD  
REMARK    8  A    between atoms: CD   and  CE  
ROOT
ATOM      7  CA  LYS A 135      33.193  34.663   9.290  1.00 25.02     0.186 C 
ENDROOT
BRANCH   7   8
ATOM      8  CB  LYS A 135      32.060  35.360  10.034  1.00 26.63     0.034 C 
BRANCH   8   9
ATOM      9  CG  LYS A 135      32.503  36.044  11.302  1.00 29.45     0.005 C 
BRANCH   9  10
ATOM     10  CD  LYS A 135      31.825  35.421  12.512  1.00 32.00     0.041 C 
BRANCH  10  11
ATOM     11  CE  LYS A 135      32.803  35.297  13.665  1.00 34.25     0.338 C 
ATOM     12  NZ  LYS A 135      32.188  34.579  14.816  1.00 35.99     0.618 N 
ENDBRANCH  10  11
ENDBRANCH   9  10
ENDBRANCH   8   9
ENDBRANCH   7   8
END_RES LYS A 135
