REMARK VINA RESULT:    -4.887      3.569      8.236
REMARK INTER + INTRA:         -23.856
REMARK INTER:                 -11.191
REMARK INTRA:                 -12.665
REMARK UNBOUND:               -10.398
REMARK SMILES CC(=O)N[C@@H]1[C@@H](O)C[C@](OC[C@H]2O[C@@H](O[C@H]3[C@H](O)[C@@H](O)[C@H](OCCN=[N+]=[N-])O[C@@H]3CO)[C@H](O)[C@@H](O)[C@H]2O)(C(=O)O)O[C@H]1C(O)[C@H](O)CNC(=O)OCc1cn([C@@H](CCC(=O)O)C(=O)O)nn1
REMARK SMILES IDX 43 1 42 2 9 3 8 4 41 5 6 6 5 7 10 8 11 9 12 10 14 11 13 12
REMARK SMILES IDX 32 13 34 14 36 15 15 16 16 17 29 18 28 19 21 20 17 21 19 22
REMARK SMILES IDX 30 23 31 24 22 26 23 27 24 28 25 29 26 30 27 31 18 32 20 34
REMARK SMILES IDX 33 36 35 38 37 40 38 42 39 43 40 44 7 46 4 48 2 49 1 51 3 52
REMARK SMILES IDX 44 53 45 55 46 56 47 58 48 59 49 60 50 62 51 63 52 64 53 65
REMARK SMILES IDX 54 66 66 67 55 68 65 69 56 70 57 71 58 72 59 73 60 74 61 75
REMARK SMILES IDX 62 77 63 78 64 79
REMARK H PARENT 31 25 18 33 20 35 33 37 35 39 37 41 40 45 7 47 4 50 44 54
REMARK H PARENT 46 57 48 61 61 76 64 80
REMARK Flexibility Score: inf
ROOT
ATOM      1  C   UNL     1      31.410  27.093  21.811  1.00  0.00     0.176 C 
ENDROOT
BRANCH   1   2
ATOM      2  C   UNL     1      31.063  26.868  23.283  1.00  0.00     0.178 C 
ATOM      3  C   UNL     1      29.256  27.477  24.664  1.00  0.00     0.272 C 
ATOM      4  C   UNL     1      30.080  28.249  25.614  1.00  0.00     0.113 C 
ATOM      5  O   UNL     1      29.901  27.628  23.418  1.00  0.00    -0.332 OA
ATOM      6  C   UNL     1      31.462  28.519  25.085  1.00  0.00     0.145 C 
ATOM      7  C   UNL     1      32.070  27.474  24.219  1.00  0.00     0.142 C 
BRANCH   3   8
ATOM      8  O   UNL     1      28.002  28.032  24.507  1.00  0.00    -0.338 OA
BRANCH   8   9
ATOM      9  C   UNL     1      27.752  29.285  24.233  1.00  0.00     0.199 C 
BRANCH   9  10
ATOM     10  C   UNL     1      26.847  29.740  23.122  1.00  0.00     0.179 C 
ATOM     11  C   UNL     1      26.698  29.119  20.878  1.00  0.00     0.282 C 
ATOM     12  O   UNL     1      27.439  29.665  21.894  1.00  0.00    -0.341 OA
ATOM     13  C   UNL     1      26.322  27.705  21.265  1.00  0.00     0.202 C 
ATOM     14  C   UNL     1      25.418  27.759  22.455  1.00  0.00     0.179 C 
ATOM     15  C   UNL     1      25.496  29.039  23.207  1.00  0.00     0.177 C 
BRANCH  11  16
ATOM     16  O   UNL     1      27.493  29.066  19.730  1.00  0.00    -0.341 OA
BRANCH  16  17
ATOM     17  C   UNL     1      27.545  30.228  19.003  1.00  0.00     0.184 C 
ATOM     18  C   UNL     1      26.150  30.769  18.705  1.00  0.00     0.178 C 
ATOM     19  O   UNL     1      25.963  30.808  17.325  1.00  0.00    -0.341 OA
ATOM     20  C   UNL     1      25.870  29.483  16.816  1.00  0.00     0.281 C 
ATOM     21  C   UNL     1      28.185  29.894  17.670  1.00  0.00     0.180 C 
ATOM     22  C   UNL     1      27.241  28.896  16.967  1.00  0.00     0.202 C 
BRANCH  18  23
ATOM     23  C   UNL     1      26.045  32.196  19.215  1.00  0.00     0.191 C 
BRANCH  23  24
ATOM     24  O   UNL     1      26.857  33.061  18.506  1.00  0.00    -0.394 OA
ATOM     25  H   UNL     1      26.974  32.774  17.563  1.00  0.00     0.210 HD
ENDBRANCH  23  24
ENDBRANCH  18  23
BRANCH  20  26
ATOM     26  O   UNL     1      25.391  29.577  15.542  1.00  0.00    -0.350 OA
BRANCH  26  27
ATOM     27  C   UNL     1      24.030  29.633  15.420  1.00  0.00     0.169 C 
BRANCH  27  28
ATOM     28  C   UNL     1      23.527  29.478  14.000  1.00  0.00     0.119 C 
BRANCH  28  29
ATOM     29  N   UNL     1      24.286  30.278  13.059  1.00  0.00    -0.092 NA
ATOM     30  N   UNL     1      24.329  31.503  13.081  1.00  0.00     0.001 N 
ATOM     31  N   UNL     1      24.455  32.690  13.297  1.00  0.00    -0.003 NA
ENDBRANCH  28  29
ENDBRANCH  27  28
ENDBRANCH  26  27
ENDBRANCH  20  26
BRANCH  21  32
ATOM     32  O   UNL     1      28.386  31.015  16.874  1.00  0.00    -0.387 OA
ATOM     33  H   UNL     1      27.730  31.754  17.076  1.00  0.00     0.211 HD
ENDBRANCH  21  32
BRANCH  22  34
ATOM     34  O   UNL     1      27.129  27.831  17.895  1.00  0.00    -0.385 OA
ATOM     35  H   UNL     1      26.794  27.042  17.397  1.00  0.00     0.211 HD
ENDBRANCH  22  34
ENDBRANCH  16  17
ENDBRANCH  11  16
BRANCH  13  36
ATOM     36  O   UNL     1      25.697  27.054  20.200  1.00  0.00    -0.385 OA
ATOM     37  H   UNL     1      26.303  27.193  19.403  1.00  0.00     0.211 HD
ENDBRANCH  13  36
BRANCH  14  38
ATOM     38  O   UNL     1      25.611  26.675  23.317  1.00  0.00    -0.387 OA
ATOM     39  H   UNL     1      24.889  26.681  24.011  1.00  0.00     0.211 HD
ENDBRANCH  14  38
BRANCH  15  40
ATOM     40  O   UNL     1      25.244  28.735  24.546  1.00  0.00    -0.387 OA
ATOM     41  H   UNL     1      24.410  28.224  24.641  1.00  0.00     0.211 HD
ENDBRANCH  15  40
ENDBRANCH   9  10
ENDBRANCH   8   9
ENDBRANCH   3   8
BRANCH   3  42
ATOM     42  C   UNL     1      29.072  26.052  24.906  1.00  0.00     0.364 C 
ATOM     43  O   UNL     1      28.108  25.460  24.296  1.00  0.00    -0.246 OA
BRANCH  42  44
ATOM     44  O   UNL     1      29.804  25.214  25.725  1.00  0.00    -0.477 OA
ATOM     45  H   UNL     1      29.775  24.225  25.635  1.00  0.00     0.296 HD
ENDBRANCH  42  44
ENDBRANCH   3  42
BRANCH   6  46
ATOM     46  O   UNL     1      31.363  29.686  24.275  1.00  0.00    -0.391 OA
ATOM     47  H   UNL     1      32.009  29.651  23.525  1.00  0.00     0.211 HD
ENDBRANCH   6  46
BRANCH   7  48
ATOM     48  N   UNL     1      32.812  26.599  25.057  1.00  0.00    -0.348 N 
ATOM     49  C   UNL     1      34.103  26.105  24.748  1.00  0.00     0.217 C 
ATOM     50  H   UNL     1      32.441  26.286  25.976  1.00  0.00     0.163 HD
ATOM     51  C   UNL     1      34.831  25.175  25.682  1.00  0.00     0.114 C 
ATOM     52  O   UNL     1      34.661  26.428  23.702  1.00  0.00    -0.275 OA
ENDBRANCH   7  48
ENDBRANCH   1   2
BRANCH   1  53
ATOM     53  O   UNL     1      32.709  27.578  21.715  1.00  0.00    -0.388 OA
ATOM     54  H   UNL     1      33.352  26.821  21.674  1.00  0.00     0.211 HD
ENDBRANCH   1  53
BRANCH   1  55
ATOM     55  C   UNL     1      30.483  27.896  21.025  1.00  0.00     0.165 C 
BRANCH  55  56
ATOM     56  O   UNL     1      29.661  27.009  20.266  1.00  0.00    -0.388 OA
ATOM     57  H   UNL     1      29.648  27.339  19.337  1.00  0.00     0.211 HD
ENDBRANCH  55  56
BRANCH  55  58
ATOM     58  C   UNL     1      31.049  28.849  20.015  1.00  0.00     0.154 C 
BRANCH  58  59
ATOM     59  N   UNL     1      30.689  30.225  20.263  1.00  0.00    -0.319 N 
ATOM     60  C   UNL     1      31.438  31.099  21.106  1.00  0.00     0.407 C 
ATOM     61  H   UNL     1      29.839  30.609  19.822  1.00  0.00     0.167 HD
ATOM     62  O   UNL     1      32.455  30.707  21.677  1.00  0.00    -0.225 OA
BRANCH  60  63
ATOM     63  O   UNL     1      30.989  32.387  21.264  1.00  0.00    -0.443 OA
BRANCH  63  64
ATOM     64  C   UNL     1      31.551  33.492  20.618  1.00  0.00     0.294 C 
BRANCH  64  65
ATOM     65  C   UNL     1      31.053  33.561  19.222  1.00  0.00     0.120 A 
ATOM     66  C   UNL     1      31.695  34.011  18.088  1.00  0.00     0.139 A 
ATOM     67  N   UNL     1      29.810  33.193  18.810  1.00  0.00    -0.132 NA
ATOM     68  N   UNL     1      30.841  33.908  17.029  1.00  0.00    -0.238 N 
ATOM     69  N   UNL     1      29.705  33.405  17.515  1.00  0.00    -0.066 NA
BRANCH  68  70
ATOM     70  C   UNL     1      31.122  34.244  15.681  1.00  0.00     0.219 C 
BRANCH  70  71
ATOM     71  C   UNL     1      32.531  34.295  15.218  1.00  0.00     0.051 C 
BRANCH  71  72
ATOM     72  C   UNL     1      33.136  35.584  14.845  1.00  0.00     0.125 C 
BRANCH  72  73
ATOM     73  C   UNL     1      32.669  36.806  15.466  1.00  0.00     0.303 C 
ATOM     74  O   UNL     1      32.788  37.173  16.648  1.00  0.00    -0.252 OA
BRANCH  73  75
ATOM     75  O   UNL     1      31.968  37.758  14.659  1.00  0.00    -0.481 OA
ATOM     76  H   UNL     1      30.984  37.623  14.490  1.00  0.00     0.296 HD
ENDBRANCH  73  75
ENDBRANCH  72  73
ENDBRANCH  71  72
ENDBRANCH  70  71
BRANCH  70  77
ATOM     77  C   UNL     1      30.373  33.302  14.791  1.00  0.00     0.328 C 
ATOM     78  O   UNL     1      29.669  33.738  13.860  1.00  0.00    -0.250 OA
BRANCH  77  79
ATOM     79  O   UNL     1      30.431  31.931  14.965  1.00  0.00    -0.480 OA
ATOM     80  H   UNL     1      29.596  31.380  15.170  1.00  0.00     0.296 HD
ENDBRANCH  77  79
ENDBRANCH  70  77
ENDBRANCH  68  70
ENDBRANCH  64  65
ENDBRANCH  63  64
ENDBRANCH  60  63
ENDBRANCH  58  59
ENDBRANCH  55  58
ENDBRANCH   1  55
TORSDOF 36
BEGIN_RES LYS A 131
REMARK  4 active torsions:
REMARK  status: ('A' for Active; 'I' for Inactive)
REMARK    1  A    between atoms: CA   and  CB  
REMARK    2  A    between atoms: CB   and  CG  
REMARK    3  A    between atoms: CG   and  CD  
REMARK    4  A    between atoms: CD   and  CE  
ROOT
ATOM      1  CA  LYS A 131      29.867  25.555  16.977  1.00 20.52     0.186 C 
ENDROOT
BRANCH   1   2
ATOM      2  CB  LYS A 131      28.345  25.722  17.026  1.00 20.94     0.034 C 
BRANCH   2   3
ATOM      3  CG  LYS A 131      27.599  24.463  16.611  1.00 22.96     0.005 C 
BRANCH   3   4
ATOM      4  CD  LYS A 131      27.032  23.725  17.792  1.00 24.33     0.041 C 
BRANCH   4   5
ATOM      5  CE  LYS A 131      25.675  24.316  18.158  1.00 26.91     0.338 C 
ATOM      6  NZ  LYS A 131      24.758  24.271  16.994  1.00 27.40     0.618 N 
ENDBRANCH   4   5
ENDBRANCH   3   4
ENDBRANCH   2   3
ENDBRANCH   1   2
END_RES LYS A 131
BEGIN_RES LYS A 135
REMARK  4 active torsions:
REMARK  status: ('A' for Active; 'I' for Inactive)
REMARK    5  A    between atoms: CA   and  CB  
REMARK    6  A    between atoms: CB   and  CG  
REMARK    7  A    between atoms: CG   and  CD  
REMARK    8  A    between atoms: CD   and  CE  
ROOT
ATOM      7  CA  LYS A 135      33.193  34.663   9.290  1.00 25.02     0.186 C 
ENDROOT
BRANCH   7   8
ATOM      8  CB  LYS A 135      32.060  35.360  10.034  1.00 26.63     0.034 C 
BRANCH   8   9
ATOM      9  CG  LYS A 135      30.718  34.701   9.843  1.00 29.45     0.005 C 
BRANCH   9  10
ATOM     10  CD  LYS A 135      30.441  34.467   8.366  1.00 32.00     0.041 C 
BRANCH  10  11
ATOM     11  CE  LYS A 135      29.002  34.810   8.033  1.00 34.25     0.338 C 
ATOM     12  NZ  LYS A 135      28.908  35.528   6.732  1.00 35.99     0.618 N 
ENDBRANCH  10  11
ENDBRANCH   9  10
ENDBRANCH   8   9
ENDBRANCH   7   8
END_RES LYS A 135
