REMARK VINA RESULT:    -5.172      3.241      8.748
REMARK INTER + INTRA:         -22.477
REMARK INTER:                 -13.033
REMARK INTRA:                  -9.445
REMARK UNBOUND:                -9.445
REMARK SMILES CC(=O)N[C@@H]1[C@@H](O)C[C@](OC[C@H]2O[C@@H](O[C@H]3[C@H](O)[C@@H](O)[C@H](OCCN=[N+]=[N-])O[C@@H]3CO)[C@H](O)[C@@H](O)[C@H]2O)(C(=O)O)O[C@H]1C(O)[C@H](O)CNC(=O)OCc1cn(Cc2cccc(Br)c2)nn1
REMARK SMILES IDX 9 1 8 2 6 3 5 4 42 5 41 6 10 7 11 8 12 9 14 10 13 11 32 12
REMARK SMILES IDX 34 13 36 14 15 15 16 16 29 17 28 18 21 19 17 20 19 21 30 22
REMARK SMILES IDX 31 23 22 25 23 26 24 27 25 28 26 29 27 30 18 31 20 33 33 35
REMARK SMILES IDX 35 37 37 39 38 41 39 42 40 43 7 45 43 47 44 48 45 50 46 51
REMARK SMILES IDX 47 53 48 54 49 55 50 57 51 58 52 59 53 60 54 61 65 62 55 63
REMARK SMILES IDX 64 64 56 65 57 66 58 67 63 68 59 69 61 70 60 71 62 72 4 73
REMARK SMILES IDX 2 74 1 76 3 77
REMARK H PARENT 31 24 18 32 20 34 33 36 35 38 37 40 40 44 7 46 44 49 46 52
REMARK H PARENT 48 56 4 75
REMARK Flexibility Score: inf
ROOT
ATOM      1  C   UNL     1      24.522  37.350   8.608  1.00  0.00     0.272 C 
ATOM      2  C   UNL     1      24.333  38.820   8.592  1.00  0.00     0.113 C 
ATOM      3  C   UNL     1      25.107  39.546   7.539  1.00  0.00     0.145 C 
ATOM      4  C   UNL     1      26.434  38.893   7.226  1.00  0.00     0.142 C 
ATOM      5  C   UNL     1      26.466  37.444   7.426  1.00  0.00     0.178 C 
ATOM      6  O   UNL     1      25.274  36.814   7.600  1.00  0.00    -0.332 OA
ENDROOT
BRANCH   1   7
ATOM      7  O   UNL     1      23.236  36.723   8.624  1.00  0.00    -0.338 OA
BRANCH   7   8
ATOM      8  C   UNL     1      22.450  37.109   7.578  1.00  0.00     0.199 C 
BRANCH   8   9
ATOM      9  C   UNL     1      21.099  36.363   7.613  1.00  0.00     0.179 C 
ATOM     10  C   UNL     1      19.987  34.917   9.081  1.00  0.00     0.282 C 
ATOM     11  O   UNL     1      21.209  35.444   8.604  1.00  0.00    -0.341 OA
ATOM     12  C   UNL     1      18.853  35.232   8.188  1.00  0.00     0.202 C 
ATOM     13  C   UNL     1      18.712  36.717   7.905  1.00  0.00     0.179 C 
ATOM     14  C   UNL     1      20.065  37.401   7.993  1.00  0.00     0.177 C 
BRANCH  10  15
ATOM     15  O   UNL     1      19.921  35.358  10.380  1.00  0.00    -0.341 OA
BRANCH  15  16
ATOM     16  C   UNL     1      20.941  35.033  11.198  1.00  0.00     0.184 C 
ATOM     17  C   UNL     1      20.419  34.182  12.327  1.00  0.00     0.178 C 
ATOM     18  O   UNL     1      21.500  33.707  13.066  1.00  0.00    -0.341 OA
ATOM     19  C   UNL     1      22.207  34.717  13.723  1.00  0.00     0.281 C 
ATOM     20  C   UNL     1      21.580  36.228  11.900  1.00  0.00     0.180 C 
ATOM     21  C   UNL     1      22.772  35.629  12.660  1.00  0.00     0.202 C 
BRANCH  17  22
ATOM     22  C   UNL     1      19.696  33.004  11.766  1.00  0.00     0.191 C 
BRANCH  22  23
ATOM     23  O   UNL     1      20.410  31.838  11.975  1.00  0.00    -0.394 OA
ATOM     24  H   UNL     1      21.269  32.083  12.406  1.00  0.00     0.210 HD
ENDBRANCH  22  23
ENDBRANCH  17  22
BRANCH  19  25
ATOM     25  O   UNL     1      23.180  34.082  14.466  1.00  0.00    -0.350 OA
BRANCH  25  26
ATOM     26  C   UNL     1      24.262  33.636  13.759  1.00  0.00     0.169 C 
BRANCH  26  27
ATOM     27  C   UNL     1      24.823  32.317  14.238  1.00  0.00     0.119 C 
BRANCH  27  28
ATOM     28  N   UNL     1      23.758  31.628  14.932  1.00  0.00    -0.092 NA
ATOM     29  N   UNL     1      23.807  30.457  15.279  1.00  0.00     0.001 N 
ATOM     30  N   UNL     1      24.007  29.322  15.705  1.00  0.00    -0.003 NA
ENDBRANCH  27  28
ENDBRANCH  26  27
ENDBRANCH  25  26
ENDBRANCH  19  25
BRANCH  20  31
ATOM     31  O   UNL     1      22.069  37.176  11.048  1.00  0.00    -0.387 OA
ATOM     32  H   UNL     1      23.007  37.058  10.780  1.00  0.00     0.211 HD
ENDBRANCH  20  31
BRANCH  21  33
ATOM     33  O   UNL     1      23.506  36.678  13.146  1.00  0.00    -0.385 OA
ATOM     34  H   UNL     1      23.744  36.567  14.122  1.00  0.00     0.211 HD
ENDBRANCH  21  33
ENDBRANCH  15  16
ENDBRANCH  10  15
BRANCH  12  35
ATOM     35  O   UNL     1      19.096  34.577   6.953  1.00  0.00    -0.385 OA
ATOM     36  H   UNL     1      19.671  33.785   7.114  1.00  0.00     0.211 HD
ENDBRANCH  12  35
BRANCH  13  37
ATOM     37  O   UNL     1      17.749  37.322   8.707  1.00  0.00    -0.387 OA
ATOM     38  H   UNL     1      18.098  37.348   9.656  1.00  0.00     0.211 HD
ENDBRANCH  13  37
BRANCH  14  39
ATOM     39  O   UNL     1      20.366  37.876   9.248  1.00  0.00    -0.387 OA
ATOM     40  H   UNL     1      19.998  38.804   9.370  1.00  0.00     0.211 HD
ENDBRANCH  14  39
ENDBRANCH   8   9
ENDBRANCH   7   8
ENDBRANCH   1   7
BRANCH   1  41
ATOM     41  C   UNL     1      25.119  36.951   9.917  1.00  0.00     0.364 C 
ATOM     42  O   UNL     1      25.236  37.832  10.840  1.00  0.00    -0.246 OA
BRANCH  41  43
ATOM     43  O   UNL     1      25.574  35.704  10.245  1.00  0.00    -0.477 OA
ATOM     44  H   UNL     1      25.063  34.894   9.867  1.00  0.00     0.296 HD
ENDBRANCH  41  43
ENDBRANCH   1  41
BRANCH   3  45
ATOM     45  O   UNL     1      24.338  39.784   6.409  1.00  0.00    -0.391 OA
ATOM     46  H   UNL     1      23.423  39.431   6.467  1.00  0.00     0.211 HD
ENDBRANCH   3  45
BRANCH   5  47
ATOM     47  C   UNL     1      27.266  36.712   6.336  1.00  0.00     0.176 C 
BRANCH  47  48
ATOM     48  O   UNL     1      28.295  37.657   5.935  1.00  0.00    -0.388 OA
ATOM     49  H   UNL     1      28.634  38.060   6.774  1.00  0.00     0.211 HD
ENDBRANCH  47  48
BRANCH  47  50
ATOM     50  C   UNL     1      27.978  35.491   6.789  1.00  0.00     0.165 C 
BRANCH  50  51
ATOM     51  O   UNL     1      27.282  35.097   7.993  1.00  0.00    -0.388 OA
ATOM     52  H   UNL     1      27.818  35.442   8.771  1.00  0.00     0.211 HD
ENDBRANCH  50  51
BRANCH  50  53
ATOM     53  C   UNL     1      29.393  35.632   7.238  1.00  0.00     0.154 C 
BRANCH  53  54
ATOM     54  N   UNL     1      29.533  36.009   8.636  1.00  0.00    -0.319 N 
ATOM     55  C   UNL     1      29.959  37.322   8.955  1.00  0.00     0.407 C 
ATOM     56  H   UNL     1      29.329  35.345   9.403  1.00  0.00     0.167 HD
ATOM     57  O   UNL     1      30.217  38.147   8.033  1.00  0.00    -0.225 OA
BRANCH  55  58
ATOM     58  O   UNL     1      30.101  37.735  10.280  1.00  0.00    -0.443 OA
BRANCH  58  59
ATOM     59  C   UNL     1      28.912  38.008  11.035  1.00  0.00     0.294 C 
BRANCH  59  60
ATOM     60  C   UNL     1      28.541  36.781  11.776  1.00  0.00     0.120 A 
ATOM     61  C   UNL     1      28.465  36.593  13.134  1.00  0.00     0.138 A 
ATOM     62  N   UNL     1      28.208  35.619  11.200  1.00  0.00    -0.132 NA
ATOM     63  N   UNL     1      28.086  35.316  13.336  1.00  0.00    -0.248 N 
ATOM     64  N   UNL     1      27.938  34.746  12.150  1.00  0.00    -0.067 NA
BRANCH  63  65
ATOM     65  C   UNL     1      27.885  34.700  14.644  1.00  0.00     0.181 C 
BRANCH  65  66
ATOM     66  C   UNL     1      29.167  34.209  15.212  1.00  0.00    -0.025 A 
ATOM     67  C   UNL     1      29.801  33.111  14.670  1.00  0.00     0.006 A 
ATOM     68  C   UNL     1      29.780  34.803  16.288  1.00  0.00     0.021 A 
ATOM     69  C   UNL     1      30.987  32.605  15.152  1.00  0.00     0.002 A 
ATOM     70  C   UNL     1      30.966  34.324  16.795  1.00  0.00     0.018 A 
ATOM     71  C   UNL     1      31.591  33.232  16.251  1.00  0.00     0.016 A 
ATOM     72  Br  UNL     1      31.824  35.150  18.294  1.00  0.00    -0.051 Br
ENDBRANCH  65  66
ENDBRANCH  63  65
ENDBRANCH  59  60
ENDBRANCH  58  59
ENDBRANCH  55  58
ENDBRANCH  53  54
ENDBRANCH  50  53
ENDBRANCH  47  50
ENDBRANCH   5  47
BRANCH   4  73
ATOM     73  N   UNL     1      27.499  39.551   8.027  1.00  0.00    -0.348 N 
ATOM     74  C   UNL     1      28.112  40.742   7.567  1.00  0.00     0.217 C 
ATOM     75  H   UNL     1      27.815  39.145   8.944  1.00  0.00     0.163 HD
ATOM     76  C   UNL     1      29.193  41.426   8.361  1.00  0.00     0.114 C 
ATOM     77  O   UNL     1      27.734  41.230   6.469  1.00  0.00    -0.275 OA
ENDBRANCH   4  73
TORSDOF 31
BEGIN_RES LYS A 131
REMARK  4 active torsions:
REMARK  status: ('A' for Active; 'I' for Inactive)
REMARK    1  A    between atoms: CA   and  CB  
REMARK    2  A    between atoms: CB   and  CG  
REMARK    3  A    between atoms: CG   and  CD  
REMARK    4  A    between atoms: CD   and  CE  
ROOT
ATOM      1  CA  LYS A 131      29.867  25.555  16.977  1.00 20.52     0.186 C 
ENDROOT
BRANCH   1   2
ATOM      2  CB  LYS A 131      28.345  25.722  17.026  1.00 20.94     0.034 C 
BRANCH   2   3
ATOM      3  CG  LYS A 131      27.602  24.397  16.942  1.00 22.96     0.005 C 
BRANCH   3   4
ATOM      4  CD  LYS A 131      26.142  24.545  17.270  1.00 24.33     0.041 C 
BRANCH   4   5
ATOM      5  CE  LYS A 131      25.958  24.542  18.784  1.00 26.91     0.338 C 
ATOM      6  NZ  LYS A 131      25.558  23.195  19.255  1.00 27.40     0.618 N 
ENDBRANCH   4   5
ENDBRANCH   3   4
ENDBRANCH   2   3
ENDBRANCH   1   2
END_RES LYS A 131
BEGIN_RES LYS A 135
REMARK  4 active torsions:
REMARK  status: ('A' for Active; 'I' for Inactive)
REMARK    5  A    between atoms: CA   and  CB  
REMARK    6  A    between atoms: CB   and  CG  
REMARK    7  A    between atoms: CG   and  CD  
REMARK    8  A    between atoms: CD   and  CE  
ROOT
ATOM      7  CA  LYS A 135      33.193  34.663   9.290  1.00 25.02     0.186 C 
ENDROOT
BRANCH   7   8
ATOM      8  CB  LYS A 135      32.060  35.360  10.034  1.00 26.63     0.034 C 
BRANCH   8   9
ATOM      9  CG  LYS A 135      32.504  36.052  11.297  1.00 29.45     0.005 C 
BRANCH   9  10
ATOM     10  CD  LYS A 135      31.852  35.417  12.515  1.00 32.00     0.041 C 
BRANCH  10  11
ATOM     11  CE  LYS A 135      32.657  35.713  13.765  1.00 34.25     0.338 C 
ATOM     12  NZ  LYS A 135      32.101  36.885  14.497  1.00 35.99     0.618 N 
ENDBRANCH  10  11
ENDBRANCH   9  10
ENDBRANCH   8   9
ENDBRANCH   7   8
END_RES LYS A 135
