REMARK VINA RESULT:    -5.714      0.000      0.000
REMARK INTER + INTRA:         -24.387
REMARK INTER:                 -13.508
REMARK INTRA:                 -10.879
REMARK UNBOUND:                -9.487
REMARK SMILES CC(=O)N[C@@H]1[C@@H](O)C[C@](OC[C@H]2O[C@@H](O[C@H]3[C@H](O)[C@@H](O)[C@H](OCCN=[N+]=[N-])O[C@@H]3CO)[C@H](O)[C@@H](O)[C@H]2O)(C(=O)O)O[C@H]1C(O)[C@H](O)CNC(=O)OCc1cn(Cc2ccc(C(=O)O)cc2)nn1
REMARK SMILES IDX 43 1 42 2 9 3 8 4 41 5 6 6 5 7 10 8 11 9 12 10 14 11 13 12
REMARK SMILES IDX 32 13 34 14 36 15 15 16 16 17 29 18 28 19 21 20 17 21 19 22
REMARK SMILES IDX 30 23 31 24 22 26 23 27 24 28 25 29 26 30 27 31 18 32 20 34
REMARK SMILES IDX 33 36 35 38 37 40 38 42 39 43 40 44 7 46 4 48 2 49 1 51 3 52
REMARK SMILES IDX 44 53 45 55 46 56 47 58 48 59 49 60 50 62 51 63 52 64 53 65
REMARK SMILES IDX 54 66 67 67 55 68 66 69 56 70 57 71 58 72 65 73 59 74 64 75
REMARK SMILES IDX 60 76 61 77 62 78 63 79
REMARK H PARENT 31 25 18 33 20 35 33 37 35 39 37 41 40 45 7 47 4 50 44 54
REMARK H PARENT 46 57 48 61 63 80
REMARK Flexibility Score: inf
ROOT
ATOM      1  C   UNL     1      26.962  36.280  10.391  1.00  0.00     0.176 C 
ENDROOT
BRANCH   1   2
ATOM      2  C   UNL     1      26.658  36.667   8.928  1.00  0.00     0.178 C 
ATOM      3  C   UNL     1      28.003  37.707   7.281  1.00  0.00     0.272 C 
ATOM      4  C   UNL     1      26.982  38.768   7.174  1.00  0.00     0.113 C 
ATOM      5  O   UNL     1      27.854  36.867   8.355  1.00  0.00    -0.332 OA
ATOM      6  C   UNL     1      26.286  39.066   8.486  1.00  0.00     0.145 C 
ATOM      7  C   UNL     1      25.686  37.775   8.958  1.00  0.00     0.142 C 
BRANCH   3   8
ATOM      8  O   UNL     1      29.264  38.229   7.398  1.00  0.00    -0.338 OA
BRANCH   8   9
ATOM      9  C   UNL     1      29.725  39.099   6.475  1.00  0.00     0.199 C 
BRANCH   9  10
ATOM     10  C   UNL     1      30.526  40.230   7.165  1.00  0.00     0.179 C 
ATOM     11  C   UNL     1      30.801  41.234   9.249  1.00  0.00     0.282 C 
ATOM     12  O   UNL     1      30.051  40.388   8.434  1.00  0.00    -0.341 OA
ATOM     13  C   UNL     1      31.859  41.995   8.532  1.00  0.00     0.202 C 
ATOM     14  C   UNL     1      32.752  41.004   7.816  1.00  0.00     0.179 C 
ATOM     15  C   UNL     1      31.998  39.913   7.123  1.00  0.00     0.177 C 
BRANCH  11  16
ATOM     16  O   UNL     1      31.348  40.464  10.276  1.00  0.00    -0.341 OA
BRANCH  16  17
ATOM     17  C   UNL     1      30.416  40.123  11.212  1.00  0.00     0.184 C 
ATOM     18  C   UNL     1      30.767  40.594  12.575  1.00  0.00     0.178 C 
ATOM     19  O   UNL     1      29.677  40.466  13.448  1.00  0.00    -0.341 OA
ATOM     20  C   UNL     1      29.020  39.249  13.252  1.00  0.00     0.281 C 
ATOM     21  C   UNL     1      30.342  38.584  11.209  1.00  0.00     0.180 C 
ATOM     22  C   UNL     1      29.864  38.199  12.594  1.00  0.00     0.202 C 
BRANCH  18  23
ATOM     23  C   UNL     1      31.170  42.041  12.553  1.00  0.00     0.191 C 
BRANCH  23  24
ATOM     24  O   UNL     1      32.579  42.045  12.431  1.00  0.00    -0.394 OA
ATOM     25  H   UNL     1      32.956  41.235  12.825  1.00  0.00     0.210 HD
ENDBRANCH  23  24
ENDBRANCH  18  23
BRANCH  20  26
ATOM     26  O   UNL     1      27.845  39.478  12.575  1.00  0.00    -0.350 OA
BRANCH  26  27
ATOM     27  C   UNL     1      27.091  40.528  13.047  1.00  0.00     0.169 C 
BRANCH  27  28
ATOM     28  C   UNL     1      25.620  40.289  13.109  1.00  0.00     0.119 C 
BRANCH  28  29
ATOM     29  N   UNL     1      25.212  39.837  11.769  1.00  0.00    -0.092 NA
ATOM     30  N   UNL     1      24.107  40.083  11.298  1.00  0.00     0.001 N 
ATOM     31  N   UNL     1      22.924  40.338  11.103  1.00  0.00    -0.003 NA
ENDBRANCH  28  29
ENDBRANCH  27  28
ENDBRANCH  26  27
ENDBRANCH  20  26
BRANCH  21  32
ATOM     32  O   UNL     1      29.478  38.147  10.229  1.00  0.00    -0.387 OA
ATOM     33  H   UNL     1      28.829  37.459  10.586  1.00  0.00     0.211 HD
ENDBRANCH  21  32
BRANCH  22  34
ATOM     34  O   UNL     1      30.939  37.833  13.370  1.00  0.00    -0.385 OA
ATOM     35  H   UNL     1      31.238  38.546  13.962  1.00  0.00     0.211 HD
ENDBRANCH  22  34
ENDBRANCH  16  17
ENDBRANCH  11  16
BRANCH  13  36
ATOM     36  O   UNL     1      31.316  42.906   7.613  1.00  0.00    -0.385 OA
ATOM     37  H   UNL     1      31.125  43.735   8.131  1.00  0.00     0.211 HD
ENDBRANCH  13  36
BRANCH  14  38
ATOM     38  O   UNL     1      33.686  40.441   8.686  1.00  0.00    -0.387 OA
ATOM     39  H   UNL     1      33.606  39.448   8.621  1.00  0.00     0.211 HD
ENDBRANCH  14  38
BRANCH  15  40
ATOM     40  O   UNL     1      32.270  38.651   7.670  1.00  0.00    -0.387 OA
ATOM     41  H   UNL     1      32.905  38.792   8.420  1.00  0.00     0.211 HD
ENDBRANCH  15  40
ENDBRANCH   9  10
ENDBRANCH   8   9
ENDBRANCH   3   8
BRANCH   3  42
ATOM     42  C   UNL     1      27.898  36.826   6.060  1.00  0.00     0.364 C 
ATOM     43  O   UNL     1      28.437  35.691   6.040  1.00  0.00    -0.246 OA
BRANCH  42  44
ATOM     44  O   UNL     1      27.210  37.230   4.928  1.00  0.00    -0.477 OA
ATOM     45  H   UNL     1      27.643  37.018   4.016  1.00  0.00     0.296 HD
ENDBRANCH  42  44
ENDBRANCH   3  42
BRANCH   6  46
ATOM     46  O   UNL     1      27.223  39.602   9.343  1.00  0.00    -0.391 OA
ATOM     47  H   UNL     1      27.755  40.294   8.869  1.00  0.00     0.211 HD
ENDBRANCH   6  46
BRANCH   7  48
ATOM     48  N   UNL     1      24.556  37.454   8.096  1.00  0.00    -0.348 N 
ATOM     49  C   UNL     1      23.272  37.108   8.645  1.00  0.00     0.217 C 
ATOM     50  H   UNL     1      24.596  37.450   7.054  1.00  0.00     0.163 HD
ATOM     51  C   UNL     1      22.137  36.786   7.725  1.00  0.00     0.114 C 
ATOM     52  O   UNL     1      23.140  37.087   9.879  1.00  0.00    -0.275 OA
ENDBRANCH   7  48
ENDBRANCH   1   2
BRANCH   1  53
ATOM     53  O   UNL     1      26.506  37.173  11.305  1.00  0.00    -0.388 OA
ATOM     54  H   UNL     1      26.824  37.063  12.228  1.00  0.00     0.211 HD
ENDBRANCH   1  53
BRANCH   1  55
ATOM     55  C   UNL     1      26.550  34.855  10.677  1.00  0.00     0.165 C 
BRANCH  55  56
ATOM     56  O   UNL     1      26.583  34.136   9.524  1.00  0.00    -0.388 OA
ATOM     57  H   UNL     1      26.252  33.218   9.575  1.00  0.00     0.211 HD
ENDBRANCH  55  56
BRANCH  55  58
ATOM     58  C   UNL     1      25.315  34.834  11.491  1.00  0.00     0.154 C 
BRANCH  58  59
ATOM     59  N   UNL     1      25.529  34.277  12.798  1.00  0.00    -0.319 N 
ATOM     60  C   UNL     1      25.698  35.044  13.972  1.00  0.00     0.407 C 
ATOM     61  H   UNL     1      25.570  33.227  12.917  1.00  0.00     0.167 HD
ATOM     62  O   UNL     1      25.670  36.284  13.960  1.00  0.00    -0.225 OA
BRANCH  60  63
ATOM     63  O   UNL     1      25.905  34.461  15.238  1.00  0.00    -0.443 OA
BRANCH  63  64
ATOM     64  C   UNL     1      25.625  33.087  15.434  1.00  0.00     0.294 C 
BRANCH  64  65
ATOM     65  C   UNL     1      26.732  32.367  16.087  1.00  0.00     0.120 A 
ATOM     66  C   UNL     1      28.055  32.302  15.747  1.00  0.00     0.138 A 
ATOM     67  N   UNL     1      26.583  31.599  17.183  1.00  0.00    -0.132 NA
ATOM     68  N   UNL     1      28.670  31.497  16.642  1.00  0.00    -0.248 N 
ATOM     69  N   UNL     1      27.756  31.084  17.501  1.00  0.00    -0.067 NA
BRANCH  68  70
ATOM     70  C   UNL     1      30.072  31.167  16.625  1.00  0.00     0.181 C 
BRANCH  70  71
ATOM     71  C   UNL     1      30.893  32.385  16.476  1.00  0.00    -0.026 A 
ATOM     72  C   UNL     1      31.071  33.230  17.550  1.00  0.00     0.006 A 
ATOM     73  C   UNL     1      31.473  32.696  15.249  1.00  0.00     0.006 A 
ATOM     74  C   UNL     1      31.836  34.364  17.337  1.00  0.00     0.016 A 
ATOM     75  C   UNL     1      32.231  33.826  15.043  1.00  0.00     0.016 A 
ATOM     76  C   UNL     1      32.408  34.667  16.117  1.00  0.00     0.059 A 
BRANCH  76  77
ATOM     77  C   UNL     1      33.197  35.879  15.958  1.00  0.00     0.335 C 
ATOM     78  O   UNL     1      32.691  36.892  15.457  1.00  0.00    -0.246 OA
BRANCH  77  79
ATOM     79  O   UNL     1      34.512  35.896  16.365  1.00  0.00    -0.478 OA
ATOM     80  H   UNL     1      34.982  36.754  16.650  1.00  0.00     0.297 HD
ENDBRANCH  77  79
ENDBRANCH  76  77
ENDBRANCH  70  71
ENDBRANCH  68  70
ENDBRANCH  64  65
ENDBRANCH  63  64
ENDBRANCH  60  63
ENDBRANCH  58  59
ENDBRANCH  55  58
ENDBRANCH   1  55
TORSDOF 33
BEGIN_RES LYS A 131
REMARK  4 active torsions:
REMARK  status: ('A' for Active; 'I' for Inactive)
REMARK    1  A    between atoms: CA   and  CB  
REMARK    2  A    between atoms: CB   and  CG  
REMARK    3  A    between atoms: CG   and  CD  
REMARK    4  A    between atoms: CD   and  CE  
ROOT
ATOM      1  CA  LYS A 131      29.867  25.555  16.977  1.00 20.52     0.186 C 
ENDROOT
BRANCH   1   2
ATOM      2  CB  LYS A 131      28.345  25.722  17.026  1.00 20.94     0.034 C 
BRANCH   2   3
ATOM      3  CG  LYS A 131      27.601  24.401  16.899  1.00 22.96     0.005 C 
BRANCH   3   4
ATOM      4  CD  LYS A 131      26.614  24.197  18.015  1.00 24.33     0.041 C 
BRANCH   4   5
ATOM      5  CE  LYS A 131      25.305  24.901  17.671  1.00 26.91     0.338 C 
ATOM      6  NZ  LYS A 131      24.436  24.015  16.862  1.00 27.40     0.618 N 
ENDBRANCH   4   5
ENDBRANCH   3   4
ENDBRANCH   2   3
ENDBRANCH   1   2
END_RES LYS A 131
BEGIN_RES LYS A 135
REMARK  4 active torsions:
REMARK  status: ('A' for Active; 'I' for Inactive)
REMARK    5  A    between atoms: CA   and  CB  
REMARK    6  A    between atoms: CB   and  CG  
REMARK    7  A    between atoms: CG   and  CD  
REMARK    8  A    between atoms: CD   and  CE  
ROOT
ATOM      7  CA  LYS A 135      33.193  34.663   9.290  1.00 25.02     0.186 C 
ENDROOT
BRANCH   7   8
ATOM      8  CB  LYS A 135      32.060  35.360  10.034  1.00 26.63     0.034 C 
BRANCH   8   9
ATOM      9  CG  LYS A 135      30.690  34.993   9.525  1.00 29.45     0.005 C 
BRANCH   9  10
ATOM     10  CD  LYS A 135      29.897  34.261  10.597  1.00 32.00     0.041 C 
BRANCH  10  11
ATOM     11  CE  LYS A 135      30.356  34.683  11.980  1.00 34.25     0.338 C 
ATOM     12  NZ  LYS A 135      29.248  34.577  12.969  1.00 35.99     0.618 N 
ENDBRANCH  10  11
ENDBRANCH   9  10
ENDBRANCH   8   9
ENDBRANCH   7   8
END_RES LYS A 135
