REMARK VINA RESULT:    -3.806      5.352     11.337
REMARK INTER + INTRA:         -22.526
REMARK INTER:                 -12.399
REMARK INTRA:                 -10.127
REMARK UNBOUND:               -13.046
REMARK SMILES CC(=O)N[C@@H]1[C@@H](O)C[C@](OC[C@H]2O[C@@H](O[C@H]3[C@H](O)[C@@H](O)[C@H](OCCN=[N+]=[N-])O[C@@H]3CO)[C@H](O)[C@@H](O)[C@H]2O)(C(=O)O)O[C@H]1C(O)[C@H](O)CNC(=O)OCc1cn(-c2nc(C)nc(N)n2)nn1
REMARK SMILES IDX 9 1 8 2 6 3 5 4 42 5 41 6 10 7 11 8 12 9 14 10 13 11 32 12
REMARK SMILES IDX 34 13 36 14 15 15 16 16 29 17 28 18 21 19 17 20 19 21 30 22
REMARK SMILES IDX 31 23 22 25 23 26 24 27 25 28 26 29 27 30 18 31 20 33 33 35
REMARK SMILES IDX 35 37 37 39 38 41 39 42 40 43 7 45 43 47 44 48 45 50 46 51
REMARK SMILES IDX 47 53 48 54 49 55 50 57 51 58 52 59 53 60 54 61 65 62 55 63
REMARK SMILES IDX 64 64 56 65 63 66 57 67 61 68 58 69 60 70 59 71 62 72 4 75
REMARK SMILES IDX 2 76 1 78 3 79
REMARK H PARENT 31 24 18 32 20 34 33 36 35 38 37 40 40 44 7 46 44 49 46 52
REMARK H PARENT 48 56 62 73 62 74 4 77
REMARK Flexibility Score: inf
ROOT
ATOM      1  C   UNL     1      28.994  38.614   6.830  1.00  0.00     0.272 C 
ATOM      2  C   UNL     1      30.041  37.978   7.678  1.00  0.00     0.113 C 
ATOM      3  C   UNL     1      30.844  39.002   8.419  1.00  0.00     0.145 C 
ATOM      4  C   UNL     1      31.436  39.964   7.422  1.00  0.00     0.142 C 
ATOM      5  C   UNL     1      30.443  40.422   6.380  1.00  0.00     0.178 C 
ATOM      6  O   UNL     1      29.652  39.454   5.891  1.00  0.00    -0.332 OA
ENDROOT
BRANCH   1   7
ATOM      7  O   UNL     1      27.959  39.142   7.385  1.00  0.00    -0.338 OA
BRANCH   7   8
ATOM      8  C   UNL     1      27.105  39.005   8.324  1.00  0.00     0.199 C 
BRANCH   8   9
ATOM      9  C   UNL     1      26.731  37.772   9.073  1.00  0.00     0.179 C 
ATOM     10  C   UNL     1      26.199  36.819  11.009  1.00  0.00     0.282 C 
ATOM     11  O   UNL     1      26.261  38.057  10.314  1.00  0.00    -0.341 OA
ATOM     12  C   UNL     1      24.926  36.188  10.505  1.00  0.00     0.202 C 
ATOM     13  C   UNL     1      25.083  35.860   9.040  1.00  0.00     0.179 C 
ATOM     14  C   UNL     1      26.043  36.700   8.293  1.00  0.00     0.177 C 
BRANCH  10  15
ATOM     15  O   UNL     1      26.164  37.007  12.364  1.00  0.00    -0.341 OA
BRANCH  15  16
ATOM     16  C   UNL     1      27.295  36.557  13.024  1.00  0.00     0.184 C 
ATOM     17  C   UNL     1      28.464  36.253  12.149  1.00  0.00     0.178 C 
ATOM     18  O   UNL     1      28.965  34.970  12.327  1.00  0.00    -0.341 OA
ATOM     19  C   UNL     1      29.234  34.640  13.650  1.00  0.00     0.281 C 
ATOM     20  C   UNL     1      26.854  35.261  13.729  1.00  0.00     0.180 C 
ATOM     21  C   UNL     1      28.035  34.783  14.540  1.00  0.00     0.202 C 
BRANCH  17  22
ATOM     22  C   UNL     1      29.564  37.280  12.184  1.00  0.00     0.191 C 
BRANCH  22  23
ATOM     23  O   UNL     1      28.991  38.501  11.765  1.00  0.00    -0.394 OA
ATOM     24  H   UNL     1      29.044  39.197  12.455  1.00  0.00     0.210 HD
ENDBRANCH  22  23
ENDBRANCH  17  22
BRANCH  19  25
ATOM     25  O   UNL     1      30.276  35.343  14.187  1.00  0.00    -0.350 OA
BRANCH  25  26
ATOM     26  C   UNL     1      31.464  34.693  14.340  1.00  0.00     0.169 C 
BRANCH  26  27
ATOM     27  C   UNL     1      31.732  34.248  15.751  1.00  0.00     0.119 C 
BRANCH  27  28
ATOM     28  N   UNL     1      31.753  32.778  15.768  1.00  0.00    -0.092 NA
ATOM     29  N   UNL     1      30.687  32.209  15.545  1.00  0.00     0.001 N 
ATOM     30  N   UNL     1      29.761  31.405  15.788  1.00  0.00    -0.003 NA
ENDBRANCH  27  28
ENDBRANCH  26  27
ENDBRANCH  25  26
ENDBRANCH  19  25
BRANCH  20  31
ATOM     31  O   UNL     1      25.736  35.504  14.498  1.00  0.00    -0.387 OA
ATOM     32  H   UNL     1      24.903  35.230  14.023  1.00  0.00     0.211 HD
ENDBRANCH  20  31
BRANCH  21  33
ATOM     33  O   UNL     1      27.668  33.569  15.121  1.00  0.00    -0.385 OA
ATOM     34  H   UNL     1      26.726  33.345  14.920  1.00  0.00     0.211 HD
ENDBRANCH  21  33
ENDBRANCH  15  16
ENDBRANCH  10  15
BRANCH  12  35
ATOM     35  O   UNL     1      24.557  35.058  11.232  1.00  0.00    -0.385 OA
ATOM     36  H   UNL     1      24.309  34.351  10.585  1.00  0.00     0.211 HD
ENDBRANCH  12  35
BRANCH  13  37
ATOM     37  O   UNL     1      23.799  35.844   8.489  1.00  0.00    -0.387 OA
ATOM     38  H   UNL     1      23.153  36.388   9.005  1.00  0.00     0.211 HD
ENDBRANCH  13  37
BRANCH  14  39
ATOM     39  O   UNL     1      25.479  37.112   7.090  1.00  0.00    -0.387 OA
ATOM     40  H   UNL     1      24.582  37.494   7.328  1.00  0.00     0.211 HD
ENDBRANCH  14  39
ENDBRANCH   8   9
ENDBRANCH   7   8
ENDBRANCH   1   7
BRANCH   1  41
ATOM     41  C   UNL     1      28.586  37.453   5.878  1.00  0.00     0.364 C 
ATOM     42  O   UNL     1      27.693  37.699   5.077  1.00  0.00    -0.246 OA
BRANCH  41  43
ATOM     43  O   UNL     1      29.207  36.247   5.962  1.00  0.00    -0.477 OA
ATOM     44  H   UNL     1      29.771  35.842   5.201  1.00  0.00     0.296 HD
ENDBRANCH  41  43
ENDBRANCH   1  41
BRANCH   3  45
ATOM     45  O   UNL     1      30.120  39.751   9.319  1.00  0.00    -0.391 OA
ATOM     46  H   UNL     1      29.176  39.812   9.091  1.00  0.00     0.211 HD
ENDBRANCH   3  45
BRANCH   5  47
ATOM     47  C   UNL     1      29.728  41.699   6.752  1.00  0.00     0.176 C 
BRANCH  47  48
ATOM     48  O   UNL     1      30.454  42.413   7.689  1.00  0.00    -0.388 OA
ATOM     49  H   UNL     1      30.981  43.152   7.335  1.00  0.00     0.211 HD
ENDBRANCH  47  48
BRANCH  47  50
ATOM     50  C   UNL     1      29.490  42.508   5.516  1.00  0.00     0.165 C 
BRANCH  50  51
ATOM     51  O   UNL     1      29.429  43.867   5.875  1.00  0.00    -0.388 OA
ATOM     52  H   UNL     1      28.574  44.033   6.309  1.00  0.00     0.211 HD
ENDBRANCH  50  51
BRANCH  50  53
ATOM     53  C   UNL     1      28.248  42.175   4.762  1.00  0.00     0.154 C 
BRANCH  53  54
ATOM     54  N   UNL     1      27.216  41.622   5.611  1.00  0.00    -0.319 N 
ATOM     55  C   UNL     1      26.037  41.016   5.137  1.00  0.00     0.407 C 
ATOM     56  H   UNL     1      27.323  41.658   6.668  1.00  0.00     0.167 HD
ATOM     57  O   UNL     1      25.823  40.924   3.924  1.00  0.00    -0.225 OA
BRANCH  55  58
ATOM     58  O   UNL     1      25.073  40.503   5.999  1.00  0.00    -0.443 OA
BRANCH  58  59
ATOM     59  C   UNL     1      24.496  41.231   7.052  1.00  0.00     0.294 C 
BRANCH  59  60
ATOM     60  C   UNL     1      23.271  40.562   7.584  1.00  0.00     0.121 A 
ATOM     61  C   UNL     1      23.130  39.219   7.868  1.00  0.00     0.148 A 
ATOM     62  N   UNL     1      22.090  41.138   7.880  1.00  0.00    -0.131 NA
ATOM     63  N   UNL     1      21.881  39.021   8.322  1.00  0.00    -0.185 N 
ATOM     64  N   UNL     1      21.279  40.192   8.319  1.00  0.00    -0.059 NA
BRANCH  63  65
ATOM     65  C   UNL     1      21.371  37.755   8.718  1.00  0.00     0.257 A 
ATOM     66  N   UNL     1      20.786  36.962   7.800  1.00  0.00    -0.175 NA
ATOM     67  N   UNL     1      21.434  37.279   9.974  1.00  0.00    -0.196 NA
ATOM     68  C   UNL     1      20.282  35.742   8.121  1.00  0.00     0.225 A 
ATOM     69  C   UNL     1      20.950  36.084  10.327  1.00  0.00     0.133 A 
ATOM     70  N   UNL     1      20.377  35.322   9.401  1.00  0.00    -0.198 NA
ATOM     71  C   UNL     1      21.042  35.592  11.747  1.00  0.00     0.090 C 
BRANCH  68  72
ATOM     72  N   UNL     1      19.679  34.949   7.119  1.00  0.00    -0.368 N 
ATOM     73  H   UNL     1      18.957  34.238   7.351  1.00  0.00     0.159 HD
ATOM     74  H   UNL     1      19.947  35.062   6.122  1.00  0.00     0.159 HD
ENDBRANCH  68  72
ENDBRANCH  63  65
ENDBRANCH  59  60
ENDBRANCH  58  59
ENDBRANCH  55  58
ENDBRANCH  53  54
ENDBRANCH  50  53
ENDBRANCH  47  50
ENDBRANCH   5  47
BRANCH   4  75
ATOM     75  N   UNL     1      32.571  39.330   6.784  1.00  0.00    -0.348 N 
ATOM     76  C   UNL     1      33.831  39.989   6.714  1.00  0.00     0.217 C 
ATOM     77  H   UNL     1      32.514  38.373   6.353  1.00  0.00     0.163 HD
ATOM     78  C   UNL     1      34.971  39.331   6.063  1.00  0.00     0.114 C 
ATOM     79  O   UNL     1      33.960  41.129   7.211  1.00  0.00    -0.275 OA
ENDBRANCH   4  75
TORSDOF 31
BEGIN_RES LYS A 131
REMARK  4 active torsions:
REMARK  status: ('A' for Active; 'I' for Inactive)
REMARK    1  A    between atoms: CA   and  CB  
REMARK    2  A    between atoms: CB   and  CG  
REMARK    3  A    between atoms: CG   and  CD  
REMARK    4  A    between atoms: CD   and  CE  
ROOT
ATOM      1  CA  LYS A 131      29.867  25.555  16.977  1.00 20.52     0.186 C 
ENDROOT
BRANCH   1   2
ATOM      2  CB  LYS A 131      28.345  25.722  17.026  1.00 20.94     0.034 C 
BRANCH   2   3
ATOM      3  CG  LYS A 131      27.601  24.402  16.889  1.00 22.96     0.005 C 
BRANCH   3   4
ATOM      4  CD  LYS A 131      26.519  24.252  17.921  1.00 24.33     0.041 C 
BRANCH   4   5
ATOM      5  CE  LYS A 131      25.206  23.890  17.234  1.00 26.91     0.338 C 
ATOM      6  NZ  LYS A 131      24.827  22.491  17.543  1.00 27.40     0.618 N 
ENDBRANCH   4   5
ENDBRANCH   3   4
ENDBRANCH   2   3
ENDBRANCH   1   2
END_RES LYS A 131
BEGIN_RES LYS A 135
REMARK  4 active torsions:
REMARK  status: ('A' for Active; 'I' for Inactive)
REMARK    5  A    between atoms: CA   and  CB  
REMARK    6  A    between atoms: CB   and  CG  
REMARK    7  A    between atoms: CG   and  CD  
REMARK    8  A    between atoms: CD   and  CE  
ROOT
ATOM      7  CA  LYS A 135      33.193  34.663   9.290  1.00 25.02     0.186 C 
ENDROOT
BRANCH   7   8
ATOM      8  CB  LYS A 135      32.060  35.360  10.034  1.00 26.63     0.034 C 
BRANCH   8   9
ATOM      9  CG  LYS A 135      30.780  35.443   9.242  1.00 29.45     0.005 C 
BRANCH   9  10
ATOM     10  CD  LYS A 135      30.166  34.062   9.070  1.00 32.00     0.041 C 
BRANCH  10  11
ATOM     11  CE  LYS A 135      28.721  34.175   8.622  1.00 34.25     0.338 C 
ATOM     12  NZ  LYS A 135      27.797  33.605   9.641  1.00 35.99     0.618 N 
ENDBRANCH  10  11
ENDBRANCH   9  10
ENDBRANCH   8   9
ENDBRANCH   7   8
END_RES LYS A 135
