REMARK VINA RESULT:    -3.525      3.763      8.871
REMARK INTER + INTRA:         -21.825
REMARK INTER:                 -11.996
REMARK INTRA:                  -9.829
REMARK UNBOUND:               -13.046
REMARK SMILES CC(=O)N[C@@H]1[C@@H](O)C[C@](OC[C@H]2O[C@@H](O[C@H]3[C@H](O)[C@@H](O)[C@H](OCCN=[N+]=[N-])O[C@@H]3CO)[C@H](O)[C@@H](O)[C@H]2O)(C(=O)O)O[C@H]1C(O)[C@H](O)CNC(=O)OCc1cn(-c2nc(C)nc(N)n2)nn1
REMARK SMILES IDX 9 1 8 2 6 3 5 4 42 5 41 6 10 7 11 8 12 9 14 10 13 11 32 12
REMARK SMILES IDX 34 13 36 14 15 15 16 16 29 17 28 18 21 19 17 20 19 21 30 22
REMARK SMILES IDX 31 23 22 25 23 26 24 27 25 28 26 29 27 30 18 31 20 33 33 35
REMARK SMILES IDX 35 37 37 39 38 41 39 42 40 43 7 45 43 47 44 48 45 50 46 51
REMARK SMILES IDX 47 53 48 54 49 55 50 57 51 58 52 59 53 60 54 61 65 62 55 63
REMARK SMILES IDX 64 64 56 65 63 66 57 67 61 68 58 69 60 70 59 71 62 72 4 75
REMARK SMILES IDX 2 76 1 78 3 79
REMARK H PARENT 31 24 18 32 20 34 33 36 35 38 37 40 40 44 7 46 44 49 46 52
REMARK H PARENT 48 56 62 73 62 74 4 77
REMARK Flexibility Score: inf
ROOT
ATOM      1  C   UNL     1      24.813  35.629  11.116  1.00  0.00     0.272 C 
ATOM      2  C   UNL     1      23.609  34.950  11.673  1.00  0.00     0.113 C 
ATOM      3  C   UNL     1      23.787  34.615  13.122  1.00  0.00     0.145 C 
ATOM      4  C   UNL     1      25.027  33.773  13.272  1.00  0.00     0.142 C 
ATOM      5  C   UNL     1      26.205  34.307  12.491  1.00  0.00     0.178 C 
ATOM      6  O   UNL     1      25.911  34.737  11.253  1.00  0.00    -0.332 OA
ENDROOT
BRANCH   1   7
ATOM      7  O   UNL     1      25.068  36.845  11.449  1.00  0.00    -0.338 OA
BRANCH   7   8
ATOM      8  C   UNL     1      24.592  38.029  11.491  1.00  0.00     0.199 C 
BRANCH   8   9
ATOM      9  C   UNL     1      24.196  38.916  10.360  1.00  0.00     0.179 C 
ATOM     10  C   UNL     1      24.776  40.004   8.511  1.00  0.00     0.282 C 
ATOM     11  O   UNL     1      25.136  38.940   9.383  1.00  0.00    -0.341 OA
ATOM     12  C   UNL     1      23.683  39.414   7.657  1.00  0.00     0.202 C 
ATOM     13  C   UNL     1      22.479  39.131   8.522  1.00  0.00     0.179 C 
ATOM     14  C   UNL     1      22.760  38.874   9.950  1.00  0.00     0.177 C 
BRANCH  10  15
ATOM     15  O   UNL     1      25.841  40.412   7.754  1.00  0.00    -0.341 OA
BRANCH  15  16
ATOM     16  C   UNL     1      27.029  39.771   8.060  1.00  0.00     0.184 C 
ATOM     17  C   UNL     1      28.014  40.588   8.826  1.00  0.00     0.178 C 
ATOM     18  O   UNL     1      29.263  40.649   8.223  1.00  0.00    -0.341 OA
ATOM     19  C   UNL     1      29.798  39.411   7.888  1.00  0.00     0.281 C 
ATOM     20  C   UNL     1      27.644  39.404   6.697  1.00  0.00     0.180 C 
ATOM     21  C   UNL     1      28.901  38.618   6.984  1.00  0.00     0.202 C 
BRANCH  17  22
ATOM     22  C   UNL     1      28.126  40.238  10.286  1.00  0.00     0.191 C 
BRANCH  22  23
ATOM     23  O   UNL     1      27.774  38.875  10.403  1.00  0.00    -0.394 OA
ATOM     24  H   UNL     1      26.862  38.751  10.743  1.00  0.00     0.210 HD
ENDBRANCH  22  23
ENDBRANCH  17  22
BRANCH  19  25
ATOM     25  O   UNL     1      30.130  38.648   8.972  1.00  0.00    -0.350 OA
BRANCH  25  26
ATOM     26  C   UNL     1      31.441  38.307   9.125  1.00  0.00     0.169 C 
BRANCH  26  27
ATOM     27  C   UNL     1      31.879  38.221  10.561  1.00  0.00     0.119 C 
BRANCH  27  28
ATOM     28  N   UNL     1      31.501  39.475  11.228  1.00  0.00    -0.092 NA
ATOM     29  N   UNL     1      31.100  39.385  12.386  1.00  0.00     0.001 N 
ATOM     30  N   UNL     1      30.293  39.575  13.322  1.00  0.00    -0.003 NA
ENDBRANCH  27  28
ENDBRANCH  26  27
ENDBRANCH  25  26
ENDBRANCH  19  25
BRANCH  20  31
ATOM     31  O   UNL     1      26.729  38.699   5.945  1.00  0.00    -0.387 OA
ATOM     32  H   UNL     1      25.943  38.426   6.493  1.00  0.00     0.211 HD
ENDBRANCH  20  31
BRANCH  21  33
ATOM     33  O   UNL     1      29.505  38.346   5.756  1.00  0.00    -0.385 OA
ATOM     34  H   UNL     1      29.577  39.164   5.203  1.00  0.00     0.211 HD
ENDBRANCH  21  33
ENDBRANCH  15  16
ENDBRANCH  10  15
BRANCH  12  35
ATOM     35  O   UNL     1      23.341  40.227   6.579  1.00  0.00    -0.385 OA
ATOM     36  H   UNL     1      22.774  40.963   6.922  1.00  0.00     0.211 HD
ENDBRANCH  12  35
BRANCH  13  37
ATOM     37  O   UNL     1      21.762  38.109   7.895  1.00  0.00    -0.387 OA
ATOM     38  H   UNL     1      20.783  38.204   8.003  1.00  0.00     0.211 HD
ENDBRANCH  13  37
BRANCH  14  39
ATOM     39  O   UNL     1      22.055  37.755  10.380  1.00  0.00    -0.387 OA
ATOM     40  H   UNL     1      21.123  37.868  10.023  1.00  0.00     0.211 HD
ENDBRANCH  14  39
ENDBRANCH   8   9
ENDBRANCH   7   8
ENDBRANCH   1   7
BRANCH   1  41
ATOM     41  C   UNL     1      24.586  35.505   9.582  1.00  0.00     0.364 C 
ATOM     42  O   UNL     1      25.589  35.353   8.897  1.00  0.00    -0.246 OA
BRANCH  41  43
ATOM     43  O   UNL     1      23.329  35.568   9.068  1.00  0.00    -0.477 OA
ATOM     44  H   UNL     1      22.673  36.340   9.256  1.00  0.00     0.296 HD
ENDBRANCH  41  43
ENDBRANCH   1  41
BRANCH   3  45
ATOM     45  O   UNL     1      23.942  35.709  13.943  1.00  0.00    -0.391 OA
ATOM     46  H   UNL     1      24.601  36.343  13.612  1.00  0.00     0.211 HD
ENDBRANCH   3  45
BRANCH   5  47
ATOM     47  C   UNL     1      27.086  35.234  13.292  1.00  0.00     0.176 C 
BRANCH  47  48
ATOM     48  O   UNL     1      26.916  35.022  14.649  1.00  0.00    -0.388 OA
ATOM     49  H   UNL     1      27.719  35.116  15.191  1.00  0.00     0.211 HD
ENDBRANCH  47  48
BRANCH  47  50
ATOM     50  C   UNL     1      28.512  35.031  12.886  1.00  0.00     0.165 C 
BRANCH  50  51
ATOM     51  O   UNL     1      29.060  33.999  13.669  1.00  0.00    -0.388 OA
ATOM     52  H   UNL     1      28.945  34.230  14.607  1.00  0.00     0.211 HD
ENDBRANCH  50  51
BRANCH  50  53
ATOM     53  C   UNL     1      29.392  36.227  13.020  1.00  0.00     0.154 C 
BRANCH  53  54
ATOM     54  N   UNL     1      30.038  36.298  14.311  1.00  0.00    -0.319 N 
ATOM     55  C   UNL     1      31.432  36.349  14.501  1.00  0.00     0.407 C 
ATOM     56  H   UNL     1      29.452  36.314  15.198  1.00  0.00     0.167 HD
ATOM     57  O   UNL     1      32.197  36.337  13.532  1.00  0.00    -0.225 OA
BRANCH  55  58
ATOM     58  O   UNL     1      32.002  36.411  15.768  1.00  0.00    -0.443 OA
BRANCH  58  59
ATOM     59  C   UNL     1      32.660  35.335  16.386  1.00  0.00     0.294 C 
BRANCH  59  60
ATOM     60  C   UNL     1      31.910  34.054  16.214  1.00  0.00     0.121 A 
ATOM     61  C   UNL     1      31.087  33.457  17.145  1.00  0.00     0.148 A 
ATOM     62  N   UNL     1      31.900  33.254  15.130  1.00  0.00    -0.131 NA
ATOM     63  N   UNL     1      30.606  32.323  16.607  1.00  0.00    -0.185 N 
ATOM     64  N   UNL     1      31.112  32.227  15.395  1.00  0.00    -0.059 NA
BRANCH  63  65
ATOM     65  C   UNL     1      29.719  31.438  17.277  1.00  0.00     0.257 A 
ATOM     66  N   UNL     1      29.904  31.182  18.586  1.00  0.00    -0.175 NA
ATOM     67  N   UNL     1      28.680  30.825  16.683  1.00  0.00    -0.196 NA
ATOM     68  C   UNL     1      29.086  30.347  19.277  1.00  0.00     0.225 A 
ATOM     69  C   UNL     1      27.853  29.997  17.330  1.00  0.00     0.133 A 
ATOM     70  N   UNL     1      28.059  29.761  18.622  1.00  0.00    -0.198 NA
ATOM     71  C   UNL     1      26.703  29.332  16.624  1.00  0.00     0.090 C 
BRANCH  68  72
ATOM     72  N   UNL     1      29.324  30.112  20.650  1.00  0.00    -0.368 N 
ATOM     73  H   UNL     1      28.784  30.608  21.387  1.00  0.00     0.159 HD
ATOM     74  H   UNL     1      30.049  29.434  20.953  1.00  0.00     0.159 HD
ENDBRANCH  68  72
ENDBRANCH  63  65
ENDBRANCH  59  60
ENDBRANCH  58  59
ENDBRANCH  55  58
ENDBRANCH  53  54
ENDBRANCH  50  53
ENDBRANCH  47  50
ENDBRANCH   5  47
BRANCH   4  75
ATOM     75  N   UNL     1      24.723  32.421  12.853  1.00  0.00    -0.348 N 
ATOM     76  C   UNL     1      24.424  31.409  13.809  1.00  0.00     0.217 C 
ATOM     77  H   UNL     1      24.709  32.134  11.842  1.00  0.00     0.163 HD
ATOM     78  C   UNL     1      24.118  30.043  13.365  1.00  0.00     0.114 C 
ATOM     79  O   UNL     1      24.424  31.692  15.026  1.00  0.00    -0.275 OA
ENDBRANCH   4  75
TORSDOF 31
BEGIN_RES LYS A 131
REMARK  4 active torsions:
REMARK  status: ('A' for Active; 'I' for Inactive)
REMARK    1  A    between atoms: CA   and  CB  
REMARK    2  A    between atoms: CB   and  CG  
REMARK    3  A    between atoms: CG   and  CD  
REMARK    4  A    between atoms: CD   and  CE  
ROOT
ATOM      1  CA  LYS A 131      29.867  25.555  16.977  1.00 20.52     0.186 C 
ENDROOT
BRANCH   1   2
ATOM      2  CB  LYS A 131      28.345  25.722  17.026  1.00 20.94     0.034 C 
BRANCH   2   3
ATOM      3  CG  LYS A 131      27.601  24.402  16.894  1.00 22.96     0.005 C 
BRANCH   3   4
ATOM      4  CD  LYS A 131      26.151  24.529  17.271  1.00 24.33     0.041 C 
BRANCH   4   5
ATOM      5  CE  LYS A 131      26.027  24.629  18.788  1.00 26.91     0.338 C 
ATOM      6  NZ  LYS A 131      25.513  23.358  19.352  1.00 27.40     0.618 N 
ENDBRANCH   4   5
ENDBRANCH   3   4
ENDBRANCH   2   3
ENDBRANCH   1   2
END_RES LYS A 131
BEGIN_RES LYS A 135
REMARK  4 active torsions:
REMARK  status: ('A' for Active; 'I' for Inactive)
REMARK    5  A    between atoms: CA   and  CB  
REMARK    6  A    between atoms: CB   and  CG  
REMARK    7  A    between atoms: CG   and  CD  
REMARK    8  A    between atoms: CD   and  CE  
ROOT
ATOM      7  CA  LYS A 135      33.193  34.663   9.290  1.00 25.02     0.186 C 
ENDROOT
BRANCH   7   8
ATOM      8  CB  LYS A 135      32.060  35.360  10.034  1.00 26.63     0.034 C 
BRANCH   8   9
ATOM      9  CG  LYS A 135      30.773  34.576  10.044  1.00 29.45     0.005 C 
BRANCH   9  10
ATOM     10  CD  LYS A 135      30.275  34.344   8.626  1.00 32.00     0.041 C 
BRANCH  10  11
ATOM     11  CE  LYS A 135      28.985  35.104   8.384  1.00 34.25     0.338 C 
ATOM     12  NZ  LYS A 135      28.701  35.228   6.927  1.00 35.99     0.618 N 
ENDBRANCH  10  11
ENDBRANCH   9  10
ENDBRANCH   8   9
ENDBRANCH   7   8
END_RES LYS A 135
