REMARK VINA RESULT:    -3.687      3.537      7.395
REMARK INTER + INTRA:         -21.759
REMARK INTER:                 -11.044
REMARK INTRA:                 -10.715
REMARK UNBOUND:               -12.359
REMARK SMILES CC(=O)N[C@@H]1[C@@H](O)C[C@](OC[C@H]2O[C@@H](O[C@H]3[C@H](O)[C@@H](O)[C@H](OCCN=[N+]=[N-])O[C@@H]3CO)[C@H](O)[C@@H](O)[C@H]2O)(C(=O)O)O[C@H]1C(O)[C@H](O)CNC(=O)OCc1cn(CC(=O)O)nn1
REMARK SMILES IDX 9 1 8 2 6 3 5 4 42 5 41 6 10 7 11 8 12 9 14 10 13 11 32 12
REMARK SMILES IDX 34 13 36 14 15 15 16 16 29 17 28 18 21 19 17 20 19 21 30 22
REMARK SMILES IDX 31 23 22 25 23 26 24 27 25 28 26 29 27 30 18 31 20 33 33 35
REMARK SMILES IDX 35 37 37 39 38 41 39 42 40 43 7 45 43 47 44 48 45 50 46 51
REMARK SMILES IDX 47 53 48 54 49 55 50 57 51 58 52 59 53 60 54 61 61 62 55 63
REMARK SMILES IDX 60 64 56 65 57 66 58 67 59 68 4 70 2 71 1 73 3 74
REMARK H PARENT 31 24 18 32 20 34 33 36 35 38 37 40 40 44 7 46 44 49 46 52
REMARK H PARENT 48 56 59 69 4 72
REMARK Flexibility Score: inf
ROOT
ATOM      1  C   UNL     1      27.286  40.237   5.542  1.00  0.00     0.272 C 
ATOM      2  C   UNL     1      27.553  39.034   4.684  1.00  0.00     0.113 C 
ATOM      3  C   UNL     1      27.970  37.805   5.377  1.00  0.00     0.145 C 
ATOM      4  C   UNL     1      28.469  37.978   6.807  1.00  0.00     0.142 C 
ATOM      5  C   UNL     1      28.927  39.399   6.923  1.00  0.00     0.178 C 
ATOM      6  O   UNL     1      27.709  40.126   6.829  1.00  0.00    -0.332 OA
ENDROOT
BRANCH   1   7
ATOM      7  O   UNL     1      25.915  40.576   5.550  1.00  0.00    -0.338 OA
BRANCH   7   8
ATOM      8  C   UNL     1      25.365  40.700   6.789  1.00  0.00     0.199 C 
BRANCH   8   9
ATOM      9  C   UNL     1      23.956  40.083   6.787  1.00  0.00     0.179 C 
ATOM     10  C   UNL     1      22.652  39.261   8.503  1.00  0.00     0.282 C 
ATOM     11  O   UNL     1      23.822  39.070   7.701  1.00  0.00    -0.341 OA
ATOM     12  C   UNL     1      22.933  40.490   9.288  1.00  0.00     0.202 C 
ATOM     13  C   UNL     1      22.730  41.666   8.318  1.00  0.00     0.179 C 
ATOM     14  C   UNL     1      22.914  41.177   6.907  1.00  0.00     0.177 C 
BRANCH  10  15
ATOM     15  O   UNL     1      22.432  38.106   9.192  1.00  0.00    -0.341 OA
BRANCH  15  16
ATOM     16  C   UNL     1      21.188  37.525   8.941  1.00  0.00     0.184 C 
ATOM     17  C   UNL     1      20.641  37.006  10.237  1.00  0.00     0.178 C 
ATOM     18  O   UNL     1      19.832  35.920  10.037  1.00  0.00    -0.341 OA
ATOM     19  C   UNL     1      19.045  35.927   8.913  1.00  0.00     0.281 C 
ATOM     20  C   UNL     1      21.308  36.365   7.976  1.00  0.00     0.180 C 
ATOM     21  C   UNL     1      19.880  35.925   7.644  1.00  0.00     0.202 C 
BRANCH  17  22
ATOM     22  C   UNL     1      19.852  38.106  10.924  1.00  0.00     0.191 C 
BRANCH  22  23
ATOM     23  O   UNL     1      19.706  39.124   9.978  1.00  0.00    -0.394 OA
ATOM     24  H   UNL     1      19.012  38.896   9.321  1.00  0.00     0.210 HD
ENDBRANCH  22  23
ENDBRANCH  17  22
BRANCH  19  25
ATOM     25  O   UNL     1      18.144  36.956   8.950  1.00  0.00    -0.350 OA
BRANCH  25  26
ATOM     26  C   UNL     1      17.462  37.158   7.777  1.00  0.00     0.169 C 
BRANCH  26  27
ATOM     27  C   UNL     1      17.128  38.597   7.483  1.00  0.00     0.119 C 
BRANCH  27  28
ATOM     28  N   UNL     1      16.522  38.738   6.157  1.00  0.00    -0.092 NA
ATOM     29  N   UNL     1      17.252  39.251   5.285  1.00  0.00     0.001 N 
ATOM     30  N   UNL     1      17.531  40.010   4.337  1.00  0.00    -0.003 NA
ENDBRANCH  27  28
ENDBRANCH  26  27
ENDBRANCH  25  26
ENDBRANCH  19  25
BRANCH  20  31
ATOM     31  O   UNL     1      21.915  36.697   6.790  1.00  0.00    -0.387 OA
ATOM     32  H   UNL     1      21.793  36.066   6.063  1.00  0.00     0.211 HD
ENDBRANCH  20  31
BRANCH  21  33
ATOM     33  O   UNL     1      19.863  34.664   7.080  1.00  0.00    -0.385 OA
ATOM     34  H   UNL     1      18.996  34.206   7.230  1.00  0.00     0.211 HD
ENDBRANCH  21  33
ENDBRANCH  15  16
ENDBRANCH  10  15
BRANCH  12  35
ATOM     35  O   UNL     1      22.255  40.653  10.461  1.00  0.00    -0.385 OA
ATOM     36  H   UNL     1      21.941  41.567  10.550  1.00  0.00     0.211 HD
ENDBRANCH  12  35
BRANCH  13  37
ATOM     37  O   UNL     1      23.681  42.622   8.640  1.00  0.00    -0.387 OA
ATOM     38  H   UNL     1      23.334  43.317   9.266  1.00  0.00     0.211 HD
ENDBRANCH  13  37
BRANCH  14  39
ATOM     39  O   UNL     1      23.358  42.273   6.167  1.00  0.00    -0.387 OA
ATOM     40  H   UNL     1      22.991  42.283   5.252  1.00  0.00     0.211 HD
ENDBRANCH  14  39
ENDBRANCH   8   9
ENDBRANCH   7   8
ENDBRANCH   1   7
BRANCH   1  41
ATOM     41  C   UNL     1      27.961  41.401   4.922  1.00  0.00     0.364 C 
ATOM     42  O   UNL     1      28.467  41.335   3.786  1.00  0.00    -0.246 OA
BRANCH  41  43
ATOM     43  O   UNL     1      28.060  42.618   5.575  1.00  0.00    -0.477 OA
ATOM     44  H   UNL     1      27.456  43.419   5.356  1.00  0.00     0.296 HD
ENDBRANCH  41  43
ENDBRANCH   1  41
BRANCH   3  45
ATOM     45  O   UNL     1      27.061  36.747   5.272  1.00  0.00    -0.391 OA
ATOM     46  H   UNL     1      27.001  36.365   4.380  1.00  0.00     0.211 HD
ENDBRANCH   3  45
BRANCH   5  47
ATOM     47  C   UNL     1      29.624  39.796   8.179  1.00  0.00     0.176 C 
BRANCH  47  48
ATOM     48  O   UNL     1      29.031  38.971   9.191  1.00  0.00    -0.388 OA
ATOM     49  H   UNL     1      28.974  38.031   8.854  1.00  0.00     0.211 HD
ENDBRANCH  47  48
BRANCH  47  50
ATOM     50  C   UNL     1      29.412  41.240   8.580  1.00  0.00     0.165 C 
BRANCH  50  51
ATOM     51  O   UNL     1      30.105  42.073   7.664  1.00  0.00    -0.388 OA
ATOM     52  H   UNL     1      29.453  42.363   6.990  1.00  0.00     0.211 HD
ENDBRANCH  50  51
BRANCH  50  53
ATOM     53  C   UNL     1      29.865  41.544   9.955  1.00  0.00     0.154 C 
BRANCH  53  54
ATOM     54  N   UNL     1      28.796  41.508  10.911  1.00  0.00    -0.319 N 
ATOM     55  C   UNL     1      28.763  40.796  12.131  1.00  0.00     0.407 C 
ATOM     56  H   UNL     1      27.888  42.071  10.733  1.00  0.00     0.167 HD
ATOM     57  O   UNL     1      29.708  40.091  12.495  1.00  0.00    -0.225 OA
BRANCH  55  58
ATOM     58  O   UNL     1      27.661  40.847  12.992  1.00  0.00    -0.443 OA
BRANCH  58  59
ATOM     59  C   UNL     1      26.341  40.710  12.495  1.00  0.00     0.294 C 
BRANCH  59  60
ATOM     60  C   UNL     1      26.249  39.546  11.560  1.00  0.00     0.120 A 
ATOM     61  C   UNL     1      26.046  38.218  11.909  1.00  0.00     0.139 A 
ATOM     62  N   UNL     1      26.344  39.555  10.222  1.00  0.00    -0.132 NA
ATOM     63  N   UNL     1      26.027  37.488  10.780  1.00  0.00    -0.241 N 
ATOM     64  N   UNL     1      26.211  38.321   9.768  1.00  0.00    -0.066 NA
BRANCH  63  65
ATOM     65  C   UNL     1      25.838  36.039  10.653  1.00  0.00     0.268 C 
BRANCH  65  66
ATOM     66  C   UNL     1      24.715  35.805   9.727  1.00  0.00     0.325 C 
ATOM     67  O   UNL     1      23.719  35.167  10.100  1.00  0.00    -0.250 OA
BRANCH  66  68
ATOM     68  O   UNL     1      24.775  36.299   8.440  1.00  0.00    -0.480 OA
ATOM     69  H   UNL     1      25.251  35.832   7.697  1.00  0.00     0.296 HD
ENDBRANCH  66  68
ENDBRANCH  65  66
ENDBRANCH  63  65
ENDBRANCH  59  60
ENDBRANCH  58  59
ENDBRANCH  55  58
ENDBRANCH  53  54
ENDBRANCH  50  53
ENDBRANCH  47  50
ENDBRANCH   5  47
BRANCH   4  70
ATOM     70  N   UNL     1      29.389  36.953   7.161  1.00  0.00    -0.348 N 
ATOM     71  C   UNL     1      28.966  35.693   7.709  1.00  0.00     0.217 C 
ATOM     72  H   UNL     1      30.411  37.077   7.019  1.00  0.00     0.163 HD
ATOM     73  C   UNL     1      29.994  34.682   8.048  1.00  0.00     0.114 C 
ATOM     74  O   UNL     1      27.752  35.447   7.898  1.00  0.00    -0.275 OA
ENDBRANCH   4  70
TORSDOF 32
BEGIN_RES LYS A 131
REMARK  4 active torsions:
REMARK  status: ('A' for Active; 'I' for Inactive)
REMARK    1  A    between atoms: CA   and  CB  
REMARK    2  A    between atoms: CB   and  CG  
REMARK    3  A    between atoms: CG   and  CD  
REMARK    4  A    between atoms: CD   and  CE  
ROOT
ATOM      1  CA  LYS A 131      29.867  25.555  16.977  1.00 20.52     0.186 C 
ENDROOT
BRANCH   1   2
ATOM      2  CB  LYS A 131      28.345  25.722  17.026  1.00 20.94     0.034 C 
BRANCH   2   3
ATOM      3  CG  LYS A 131      27.599  24.478  16.567  1.00 22.96     0.005 C 
BRANCH   3   4
ATOM      4  CD  LYS A 131      26.959  23.747  17.714  1.00 24.33     0.041 C 
BRANCH   4   5
ATOM      5  CE  LYS A 131      26.099  24.716  18.520  1.00 26.91     0.338 C 
ATOM      6  NZ  LYS A 131      24.842  25.019  17.796  1.00 27.40     0.618 N 
ENDBRANCH   4   5
ENDBRANCH   3   4
ENDBRANCH   2   3
ENDBRANCH   1   2
END_RES LYS A 131
BEGIN_RES LYS A 135
REMARK  4 active torsions:
REMARK  status: ('A' for Active; 'I' for Inactive)
REMARK    5  A    between atoms: CA   and  CB  
REMARK    6  A    between atoms: CB   and  CG  
REMARK    7  A    between atoms: CG   and  CD  
REMARK    8  A    between atoms: CD   and  CE  
ROOT
ATOM      7  CA  LYS A 135      33.193  34.663   9.290  1.00 25.02     0.186 C 
ENDROOT
BRANCH   7   8
ATOM      8  CB  LYS A 135      32.060  35.360  10.034  1.00 26.63     0.034 C 
BRANCH   8   9
ATOM      9  CG  LYS A 135      32.498  36.022  11.315  1.00 29.45     0.005 C 
BRANCH   9  10
ATOM     10  CD  LYS A 135      31.502  37.092  11.734  1.00 32.00     0.041 C 
BRANCH  10  11
ATOM     11  CE  LYS A 135      31.201  36.989  13.217  1.00 34.25     0.338 C 
ATOM     12  NZ  LYS A 135      31.212  35.570  13.669  1.00 35.99     0.618 N 
ENDBRANCH  10  11
ENDBRANCH   9  10
ENDBRANCH   8   9
ENDBRANCH   7   8
END_RES LYS A 135
