REMARK VINA RESULT:    -4.731      2.136      7.459
REMARK INTER + INTRA:         -21.357
REMARK INTER:                 -12.118
REMARK INTRA:                  -9.238
REMARK UNBOUND:                -9.712
REMARK SMILES CC(=O)N[C@@H]1[C@@H](O)C[C@](OC[C@H]2O[C@@H](O[C@H]3[C@H](O)[C@@H](O)[C@H](OCCN=[N+]=[N-])O[C@@H]3CO)[C@H](O)[C@@H](O)[C@H]2O)(C(=O)O)O[C@H]1C(O)[C@H](O)CNC(=O)OCc1cn(C2CCCCC2)nn1
REMARK SMILES IDX 9 1 8 2 6 3 5 4 42 5 41 6 10 7 11 8 12 9 14 10 13 11 32 12
REMARK SMILES IDX 34 13 36 14 15 15 16 16 29 17 28 18 21 19 17 20 19 21 30 22
REMARK SMILES IDX 31 23 22 25 23 26 24 27 25 28 26 29 27 30 18 31 20 33 33 35
REMARK SMILES IDX 35 37 37 39 38 41 39 42 40 43 7 45 43 47 44 48 45 50 46 51
REMARK SMILES IDX 47 53 48 54 49 55 50 57 51 58 52 59 53 60 54 61 63 62 55 63
REMARK SMILES IDX 62 64 56 65 57 66 61 67 58 68 60 69 59 70 4 71 2 72 1 74
REMARK SMILES IDX 3 75
REMARK H PARENT 31 24 18 32 20 34 33 36 35 38 37 40 40 44 7 46 44 49 46 52
REMARK H PARENT 48 56 4 73
REMARK Flexibility Score: inf
ROOT
ATOM      1  C   UNL     1      31.714  35.920  13.718  1.00  0.00     0.272 C 
ATOM      2  C   UNL     1      31.747  36.841  14.994  1.00  0.00     0.113 C 
ATOM      3  C   UNL     1      30.576  37.774  14.962  1.00  0.00     0.145 C 
ATOM      4  C   UNL     1      30.555  38.572  13.685  1.00  0.00     0.142 C 
ATOM      5  C   UNL     1      30.978  37.794  12.488  1.00  0.00     0.178 C 
ATOM      6  O   UNL     1      31.633  36.656  12.597  1.00  0.00    -0.332 OA
ENDROOT
BRANCH   1   7
ATOM      7  O   UNL     1      30.656  35.151  13.933  1.00  0.00    -0.338 OA
BRANCH   7   8
ATOM      8  C   UNL     1      30.464  33.976  14.430  1.00  0.00     0.199 C 
BRANCH   8   9
ATOM      9  C   UNL     1      30.216  33.741  15.911  1.00  0.00     0.179 C 
ATOM     10  C   UNL     1      28.073  33.448  16.818  1.00  0.00     0.282 C 
ATOM     11  O   UNL     1      29.061  34.306  16.348  1.00  0.00    -0.341 OA
ATOM     12  C   UNL     1      28.637  32.566  17.867  1.00  0.00     0.202 C 
ATOM     13  C   UNL     1      29.918  31.878  17.464  1.00  0.00     0.179 C 
ATOM     14  C   UNL     1      30.256  32.224  16.065  1.00  0.00     0.177 C 
BRANCH  10  15
ATOM     15  O   UNL     1      27.463  32.903  15.748  1.00  0.00    -0.341 OA
BRANCH  15  16
ATOM     16  C   UNL     1      26.409  33.528  15.166  1.00  0.00     0.184 C 
ATOM     17  C   UNL     1      25.447  32.465  14.680  1.00  0.00     0.178 C 
ATOM     18  O   UNL     1      24.216  32.986  14.331  1.00  0.00    -0.341 OA
ATOM     19  C   UNL     1      24.243  34.298  13.939  1.00  0.00     0.281 C 
ATOM     20  C   UNL     1      26.771  34.322  13.928  1.00  0.00     0.180 C 
ATOM     21  C   UNL     1      25.485  34.644  13.203  1.00  0.00     0.202 C 
BRANCH  17  22
ATOM     22  C   UNL     1      25.344  31.281  15.598  1.00  0.00     0.191 C 
BRANCH  22  23
ATOM     23  O   UNL     1      26.435  30.451  15.338  1.00  0.00    -0.394 OA
ATOM     24  H   UNL     1      26.747  30.526  14.405  1.00  0.00     0.210 HD
ENDBRANCH  22  23
ENDBRANCH  17  22
BRANCH  19  25
ATOM     25  O   UNL     1      23.917  35.100  15.001  1.00  0.00    -0.350 OA
BRANCH  25  26
ATOM     26  C   UNL     1      24.043  36.458  14.755  1.00  0.00     0.169 C 
BRANCH  26  27
ATOM     27  C   UNL     1      22.785  37.103  14.238  1.00  0.00     0.119 C 
BRANCH  27  28
ATOM     28  N   UNL     1      23.002  37.475  12.855  1.00  0.00    -0.092 NA
ATOM     29  N   UNL     1      24.163  37.778  12.547  1.00  0.00     0.001 N 
ATOM     30  N   UNL     1      25.072  38.572  12.245  1.00  0.00    -0.003 NA
ENDBRANCH  27  28
ENDBRANCH  26  27
ENDBRANCH  25  26
ENDBRANCH  19  25
BRANCH  20  31
ATOM     31  O   UNL     1      27.425  35.499  14.196  1.00  0.00    -0.387 OA
ATOM     32  H   UNL     1      27.567  35.656  15.162  1.00  0.00     0.211 HD
ENDBRANCH  20  31
BRANCH  21  33
ATOM     33  O   UNL     1      25.495  33.856  12.026  1.00  0.00    -0.385 OA
ATOM     34  H   UNL     1      26.387  33.452  11.888  1.00  0.00     0.211 HD
ENDBRANCH  21  33
ENDBRANCH  15  16
ENDBRANCH  10  15
BRANCH  12  35
ATOM     35  O   UNL     1      28.979  33.418  18.950  1.00  0.00    -0.385 OA
ATOM     36  H   UNL     1      28.676  34.339  18.794  1.00  0.00     0.211 HD
ENDBRANCH  12  35
BRANCH  13  37
ATOM     37  O   UNL     1      29.804  30.480  17.600  1.00  0.00    -0.387 OA
ATOM     38  H   UNL     1      29.581  30.276  18.522  1.00  0.00     0.211 HD
ENDBRANCH  13  37
BRANCH  14  39
ATOM     39  O   UNL     1      29.588  31.552  15.079  1.00  0.00    -0.387 OA
ATOM     40  H   UNL     1      28.621  31.615  15.263  1.00  0.00     0.211 HD
ENDBRANCH  14  39
ENDBRANCH   8   9
ENDBRANCH   7   8
ENDBRANCH   1   7
BRANCH   1  41
ATOM     41  C   UNL     1      33.078  35.286  13.740  1.00  0.00     0.364 C 
ATOM     42  O   UNL     1      33.739  35.088  14.753  1.00  0.00    -0.246 OA
BRANCH  41  43
ATOM     43  O   UNL     1      33.670  34.876  12.529  1.00  0.00    -0.477 OA
ATOM     44  H   UNL     1      33.656  33.906  12.259  1.00  0.00     0.296 HD
ENDBRANCH  41  43
ENDBRANCH   1  41
BRANCH   3  45
ATOM     45  O   UNL     1      29.380  37.102  15.181  1.00  0.00    -0.391 OA
ATOM     46  H   UNL     1      29.390  36.278  14.615  1.00  0.00     0.211 HD
ENDBRANCH   3  45
BRANCH   5  47
ATOM     47  C   UNL     1      29.745  37.521  11.574  1.00  0.00     0.176 C 
BRANCH  47  48
ATOM     48  O   UNL     1      28.906  36.594  12.223  1.00  0.00    -0.388 OA
ATOM     49  H   UNL     1      29.420  35.886  12.660  1.00  0.00     0.211 HD
ENDBRANCH  47  48
BRANCH  47  50
ATOM     50  C   UNL     1      29.027  38.778  11.224  1.00  0.00     0.165 C 
BRANCH  50  51
ATOM     51  O   UNL     1      27.760  38.391  10.726  1.00  0.00    -0.388 OA
ATOM     52  H   UNL     1      27.656  38.625   9.784  1.00  0.00     0.211 HD
ENDBRANCH  50  51
BRANCH  50  53
ATOM     53  C   UNL     1      29.643  39.640  10.186  1.00  0.00     0.154 C 
BRANCH  53  54
ATOM     54  N   UNL     1      29.209  39.402   8.834  1.00  0.00    -0.319 N 
ATOM     55  C   UNL     1      29.880  38.521   7.944  1.00  0.00     0.407 C 
ATOM     56  H   UNL     1      28.366  39.889   8.485  1.00  0.00     0.167 HD
ATOM     57  O   UNL     1      30.906  37.903   8.325  1.00  0.00    -0.225 OA
BRANCH  55  58
ATOM     58  O   UNL     1      29.447  38.315   6.664  1.00  0.00    -0.443 OA
BRANCH  58  59
ATOM     59  C   UNL     1      28.390  37.481   6.255  1.00  0.00     0.294 C 
BRANCH  59  60
ATOM     60  C   UNL     1      27.130  37.979   6.849  1.00  0.00     0.120 A 
ATOM     61  C   UNL     1      26.278  37.182   7.558  1.00  0.00     0.138 A 
ATOM     62  N   UNL     1      26.594  39.204   6.819  1.00  0.00    -0.132 NA
ATOM     63  N   UNL     1      25.227  37.934   7.957  1.00  0.00    -0.249 N 
ATOM     64  N   UNL     1      25.447  39.162   7.492  1.00  0.00    -0.067 NA
BRANCH  63  65
ATOM     65  C   UNL     1      24.092  37.473   8.732  1.00  0.00     0.109 C 
ATOM     66  C   UNL     1      24.331  35.985   8.969  1.00  0.00     0.027 C 
ATOM     67  C   UNL     1      22.813  37.629   7.940  1.00  0.00     0.027 C 
ATOM     68  C   UNL     1      23.217  35.441   9.864  1.00  0.00     0.002 C 
ATOM     69  C   UNL     1      22.010  36.346   7.873  1.00  0.00     0.002 C 
ATOM     70  C   UNL     1      21.892  35.729   9.233  1.00  0.00     0.000 C 
ENDBRANCH  63  65
ENDBRANCH  59  60
ENDBRANCH  58  59
ENDBRANCH  55  58
ENDBRANCH  53  54
ENDBRANCH  50  53
ENDBRANCH  47  50
ENDBRANCH   5  47
BRANCH   4  71
ATOM     71  N   UNL     1      31.227  39.837  13.831  1.00  0.00    -0.348 N 
ATOM     72  C   UNL     1      30.581  41.083  13.881  1.00  0.00     0.217 C 
ATOM     73  H   UNL     1      32.293  39.889  13.913  1.00  0.00     0.163 HD
ATOM     74  C   UNL     1      31.345  42.366  14.050  1.00  0.00     0.114 C 
ATOM     75  O   UNL     1      29.358  41.180  13.788  1.00  0.00    -0.275 OA
ENDBRANCH   4  71
TORSDOF 30
BEGIN_RES LYS A 131
REMARK  4 active torsions:
REMARK  status: ('A' for Active; 'I' for Inactive)
REMARK    1  A    between atoms: CA   and  CB  
REMARK    2  A    between atoms: CB   and  CG  
REMARK    3  A    between atoms: CG   and  CD  
REMARK    4  A    between atoms: CD   and  CE  
ROOT
ATOM      1  CA  LYS A 131      29.867  25.555  16.977  1.00 20.52     0.186 C 
ENDROOT
BRANCH   1   2
ATOM      2  CB  LYS A 131      28.345  25.722  17.026  1.00 20.94     0.034 C 
BRANCH   2   3
ATOM      3  CG  LYS A 131      27.796  25.726  18.445  1.00 22.96     0.005 C 
BRANCH   3   4
ATOM      4  CD  LYS A 131      27.391  27.103  18.891  1.00 24.33     0.041 C 
BRANCH   4   5
ATOM      5  CE  LYS A 131      26.944  27.919  17.683  1.00 26.91     0.338 C 
ATOM      6  NZ  LYS A 131      25.469  28.059  17.669  1.00 27.40     0.618 N 
ENDBRANCH   4   5
ENDBRANCH   3   4
ENDBRANCH   2   3
ENDBRANCH   1   2
END_RES LYS A 131
BEGIN_RES LYS A 135
REMARK  4 active torsions:
REMARK  status: ('A' for Active; 'I' for Inactive)
REMARK    5  A    between atoms: CA   and  CB  
REMARK    6  A    between atoms: CB   and  CG  
REMARK    7  A    between atoms: CG   and  CD  
REMARK    8  A    between atoms: CD   and  CE  
ROOT
ATOM      7  CA  LYS A 135      33.193  34.663   9.290  1.00 25.02     0.186 C 
ENDROOT
BRANCH   7   8
ATOM      8  CB  LYS A 135      32.060  35.360  10.034  1.00 26.63     0.034 C 
BRANCH   8   9
ATOM      9  CG  LYS A 135      30.748  34.623   9.961  1.00 29.45     0.005 C 
BRANCH   9  10
ATOM     10  CD  LYS A 135      30.320  34.432   8.514  1.00 32.00     0.041 C 
BRANCH  10  11
ATOM     11  CE  LYS A 135      28.811  34.518   8.389  1.00 34.25     0.338 C 
ATOM     12  NZ  LYS A 135      28.138  33.801   9.507  1.00 35.99     0.618 N 
ENDBRANCH  10  11
ENDBRANCH   9  10
ENDBRANCH   8   9
ENDBRANCH   7   8
END_RES LYS A 135
