REMARK VINA RESULT:    -5.226      3.772      8.145
REMARK INTER + INTRA:         -22.436
REMARK INTER:                 -13.273
REMARK INTRA:                  -9.162
REMARK UNBOUND:                -8.960
REMARK SMILES CC(=O)N[C@@H]1[C@@H](O)C[C@](OC[C@H]2O[C@@H](O[C@H]3[C@H](O)[C@@H](O)[C@H](OCCN=[N+]=[N-])O[C@@H]3CO)[C@H](O)[C@@H](O)[C@H]2O)(C(=O)O)O[C@H]1C(O)[C@H](O)CNC(=O)OCc1cn(Cc2cccc(C#N)c2)nn1
REMARK SMILES IDX 9 1 8 2 6 3 5 4 42 5 41 6 10 7 11 8 12 9 14 10 13 11 32 12
REMARK SMILES IDX 34 13 36 14 15 15 16 16 29 17 28 18 21 19 17 20 19 21 30 22
REMARK SMILES IDX 31 23 22 25 23 26 24 27 25 28 26 29 27 30 18 31 20 33 33 35
REMARK SMILES IDX 35 37 37 39 38 41 39 42 40 43 7 45 43 47 44 48 45 50 46 51
REMARK SMILES IDX 47 53 48 54 49 55 50 57 51 58 52 59 53 60 54 61 66 62 55 63
REMARK SMILES IDX 65 64 56 65 57 66 58 67 64 68 59 69 61 70 60 71 62 72 63 73
REMARK SMILES IDX 4 74 2 75 1 77 3 78
REMARK H PARENT 31 24 18 32 20 34 33 36 35 38 37 40 40 44 7 46 44 49 46 52
REMARK H PARENT 48 56 4 76
REMARK Flexibility Score: inf
ROOT
ATOM      1  C   UNL     1      29.980  33.066  16.880  1.00  0.00     0.272 C 
ATOM      2  C   UNL     1      31.111  34.016  17.196  1.00  0.00     0.113 C 
ATOM      3  C   UNL     1      31.017  35.382  16.663  1.00  0.00     0.145 C 
ATOM      4  C   UNL     1      30.270  35.427  15.325  1.00  0.00     0.142 C 
ATOM      5  C   UNL     1      29.034  34.646  15.331  1.00  0.00     0.178 C 
ATOM      6  O   UNL     1      28.957  33.556  16.136  1.00  0.00    -0.332 OA
ENDROOT
BRANCH   1   7
ATOM      7  O   UNL     1      29.487  32.604  18.015  1.00  0.00    -0.338 OA
BRANCH   7   8
ATOM      8  C   UNL     1      28.522  32.475  18.792  1.00  0.00     0.199 C 
BRANCH   8   9
ATOM      9  C   UNL     1      27.611  31.290  18.950  1.00  0.00     0.179 C 
ATOM     10  C   UNL     1      26.322  29.875  17.761  1.00  0.00     0.282 C 
ATOM     11  O   UNL     1      27.468  30.673  17.650  1.00  0.00    -0.341 OA
ATOM     12  C   UNL     1      26.554  28.696  18.644  1.00  0.00     0.202 C 
ATOM     13  C   UNL     1      27.338  29.052  19.894  1.00  0.00     0.179 C 
ATOM     14  C   UNL     1      28.328  30.149  19.696  1.00  0.00     0.177 C 
BRANCH  10  15
ATOM     15  O   UNL     1      25.943  29.448  16.491  1.00  0.00    -0.341 OA
BRANCH  15  16
ATOM     16  C   UNL     1      24.878  30.150  15.990  1.00  0.00     0.184 C 
ATOM     17  C   UNL     1      23.870  29.282  15.331  1.00  0.00     0.178 C 
ATOM     18  O   UNL     1      22.833  29.974  14.749  1.00  0.00    -0.341 OA
ATOM     19  C   UNL     1      23.193  31.002  13.905  1.00  0.00     0.281 C 
ATOM     20  C   UNL     1      25.472  31.002  14.822  1.00  0.00     0.180 C 
ATOM     21  C   UNL     1      24.310  31.870  14.387  1.00  0.00     0.202 C 
BRANCH  17  22
ATOM     22  C   UNL     1      23.251  28.331  16.330  1.00  0.00     0.191 C 
BRANCH  22  23
ATOM     23  O   UNL     1      22.998  29.003  17.529  1.00  0.00    -0.394 OA
ATOM     24  H   UNL     1      23.049  29.970  17.446  1.00  0.00     0.210 HD
ENDBRANCH  22  23
ENDBRANCH  17  22
BRANCH  19  25
ATOM     25  O   UNL     1      22.064  31.841  13.796  1.00  0.00    -0.350 OA
BRANCH  25  26
ATOM     26  C   UNL     1      21.535  31.751  12.535  1.00  0.00     0.169 C 
BRANCH  26  27
ATOM     27  C   UNL     1      20.203  31.055  12.512  1.00  0.00     0.119 C 
BRANCH  27  28
ATOM     28  N   UNL     1      20.294  29.667  12.124  1.00  0.00    -0.092 NA
ATOM     29  N   UNL     1      20.222  28.799  13.005  1.00  0.00     0.001 N 
ATOM     30  N   UNL     1      20.255  27.835  13.804  1.00  0.00    -0.003 NA
ENDBRANCH  27  28
ENDBRANCH  26  27
ENDBRANCH  25  26
ENDBRANCH  19  25
BRANCH  20  31
ATOM     31  O   UNL     1      26.537  31.703  15.322  1.00  0.00    -0.387 OA
ATOM     32  H   UNL     1      26.382  31.999  16.265  1.00  0.00     0.211 HD
ENDBRANCH  20  31
BRANCH  21  33
ATOM     33  O   UNL     1      24.753  32.659  13.328  1.00  0.00    -0.385 OA
ATOM     34  H   UNL     1      25.627  32.271  13.029  1.00  0.00     0.211 HD
ENDBRANCH  21  33
ENDBRANCH  15  16
ENDBRANCH  10  15
BRANCH  12  35
ATOM     35  O   UNL     1      25.297  28.260  19.123  1.00  0.00    -0.385 OA
ATOM     36  H   UNL     1      25.281  27.281  18.984  1.00  0.00     0.211 HD
ENDBRANCH  12  35
BRANCH  13  37
ATOM     37  O   UNL     1      28.059  27.897  20.234  1.00  0.00    -0.387 OA
ATOM     38  H   UNL     1      27.960  27.643  21.172  1.00  0.00     0.211 HD
ENDBRANCH  13  37
BRANCH  14  39
ATOM     39  O   UNL     1      29.323  29.653  18.839  1.00  0.00    -0.387 OA
ATOM     40  H   UNL     1      29.709  30.352  18.276  1.00  0.00     0.211 HD
ENDBRANCH  14  39
ENDBRANCH   8   9
ENDBRANCH   7   8
ENDBRANCH   1   7
BRANCH   1  41
ATOM     41  C   UNL     1      30.587  31.974  16.038  1.00  0.00     0.364 C 
ATOM     42  O   UNL     1      30.249  30.754  16.212  1.00  0.00    -0.246 OA
BRANCH  41  43
ATOM     43  O   UNL     1      31.512  32.241  15.066  1.00  0.00    -0.477 OA
ATOM     44  H   UNL     1      32.332  32.806  15.341  1.00  0.00     0.296 HD
ENDBRANCH  41  43
ENDBRANCH   1  41
BRANCH   3  45
ATOM     45  O   UNL     1      30.364  36.206  17.567  1.00  0.00    -0.391 OA
ATOM     46  H   UNL     1      29.397  36.023  17.636  1.00  0.00     0.211 HD
ENDBRANCH   3  45
BRANCH   5  47
ATOM     47  C   UNL     1      27.782  35.420  15.689  1.00  0.00     0.176 C 
BRANCH  47  48
ATOM     48  O   UNL     1      28.100  36.772  15.328  1.00  0.00    -0.388 OA
ATOM     49  H   UNL     1      28.678  36.724  14.533  1.00  0.00     0.211 HD
ENDBRANCH  47  48
BRANCH  47  50
ATOM     50  C   UNL     1      26.531  35.119  14.975  1.00  0.00     0.165 C 
BRANCH  50  51
ATOM     51  O   UNL     1      26.991  34.228  13.910  1.00  0.00    -0.388 OA
ATOM     52  H   UNL     1      26.169  33.877  13.454  1.00  0.00     0.211 HD
ENDBRANCH  50  51
BRANCH  50  53
ATOM     53  C   UNL     1      25.855  36.211  14.230  1.00  0.00     0.154 C 
BRANCH  53  54
ATOM     54  N   UNL     1      25.022  35.833  13.135  1.00  0.00    -0.319 N 
ATOM     55  C   UNL     1      23.602  36.023  13.222  1.00  0.00     0.407 C 
ATOM     56  H   UNL     1      25.380  35.429  12.262  1.00  0.00     0.167 HD
ATOM     57  O   UNL     1      23.158  36.523  14.281  1.00  0.00    -0.225 OA
BRANCH  55  58
ATOM     58  O   UNL     1      22.738  35.690  12.220  1.00  0.00    -0.443 OA
BRANCH  58  59
ATOM     59  C   UNL     1      23.153  34.890  11.093  1.00  0.00     0.294 C 
BRANCH  59  60
ATOM     60  C   UNL     1      23.356  35.783   9.916  1.00  0.00     0.120 A 
ATOM     61  C   UNL     1      24.379  36.684   9.726  1.00  0.00     0.138 A 
ATOM     62  N   UNL     1      22.580  35.877   8.831  1.00  0.00    -0.132 NA
ATOM     63  N   UNL     1      24.209  37.311   8.528  1.00  0.00    -0.248 N 
ATOM     64  N   UNL     1      23.105  36.796   8.009  1.00  0.00    -0.067 NA
BRANCH  63  65
ATOM     65  C   UNL     1      25.058  38.325   7.973  1.00  0.00     0.181 C 
BRANCH  65  66
ATOM     66  C   UNL     1      26.293  37.698   7.450  1.00  0.00    -0.025 A 
ATOM     67  C   UNL     1      26.480  36.342   7.388  1.00  0.00     0.006 A 
ATOM     68  C   UNL     1      27.327  38.511   6.999  1.00  0.00     0.025 A 
ATOM     69  C   UNL     1      27.628  35.771   6.907  1.00  0.00     0.002 A 
ATOM     70  C   UNL     1      28.478  37.938   6.517  1.00  0.00     0.052 A 
ATOM     71  C   UNL     1      28.675  36.559   6.452  1.00  0.00     0.019 A 
BRANCH  70  72
ATOM     72  C   UNL     1      29.541  38.788   6.048  1.00  0.00     0.099 C 
ATOM     73  N   UNL     1      30.414  39.473   5.679  1.00  0.00    -0.192 NA
ENDBRANCH  70  72
ENDBRANCH  65  66
ENDBRANCH  63  65
ENDBRANCH  59  60
ENDBRANCH  58  59
ENDBRANCH  55  58
ENDBRANCH  53  54
ENDBRANCH  50  53
ENDBRANCH  47  50
ENDBRANCH   5  47
BRANCH   4  74
ATOM     74  N   UNL     1      31.220  35.128  14.255  1.00  0.00    -0.348 N 
ATOM     75  C   UNL     1      31.697  36.176  13.442  1.00  0.00     0.217 C 
ATOM     76  H   UNL     1      31.583  34.178  14.042  1.00  0.00     0.163 HD
ATOM     77  C   UNL     1      32.665  35.963  12.329  1.00  0.00     0.114 C 
ATOM     78  O   UNL     1      31.294  37.330  13.659  1.00  0.00    -0.275 OA
ENDBRANCH   4  74
TORSDOF 32
BEGIN_RES LYS A 131
REMARK  4 active torsions:
REMARK  status: ('A' for Active; 'I' for Inactive)
REMARK    1  A    between atoms: CA   and  CB  
REMARK    2  A    between atoms: CB   and  CG  
REMARK    3  A    between atoms: CG   and  CD  
REMARK    4  A    between atoms: CD   and  CE  
ROOT
ATOM      1  CA  LYS A 131      29.867  25.555  16.977  1.00 20.52     0.186 C 
ENDROOT
BRANCH   1   2
ATOM      2  CB  LYS A 131      28.345  25.722  17.026  1.00 20.94     0.034 C 
BRANCH   2   3
ATOM      3  CG  LYS A 131      27.601  24.403  16.882  1.00 22.96     0.005 C 
BRANCH   3   4
ATOM      4  CD  LYS A 131      26.703  24.128  18.056  1.00 24.33     0.041 C 
BRANCH   4   5
ATOM      5  CE  LYS A 131      25.598  23.164  17.638  1.00 26.91     0.338 C 
ATOM      6  NZ  LYS A 131      24.521  23.887  16.921  1.00 27.40     0.618 N 
ENDBRANCH   4   5
ENDBRANCH   3   4
ENDBRANCH   2   3
ENDBRANCH   1   2
END_RES LYS A 131
BEGIN_RES LYS A 135
REMARK  4 active torsions:
REMARK  status: ('A' for Active; 'I' for Inactive)
REMARK    5  A    between atoms: CA   and  CB  
REMARK    6  A    between atoms: CB   and  CG  
REMARK    7  A    between atoms: CG   and  CD  
REMARK    8  A    between atoms: CD   and  CE  
ROOT
ATOM      7  CA  LYS A 135      33.193  34.663   9.290  1.00 25.02     0.186 C 
ENDROOT
BRANCH   7   8
ATOM      8  CB  LYS A 135      32.060  35.360  10.034  1.00 26.63     0.034 C 
BRANCH   8   9
ATOM      9  CG  LYS A 135      30.779  35.438   9.245  1.00 29.45     0.005 C 
BRANCH   9  10
ATOM     10  CD  LYS A 135      29.993  34.141   9.368  1.00 32.00     0.041 C 
BRANCH  10  11
ATOM     11  CE  LYS A 135      28.685  34.379  10.099  1.00 34.25     0.338 C 
ATOM     12  NZ  LYS A 135      28.861  35.355  11.211  1.00 35.99     0.618 N 
ENDBRANCH  10  11
ENDBRANCH   9  10
ENDBRANCH   8   9
ENDBRANCH   7   8
END_RES LYS A 135
