REMARK VINA RESULT:    -4.036      5.210      8.788
REMARK INTER + INTRA:         -21.713
REMARK INTER:                  -9.736
REMARK INTRA:                 -11.976
REMARK UNBOUND:               -11.069
REMARK SMILES COCC(C(N)=O)n1cc(COC(=O)NC[C@@H](O)C(O)[C@@H]2O[C@@](OC[C@H]3O[C@@H](O[C@H]4[C@H](O)[C@@H](O)[C@H](OCCN=[N+]=[N-])O[C@@H]4CO)[C@H](O)[C@@H](O)[C@H]3O)(C(=O)O)C[C@H](O)[C@H]2NC(C)=O)nn1
REMARK SMILES IDX 23 1 55 2 56 3 58 4 21 5 22 6 24 7 25 8 26 9 28 10 27 11
REMARK SMILES IDX 46 12 48 13 50 14 29 15 30 16 43 17 42 18 35 19 31 20 33 21
REMARK SMILES IDX 44 22 45 23 36 25 37 26 38 27 39 28 40 29 41 30 32 31 34 33
REMARK SMILES IDX 47 35 49 37 51 39 52 41 53 42 54 43 57 45 19 47 20 48 17 50
REMARK SMILES IDX 18 51 16 53 15 54 13 55 14 57 12 58 11 59 10 60 9 61 63 62
REMARK SMILES IDX 8 63 64 64 4 65 3 66 2 67 1 68 5 69 7 70 6 71 59 74 60 75
REMARK SMILES IDX 61 77 62 78
REMARK H PARENT 45 24 32 32 34 34 47 36 49 38 51 40 54 44 57 46 20 49 18 52
REMARK H PARENT 15 56 6 72 6 73 59 76
REMARK Flexibility Score: inf
ROOT
ATOM      1  C   UNL     1      26.961  37.245   7.765  1.00  0.00     0.272 C 
ATOM      2  C   UNL     1      28.204  37.492   8.530  1.00  0.00     0.113 C 
ATOM      3  C   UNL     1      28.125  38.450   9.661  1.00  0.00     0.145 C 
ATOM      4  C   UNL     1      27.217  39.597   9.306  1.00  0.00     0.142 C 
ATOM      5  C   UNL     1      27.045  39.579   7.795  1.00  0.00     0.178 C 
ATOM      6  O   UNL     1      26.352  38.454   7.430  1.00  0.00    -0.332 OA
ENDROOT
BRANCH   1   7
ATOM      7  O   UNL     1      26.008  36.458   8.349  1.00  0.00    -0.338 OA
BRANCH   7   8
ATOM      8  C   UNL     1      24.795  37.005   8.607  1.00  0.00     0.199 C 
BRANCH   8   9
ATOM      9  C   UNL     1      23.667  35.965   8.593  1.00  0.00     0.179 C 
ATOM     10  C   UNL     1      22.618  36.045  10.664  1.00  0.00     0.282 C 
ATOM     11  O   UNL     1      23.496  35.384   9.817  1.00  0.00    -0.341 OA
ATOM     12  C   UNL     1      21.287  36.302  10.047  1.00  0.00     0.202 C 
ATOM     13  C   UNL     1      21.392  37.060   8.765  1.00  0.00     0.179 C 
ATOM     14  C   UNL     1      22.439  36.447   7.906  1.00  0.00     0.177 C 
BRANCH  10  15
ATOM     15  O   UNL     1      23.163  37.197  11.200  1.00  0.00    -0.341 OA
BRANCH  15  16
ATOM     16  C   UNL     1      23.623  36.972  12.497  1.00  0.00     0.184 C 
ATOM     17  C   UNL     1      23.149  37.938  13.515  1.00  0.00     0.178 C 
ATOM     18  O   UNL     1      23.492  37.551  14.787  1.00  0.00    -0.341 OA
ATOM     19  C   UNL     1      24.692  36.843  14.875  1.00  0.00     0.281 C 
ATOM     20  C   UNL     1      25.153  37.121  12.422  1.00  0.00     0.180 C 
ATOM     21  C   UNL     1      25.672  37.303  13.807  1.00  0.00     0.202 C 
BRANCH  17  22
ATOM     22  C   UNL     1      21.650  38.170  13.520  1.00  0.00     0.191 C 
BRANCH  22  23
ATOM     23  O   UNL     1      21.018  37.173  14.259  1.00  0.00    -0.394 OA
ATOM     24  H   UNL     1      20.386  37.542  14.919  1.00  0.00     0.210 HD
ENDBRANCH  22  23
ENDBRANCH  17  22
BRANCH  19  25
ATOM     25  O   UNL     1      24.444  35.517  14.843  1.00  0.00    -0.350 OA
BRANCH  25  26
ATOM     26  C   UNL     1      25.373  34.627  15.260  1.00  0.00     0.169 C 
BRANCH  26  27
ATOM     27  C   UNL     1      25.722  33.498  14.354  1.00  0.00     0.119 C 
BRANCH  27  28
ATOM     28  N   UNL     1      25.081  33.575  13.080  1.00  0.00    -0.092 NA
ATOM     29  N   UNL     1      24.002  33.017  12.897  1.00  0.00     0.001 N 
ATOM     30  N   UNL     1      22.770  32.914  12.777  1.00  0.00    -0.003 NA
ENDBRANCH  27  28
ENDBRANCH  26  27
ENDBRANCH  25  26
ENDBRANCH  19  25
BRANCH  20  31
ATOM     31  O   UNL     1      25.701  35.994  11.812  1.00  0.00    -0.387 OA
ATOM     32  H   UNL     1      25.842  35.333  12.529  1.00  0.00     0.211 HD
ENDBRANCH  20  31
BRANCH  21  33
ATOM     33  O   UNL     1      25.932  38.666  14.071  1.00  0.00    -0.385 OA
ATOM     34  H   UNL     1      25.721  39.201  13.253  1.00  0.00     0.211 HD
ENDBRANCH  21  33
ENDBRANCH  15  16
ENDBRANCH  10  15
BRANCH  12  35
ATOM     35  O   UNL     1      20.734  35.047   9.730  1.00  0.00    -0.385 OA
ATOM     36  H   UNL     1      19.987  34.834  10.327  1.00  0.00     0.211 HD
ENDBRANCH  12  35
BRANCH  13  37
ATOM     37  O   UNL     1      21.542  38.433   8.960  1.00  0.00    -0.387 OA
ATOM     38  H   UNL     1      21.596  38.572   9.944  1.00  0.00     0.211 HD
ENDBRANCH  13  37
BRANCH  14  39
ATOM     39  O   UNL     1      22.813  37.314   6.878  1.00  0.00    -0.387 OA
ATOM     40  H   UNL     1      23.767  37.578   6.971  1.00  0.00     0.211 HD
ENDBRANCH  14  39
ENDBRANCH   8   9
ENDBRANCH   7   8
ENDBRANCH   1   7
BRANCH   1  41
ATOM     41  C   UNL     1      27.372  36.660   6.438  1.00  0.00     0.364 C 
ATOM     42  O   UNL     1      28.075  35.634   6.367  1.00  0.00    -0.246 OA
BRANCH  41  43
ATOM     43  O   UNL     1      26.954  37.285   5.292  1.00  0.00    -0.477 OA
ATOM     44  H   UNL     1      26.020  37.645   5.172  1.00  0.00     0.296 HD
ENDBRANCH  41  43
ENDBRANCH   1  41
BRANCH   3  45
ATOM     45  O   UNL     1      27.788  37.868  10.878  1.00  0.00    -0.391 OA
ATOM     46  H   UNL     1      27.575  38.571  11.542  1.00  0.00     0.211 HD
ENDBRANCH   3  45
BRANCH   5  47
ATOM     47  C   UNL     1      26.277  40.810   7.356  1.00  0.00     0.176 C 
BRANCH  47  48
ATOM     48  O   UNL     1      27.081  41.837   6.964  1.00  0.00    -0.388 OA
ATOM     49  H   UNL     1      26.958  42.703   7.377  1.00  0.00     0.211 HD
ENDBRANCH  47  48
BRANCH  47  50
ATOM     50  C   UNL     1      25.307  40.454   6.262  1.00  0.00     0.165 C 
BRANCH  50  51
ATOM     51  O   UNL     1      26.086  39.945   5.194  1.00  0.00    -0.388 OA
ATOM     52  H   UNL     1      26.761  39.311   5.559  1.00  0.00     0.211 HD
ENDBRANCH  50  51
BRANCH  50  53
ATOM     53  C   UNL     1      24.543  41.609   5.707  1.00  0.00     0.154 C 
BRANCH  53  54
ATOM     54  N   UNL     1      25.097  42.227   4.549  1.00  0.00    -0.319 N 
ATOM     55  C   UNL     1      25.731  43.499   4.579  1.00  0.00     0.407 C 
ATOM     56  H   UNL     1      25.051  41.749   3.608  1.00  0.00     0.167 HD
ATOM     57  O   UNL     1      25.811  44.110   5.654  1.00  0.00    -0.225 OA
BRANCH  55  58
ATOM     58  O   UNL     1      26.269  44.083   3.427  1.00  0.00    -0.443 OA
BRANCH  58  59
ATOM     59  C   UNL     1      27.607  43.931   3.060  1.00  0.00     0.294 C 
BRANCH  59  60
ATOM     60  C   UNL     1      28.323  42.854   3.754  1.00  0.00     0.120 A 
ATOM     61  C   UNL     1      29.476  43.031   4.478  1.00  0.00     0.139 A 
ATOM     62  N   UNL     1      27.971  41.563   3.791  1.00  0.00    -0.132 NA
ATOM     63  N   UNL     1      29.804  41.824   4.945  1.00  0.00    -0.237 N 
ATOM     64  N   UNL     1      28.887  40.950   4.523  1.00  0.00    -0.066 NA
BRANCH  63  65
ATOM     65  C   UNL     1      30.961  41.531   5.769  1.00  0.00     0.223 C 
BRANCH  65  66
ATOM     66  C   UNL     1      30.582  41.711   7.203  1.00  0.00     0.197 C 
BRANCH  66  67
ATOM     67  O   UNL     1      31.595  41.345   8.053  1.00  0.00    -0.382 OA
ATOM     68  C   UNL     1      31.119  41.030   9.299  1.00  0.00     0.195 C 
ENDBRANCH  66  67
ENDBRANCH  65  66
BRANCH  65  69
ATOM     69  C   UNL     1      31.327  40.102   5.493  1.00  0.00     0.244 C 
ATOM     70  O   UNL     1      32.286  39.866   4.731  1.00  0.00    -0.273 OA
ATOM     71  N   UNL     1      30.574  39.069   6.106  1.00  0.00    -0.368 N 
ATOM     72  H   UNL     1      29.895  38.470   5.607  1.00  0.00     0.159 HD
ATOM     73  H   UNL     1      30.718  38.909   7.126  1.00  0.00     0.159 HD
ENDBRANCH  65  69
ENDBRANCH  63  65
ENDBRANCH  59  60
ENDBRANCH  58  59
ENDBRANCH  55  58
ENDBRANCH  53  54
ENDBRANCH  50  53
ENDBRANCH  47  50
ENDBRANCH   5  47
BRANCH   4  74
ATOM     74  N   UNL     1      27.764  40.869   9.773  1.00  0.00    -0.348 N 
ATOM     75  C   UNL     1      27.579  41.364  11.092  1.00  0.00     0.217 C 
ATOM     76  H   UNL     1      28.332  41.472   9.127  1.00  0.00     0.163 HD
ATOM     77  C   UNL     1      28.122  42.640  11.586  1.00  0.00     0.114 C 
ATOM     78  O   UNL     1      26.895  40.639  11.892  1.00  0.00    -0.275 OA
ENDBRANCH   4  74
TORSDOF 33
BEGIN_RES LYS A 131
REMARK  4 active torsions:
REMARK  status: ('A' for Active; 'I' for Inactive)
REMARK    1  A    between atoms: CA   and  CB  
REMARK    2  A    between atoms: CB   and  CG  
REMARK    3  A    between atoms: CG   and  CD  
REMARK    4  A    between atoms: CD   and  CE  
ROOT
ATOM      1  CA  LYS A 131      29.867  25.555  16.977  1.00 20.52     0.186 C 
ENDROOT
BRANCH   1   2
ATOM      2  CB  LYS A 131      28.345  25.722  17.026  1.00 20.94     0.034 C 
BRANCH   2   3
ATOM      3  CG  LYS A 131      27.599  24.456  16.633  1.00 22.96     0.005 C 
BRANCH   3   4
ATOM      4  CD  LYS A 131      27.053  23.726  17.829  1.00 24.33     0.041 C 
BRANCH   4   5
ATOM      5  CE  LYS A 131      25.559  24.008  17.959  1.00 26.91     0.338 C 
ATOM      6  NZ  LYS A 131      24.770  22.818  17.563  1.00 27.40     0.618 N 
ENDBRANCH   4   5
ENDBRANCH   3   4
ENDBRANCH   2   3
ENDBRANCH   1   2
END_RES LYS A 131
BEGIN_RES LYS A 135
REMARK  4 active torsions:
REMARK  status: ('A' for Active; 'I' for Inactive)
REMARK    5  A    between atoms: CA   and  CB  
REMARK    6  A    between atoms: CB   and  CG  
REMARK    7  A    between atoms: CG   and  CD  
REMARK    8  A    between atoms: CD   and  CE  
ROOT
ATOM      7  CA  LYS A 135      33.193  34.663   9.290  1.00 25.02     0.186 C 
ENDROOT
BRANCH   7   8
ATOM      8  CB  LYS A 135      32.060  35.360  10.034  1.00 26.63     0.034 C 
BRANCH   8   9
ATOM      9  CG  LYS A 135      30.783  35.449   9.240  1.00 29.45     0.005 C 
BRANCH   9  10
ATOM     10  CD  LYS A 135      30.213  34.063   8.982  1.00 32.00     0.041 C 
BRANCH  10  11
ATOM     11  CE  LYS A 135      28.752  34.004   9.384  1.00 34.25     0.338 C 
ATOM     12  NZ  LYS A 135      28.554  34.525  10.765  1.00 35.99     0.618 N 
ENDBRANCH  10  11
ENDBRANCH   9  10
ENDBRANCH   8   9
ENDBRANCH   7   8
END_RES LYS A 135
