REMARK VINA RESULT:    -4.878      2.331      4.399
REMARK INTER + INTRA:         -24.416
REMARK INTER:                 -16.268
REMARK INTRA:                  -8.147
REMARK UNBOUND:               -12.409
REMARK SMILES CC(=O)N[C@@H]1[C@@H](O)C[C@](OC[C@H]2O[C@@H](O[C@H]3[C@H](O)[C@@H](O)[C@H](OCCN=[N+]=[N-])O[C@@H]3CO)[C@H](O)[C@@H](O)[C@H]2O)(C(=O)O)O[C@H]1C(O)[C@H](O)CNC(=O)OCc1cn(C2c3ccccc3-c3ccccc32)nn1
REMARK SMILES IDX 9 1 8 2 6 3 5 4 42 5 41 6 10 7 11 8 12 9 14 10 13 11 32 12
REMARK SMILES IDX 34 13 36 14 15 15 16 16 29 17 28 18 21 19 17 20 19 21 30 22
REMARK SMILES IDX 31 23 22 25 23 26 24 27 25 28 26 29 27 30 18 31 20 33 33 35
REMARK SMILES IDX 35 37 37 39 38 41 39 42 40 43 7 45 43 47 44 48 45 50 46 51
REMARK SMILES IDX 47 53 48 54 49 55 50 57 51 58 52 59 53 60 54 61 70 62 55 63
REMARK SMILES IDX 69 64 56 65 57 66 68 67 58 68 62 69 63 70 67 71 59 72 61 73
REMARK SMILES IDX 64 74 66 75 60 76 65 77 4 78 2 79 1 81 3 82
REMARK H PARENT 31 24 18 32 20 34 33 36 35 38 37 40 40 44 7 46 44 49 46 52
REMARK H PARENT 48 56 4 80
REMARK Flexibility Score: inf
ROOT
ATOM      1  C   UNL     1      24.636  35.846  10.464  1.00  0.00     0.272 C 
ATOM      2  C   UNL     1      25.248  37.012  11.127  1.00  0.00     0.113 C 
ATOM      3  C   UNL     1      26.111  36.643  12.273  1.00  0.00     0.145 C 
ATOM      4  C   UNL     1      25.821  35.284  12.847  1.00  0.00     0.142 C 
ATOM      5  C   UNL     1      24.385  34.960  12.617  1.00  0.00     0.178 C 
ATOM      6  O   UNL     1      23.935  35.000  11.336  1.00  0.00    -0.332 OA
ENDROOT
BRANCH   1   7
ATOM      7  O   UNL     1      25.531  35.085   9.760  1.00  0.00    -0.338 OA
BRANCH   7   8
ATOM      8  C   UNL     1      26.373  35.747   8.910  1.00  0.00     0.199 C 
BRANCH   8   9
ATOM      9  C   UNL     1      27.228  34.756   8.151  1.00  0.00     0.179 C 
ATOM     10  C   UNL     1      28.742  36.398   7.436  1.00  0.00     0.282 C 
ATOM     11  O   UNL     1      27.839  35.424   7.115  1.00  0.00    -0.341 OA
ATOM     12  C   UNL     1      29.664  35.948   8.503  1.00  0.00     0.202 C 
ATOM     13  C   UNL     1      29.635  34.409   8.455  1.00  0.00     0.179 C 
ATOM     14  C   UNL     1      28.241  34.073   9.028  1.00  0.00     0.177 C 
BRANCH  10  15
ATOM     15  O   UNL     1      28.149  37.624   7.576  1.00  0.00    -0.341 OA
BRANCH  15  16
ATOM     16  C   UNL     1      28.594  38.624   6.754  1.00  0.00     0.184 C 
ATOM     17  C   UNL     1      28.927  39.843   7.529  1.00  0.00     0.178 C 
ATOM     18  O   UNL     1      28.556  41.023   6.894  1.00  0.00    -0.341 OA
ATOM     19  C   UNL     1      28.641  40.973   5.541  1.00  0.00     0.281 C 
ATOM     20  C   UNL     1      27.450  38.848   5.768  1.00  0.00     0.180 C 
ATOM     21  C   UNL     1      27.482  40.122   5.031  1.00  0.00     0.202 C 
BRANCH  17  22
ATOM     22  C   UNL     1      30.409  39.944   7.821  1.00  0.00     0.191 C 
BRANCH  22  23
ATOM     23  O   UNL     1      31.115  38.912   7.156  1.00  0.00    -0.394 OA
ATOM     24  H   UNL     1      31.232  38.133   7.780  1.00  0.00     0.210 HD
ENDBRANCH  22  23
ENDBRANCH  17  22
BRANCH  19  25
ATOM     25  O   UNL     1      29.793  40.426   5.010  1.00  0.00    -0.350 OA
BRANCH  25  26
ATOM     26  C   UNL     1      30.707  41.344   4.575  1.00  0.00     0.169 C 
BRANCH  26  27
ATOM     27  C   UNL     1      32.090  40.848   4.330  1.00  0.00     0.119 C 
BRANCH  27  28
ATOM     28  N   UNL     1      32.919  40.852   5.518  1.00  0.00    -0.092 NA
ATOM     29  N   UNL     1      34.034  40.324   5.411  1.00  0.00     0.001 N 
ATOM     30  N   UNL     1      35.116  39.727   5.413  1.00  0.00    -0.003 NA
ENDBRANCH  27  28
ENDBRANCH  26  27
ENDBRANCH  25  26
ENDBRANCH  19  25
BRANCH  20  31
ATOM     31  O   UNL     1      27.454  37.794   4.816  1.00  0.00    -0.387 OA
ATOM     32  H   UNL     1      27.828  36.971   5.219  1.00  0.00     0.211 HD
ENDBRANCH  20  31
BRANCH  21  33
ATOM     33  O   UNL     1      26.312  40.855   5.271  1.00  0.00    -0.385 OA
ATOM     34  H   UNL     1      25.520  40.273   5.412  1.00  0.00     0.211 HD
ENDBRANCH  21  33
ENDBRANCH  15  16
ENDBRANCH  10  15
BRANCH  12  35
ATOM     35  O   UNL     1      30.996  36.288   8.269  1.00  0.00    -0.385 OA
ATOM     36  H   UNL     1      31.571  35.636   8.734  1.00  0.00     0.211 HD
ENDBRANCH  12  35
BRANCH  13  37
ATOM     37  O   UNL     1      30.561  33.857   9.308  1.00  0.00    -0.387 OA
ATOM     38  H   UNL     1      30.791  32.953   8.981  1.00  0.00     0.211 HD
ENDBRANCH  13  37
BRANCH  14  39
ATOM     39  O   UNL     1      28.212  34.640  10.288  1.00  0.00    -0.387 OA
ATOM     40  H   UNL     1      27.354  35.085  10.492  1.00  0.00     0.211 HD
ENDBRANCH  14  39
ENDBRANCH   8   9
ENDBRANCH   7   8
ENDBRANCH   1   7
BRANCH   1  41
ATOM     41  C   UNL     1      23.523  36.307   9.522  1.00  0.00     0.364 C 
ATOM     42  O   UNL     1      22.768  35.444   9.062  1.00  0.00    -0.246 OA
BRANCH  41  43
ATOM     43  O   UNL     1      23.360  37.629   9.192  1.00  0.00    -0.477 OA
ATOM     44  H   UNL     1      23.834  38.041   8.378  1.00  0.00     0.296 HD
ENDBRANCH  41  43
ENDBRANCH   1  41
BRANCH   3  45
ATOM     45  O   UNL     1      27.482  36.748  12.035  1.00  0.00    -0.391 OA
ATOM     46  H   UNL     1      27.902  37.479  12.512  1.00  0.00     0.211 HD
ENDBRANCH   3  45
BRANCH   5  47
ATOM     47  C   UNL     1      24.103  33.573  13.190  1.00  0.00     0.176 C 
BRANCH  47  48
ATOM     48  O   UNL     1      25.140  32.732  12.881  1.00  0.00    -0.388 OA
ATOM     49  H   UNL     1      24.807  31.824  12.608  1.00  0.00     0.211 HD
ENDBRANCH  47  48
BRANCH  47  50
ATOM     50  C   UNL     1      22.798  33.092  12.632  1.00  0.00     0.165 C 
BRANCH  50  51
ATOM     51  O   UNL     1      21.768  33.965  13.026  1.00  0.00    -0.388 OA
ATOM     52  H   UNL     1      21.006  33.902  12.409  1.00  0.00     0.211 HD
ENDBRANCH  50  51
BRANCH  50  53
ATOM     53  C   UNL     1      22.481  31.764  13.331  1.00  0.00     0.154 C 
BRANCH  53  54
ATOM     54  N   UNL     1      23.141  31.765  14.600  1.00  0.00    -0.319 N 
ATOM     55  C   UNL     1      23.800  30.611  15.071  1.00  0.00     0.407 C 
ATOM     56  H   UNL     1      23.137  32.633  15.188  1.00  0.00     0.167 HD
ATOM     57  O   UNL     1      23.818  29.548  14.398  1.00  0.00    -0.225 OA
BRANCH  55  58
ATOM     58  O   UNL     1      24.457  30.588  16.285  1.00  0.00    -0.443 OA
BRANCH  58  59
ATOM     59  C   UNL     1      25.332  31.622  16.709  1.00  0.00     0.294 C 
BRANCH  59  60
ATOM     60  C   UNL     1      26.720  31.127  16.534  1.00  0.00     0.120 A 
ATOM     61  C   UNL     1      27.890  31.648  17.070  1.00  0.00     0.139 A 
ATOM     62  N   UNL     1      27.104  30.063  15.813  1.00  0.00    -0.132 NA
ATOM     63  N   UNL     1      28.929  30.898  16.668  1.00  0.00    -0.240 N 
ATOM     64  N   UNL     1      28.418  29.944  15.906  1.00  0.00    -0.066 NA
BRANCH  63  65
ATOM     65  C   UNL     1      30.339  31.099  17.007  1.00  0.00     0.170 C 
ATOM     66  C   UNL     1      30.431  31.356  18.447  1.00  0.00    -0.011 A 
ATOM     67  C   UNL     1      30.847  32.337  16.390  1.00  0.00    -0.011 A 
ATOM     68  C   UNL     1      30.109  30.577  19.552  1.00  0.00     0.007 A 
ATOM     69  C   UNL     1      30.933  32.606  18.689  1.00  0.00    -0.012 A 
ATOM     70  C   UNL     1      31.191  33.218  17.387  1.00  0.00    -0.012 A 
ATOM     71  C   UNL     1      31.021  32.727  15.075  1.00  0.00     0.007 A 
ATOM     72  C   UNL     1      30.293  31.056  20.829  1.00  0.00     0.000 A 
ATOM     73  C   UNL     1      31.116  33.088  19.977  1.00  0.00     0.009 A 
ATOM     74  C   UNL     1      31.701  34.462  17.092  1.00  0.00     0.009 A 
ATOM     75  C   UNL     1      31.528  33.966  14.758  1.00  0.00     0.000 A 
ATOM     76  C   UNL     1      30.800  32.323  21.075  1.00  0.00     0.001 A 
ATOM     77  C   UNL     1      31.870  34.838  15.771  1.00  0.00     0.001 A 
ENDBRANCH  63  65
ENDBRANCH  59  60
ENDBRANCH  58  59
ENDBRANCH  55  58
ENDBRANCH  53  54
ENDBRANCH  50  53
ENDBRANCH  47  50
ENDBRANCH   5  47
BRANCH   4  78
ATOM     78  N   UNL     1      25.982  35.412  14.308  1.00  0.00    -0.348 N 
ATOM     79  C   UNL     1      27.165  34.988  14.966  1.00  0.00     0.217 C 
ATOM     80  H   UNL     1      25.202  35.820  14.841  1.00  0.00     0.163 HD
ATOM     81  C   UNL     1      27.314  35.125  16.449  1.00  0.00     0.114 C 
ATOM     82  O   UNL     1      28.090  34.494  14.262  1.00  0.00    -0.275 OA
ENDBRANCH   4  78
TORSDOF 30
BEGIN_RES LYS A 131
REMARK  4 active torsions:
REMARK  status: ('A' for Active; 'I' for Inactive)
REMARK    1  A    between atoms: CA   and  CB  
REMARK    2  A    between atoms: CB   and  CG  
REMARK    3  A    between atoms: CG   and  CD  
REMARK    4  A    between atoms: CD   and  CE  
ROOT
ATOM      1  CA  LYS A 131      29.867  25.555  16.977  1.00 20.52     0.186 C 
ENDROOT
BRANCH   1   2
ATOM      2  CB  LYS A 131      28.345  25.722  17.026  1.00 20.94     0.034 C 
BRANCH   2   3
ATOM      3  CG  LYS A 131      27.601  24.402  16.892  1.00 22.96     0.005 C 
BRANCH   3   4
ATOM      4  CD  LYS A 131      26.535  24.244  17.940  1.00 24.33     0.041 C 
BRANCH   4   5
ATOM      5  CE  LYS A 131      25.160  24.331  17.284  1.00 26.91     0.338 C 
ATOM      6  NZ  LYS A 131      24.307  25.312  17.995  1.00 27.40     0.618 N 
ENDBRANCH   4   5
ENDBRANCH   3   4
ENDBRANCH   2   3
ENDBRANCH   1   2
END_RES LYS A 131
BEGIN_RES LYS A 135
REMARK  4 active torsions:
REMARK  status: ('A' for Active; 'I' for Inactive)
REMARK    5  A    between atoms: CA   and  CB  
REMARK    6  A    between atoms: CB   and  CG  
REMARK    7  A    between atoms: CG   and  CD  
REMARK    8  A    between atoms: CD   and  CE  
ROOT
ATOM      7  CA  LYS A 135      33.193  34.663   9.290  1.00 25.02     0.186 C 
ENDROOT
BRANCH   7   8
ATOM      8  CB  LYS A 135      32.060  35.360  10.034  1.00 26.63     0.034 C 
BRANCH   8   9
ATOM      9  CG  LYS A 135      32.488  35.981  11.338  1.00 29.45     0.005 C 
BRANCH   9  10
ATOM     10  CD  LYS A 135      31.312  36.664  12.020  1.00 32.00     0.041 C 
BRANCH  10  11
ATOM     11  CE  LYS A 135      31.068  38.033  11.416  1.00 34.25     0.338 C 
ATOM     12  NZ  LYS A 135      31.098  39.093  12.462  1.00 35.99     0.618 N 
ENDBRANCH  10  11
ENDBRANCH   9  10
ENDBRANCH   8   9
ENDBRANCH   7   8
END_RES LYS A 135
