REMARK VINA RESULT:    -3.923      5.237     11.651
REMARK INTER + INTRA:         -21.727
REMARK INTER:                 -13.044
REMARK INTRA:                  -8.683
REMARK UNBOUND:               -12.070
REMARK SMILES CC(=O)N[C@@H]1[C@@H](O)C[C@](OC[C@H]2O[C@@H](O[C@H]3[C@H](O)[C@@H](O)[C@H](OCCN=[N+]=[N-])O[C@@H]3CO)[C@H](O)[C@@H](O)[C@H]2O)(C(=O)O)O[C@H]1C(O)[C@H](O)CNC(=O)OCc1cn(-c2ccccc2I)nn1
REMARK SMILES IDX 9 1 8 2 6 3 5 4 42 5 41 6 10 7 11 8 12 9 14 10 13 11 32 12
REMARK SMILES IDX 34 13 36 14 15 15 16 16 29 17 28 18 21 19 17 20 19 21 30 22
REMARK SMILES IDX 31 23 22 25 23 26 24 27 25 28 26 29 27 30 18 31 20 33 33 35
REMARK SMILES IDX 35 37 37 39 38 41 39 42 40 43 7 45 43 47 44 48 45 50 46 51
REMARK SMILES IDX 47 53 48 54 49 55 50 57 51 58 52 59 53 60 54 61 64 62 55 63
REMARK SMILES IDX 63 64 56 65 57 66 61 67 58 68 60 69 62 70 59 71 4 72 2 73
REMARK SMILES IDX 1 75 3 76
REMARK H PARENT 31 24 18 32 20 34 33 36 35 38 37 40 40 44 7 46 44 49 46 52
REMARK H PARENT 48 56 4 74
REMARK Flexibility Score: inf
ROOT
ATOM      1  C   UNL     1      30.424  33.244  16.859  1.00  0.00     0.272 C 
ATOM      2  C   UNL     1      31.634  34.097  16.603  1.00  0.00     0.113 C 
ATOM      3  C   UNL     1      31.244  35.570  16.395  1.00  0.00     0.145 C 
ATOM      4  C   UNL     1      30.391  35.573  15.093  1.00  0.00     0.142 C 
ATOM      5  C   UNL     1      29.315  34.533  15.228  1.00  0.00     0.178 C 
ATOM      6  O   UNL     1      29.306  34.092  16.557  1.00  0.00    -0.332 OA
ENDROOT
BRANCH   1   7
ATOM      7  O   UNL     1      30.174  32.856  18.137  1.00  0.00    -0.338 OA
BRANCH   7   8
ATOM      8  C   UNL     1      30.871  32.068  18.901  1.00  0.00     0.199 C 
BRANCH   8   9
ATOM      9  C   UNL     1      30.434  31.720  20.268  1.00  0.00     0.179 C 
ATOM     10  C   UNL     1      28.479  30.539  20.227  1.00  0.00     0.282 C 
ATOM     11  O   UNL     1      29.107  31.714  20.540  1.00  0.00    -0.341 OA
ATOM     12  C   UNL     1      28.794  29.466  21.262  1.00  0.00     0.202 C 
ATOM     13  C   UNL     1      30.213  29.743  21.810  1.00  0.00     0.179 C 
ATOM     14  C   UNL     1      31.030  30.339  20.680  1.00  0.00     0.177 C 
BRANCH  10  15
ATOM     15  O   UNL     1      28.474  30.133  18.931  1.00  0.00    -0.341 OA
BRANCH  15  16
ATOM     16  C   UNL     1      27.259  30.182  18.286  1.00  0.00     0.184 C 
ATOM     17  C   UNL     1      26.192  31.003  18.960  1.00  0.00     0.178 C 
ATOM     18  O   UNL     1      24.928  30.573  18.563  1.00  0.00    -0.341 OA
ATOM     19  C   UNL     1      24.900  30.015  17.280  1.00  0.00     0.281 C 
ATOM     20  C   UNL     1      26.687  28.749  18.340  1.00  0.00     0.180 C 
ATOM     21  C   UNL     1      25.653  28.711  17.223  1.00  0.00     0.202 C 
BRANCH  17  22
ATOM     22  C   UNL     1      26.359  32.483  18.840  1.00  0.00     0.191 C 
BRANCH  22  23
ATOM     23  O   UNL     1      27.414  32.703  17.947  1.00  0.00    -0.394 OA
ATOM     24  H   UNL     1      28.111  33.229  18.425  1.00  0.00     0.210 HD
ENDBRANCH  22  23
ENDBRANCH  17  22
BRANCH  19  25
ATOM     25  O   UNL     1      25.243  30.903  16.307  1.00  0.00    -0.350 OA
BRANCH  25  26
ATOM     26  C   UNL     1      24.235  31.143  15.426  1.00  0.00     0.169 C 
BRANCH  26  27
ATOM     27  C   UNL     1      24.488  30.809  13.990  1.00  0.00     0.119 C 
BRANCH  27  28
ATOM     28  N   UNL     1      23.921  29.580  13.510  1.00  0.00    -0.092 NA
ATOM     29  N   UNL     1      23.316  28.884  14.346  1.00  0.00     0.001 N 
ATOM     30  N   UNL     1      22.746  28.015  15.007  1.00  0.00    -0.003 NA
ENDBRANCH  27  28
ENDBRANCH  26  27
ENDBRANCH  25  26
ENDBRANCH  19  25
BRANCH  20  31
ATOM     31  O   UNL     1      27.685  27.815  18.139  1.00  0.00    -0.387 OA
ATOM     32  H   UNL     1      27.723  27.641  17.161  1.00  0.00     0.211 HD
ENDBRANCH  20  31
BRANCH  21  33
ATOM     33  O   UNL     1      24.830  27.593  17.340  1.00  0.00    -0.385 OA
ATOM     34  H   UNL     1      25.344  26.881  17.842  1.00  0.00     0.211 HD
ENDBRANCH  21  33
ENDBRANCH  15  16
ENDBRANCH  10  15
BRANCH  12  35
ATOM     35  O   UNL     1      27.956  29.520  22.367  1.00  0.00    -0.385 OA
ATOM     36  H   UNL     1      27.629  28.595  22.523  1.00  0.00     0.211 HD
ENDBRANCH  12  35
BRANCH  13  37
ATOM     37  O   UNL     1      30.811  28.652  22.356  1.00  0.00    -0.387 OA
ATOM     38  H   UNL     1      31.575  28.840  22.982  1.00  0.00     0.211 HD
ENDBRANCH  13  37
BRANCH  14  39
ATOM     39  O   UNL     1      30.912  29.529  19.563  1.00  0.00    -0.387 OA
ATOM     40  H   UNL     1      31.810  29.445  19.113  1.00  0.00     0.211 HD
ENDBRANCH  14  39
ENDBRANCH   8   9
ENDBRANCH   7   8
ENDBRANCH   1   7
BRANCH   1  41
ATOM     41  C   UNL     1      30.393  32.114  15.913  1.00  0.00     0.364 C 
ATOM     42  O   UNL     1      29.482  31.271  15.837  1.00  0.00    -0.246 OA
BRANCH  41  43
ATOM     43  O   UNL     1      31.450  31.916  14.999  1.00  0.00    -0.477 OA
ATOM     44  H   UNL     1      32.350  32.388  15.167  1.00  0.00     0.296 HD
ENDBRANCH  41  43
ENDBRANCH   1  41
BRANCH   3  45
ATOM     45  O   UNL     1      30.520  36.076  17.453  1.00  0.00    -0.391 OA
ATOM     46  H   UNL     1      29.769  36.626  17.126  1.00  0.00     0.211 HD
ENDBRANCH   3  45
BRANCH   5  47
ATOM     47  C   UNL     1      27.926  35.214  15.088  1.00  0.00     0.176 C 
BRANCH  47  48
ATOM     48  O   UNL     1      27.798  36.045  16.267  1.00  0.00    -0.388 OA
ATOM     49  H   UNL     1      26.891  35.819  16.636  1.00  0.00     0.211 HD
ENDBRANCH  47  48
BRANCH  47  50
ATOM     50  C   UNL     1      26.804  34.237  15.271  1.00  0.00     0.165 C 
BRANCH  50  51
ATOM     51  O   UNL     1      27.318  32.918  15.153  1.00  0.00    -0.388 OA
ATOM     52  H   UNL     1      27.170  32.563  14.241  1.00  0.00     0.211 HD
ENDBRANCH  50  51
BRANCH  50  53
ATOM     53  C   UNL     1      25.618  34.350  14.413  1.00  0.00     0.154 C 
BRANCH  53  54
ATOM     54  N   UNL     1      25.878  34.489  12.993  1.00  0.00    -0.319 N 
ATOM     55  C   UNL     1      24.826  34.939  12.139  1.00  0.00     0.407 C 
ATOM     56  H   UNL     1      26.792  34.281  12.544  1.00  0.00     0.167 HD
ATOM     57  O   UNL     1      23.685  35.197  12.646  1.00  0.00    -0.225 OA
BRANCH  55  58
ATOM     58  O   UNL     1      24.938  35.125  10.777  1.00  0.00    -0.443 OA
BRANCH  58  59
ATOM     59  C   UNL     1      24.193  36.134  10.110  1.00  0.00     0.294 C 
BRANCH  59  60
ATOM     60  C   UNL     1      25.168  37.010   9.365  1.00  0.00     0.121 A 
ATOM     61  C   UNL     1      25.136  37.383   8.041  1.00  0.00     0.144 A 
ATOM     62  N   UNL     1      26.264  37.582   9.891  1.00  0.00    -0.131 NA
ATOM     63  N   UNL     1      26.220  38.159   7.852  1.00  0.00    -0.219 N 
ATOM     64  N   UNL     1      26.899  38.277   8.976  1.00  0.00    -0.062 NA
BRANCH  63  65
ATOM     65  C   UNL     1      26.619  38.776   6.633  1.00  0.00     0.080 A 
ATOM     66  C   UNL     1      26.143  40.034   6.283  1.00  0.00     0.029 A 
ATOM     67  C   UNL     1      27.480  38.143   5.766  1.00  0.00     0.039 A 
ATOM     68  C   UNL     1      26.558  40.599   5.071  1.00  0.00     0.002 A 
ATOM     69  C   UNL     1      27.884  38.724   4.558  1.00  0.00     0.017 A 
ATOM     70  I   UNL     1      28.219  36.228   6.271  1.00  0.00    -0.042 I 
ATOM     71  C   UNL     1      27.418  39.965   4.207  1.00  0.00     0.001 A 
ENDBRANCH  63  65
ENDBRANCH  59  60
ENDBRANCH  58  59
ENDBRANCH  55  58
ENDBRANCH  53  54
ENDBRANCH  50  53
ENDBRANCH  47  50
ENDBRANCH   5  47
BRANCH   4  72
ATOM     72  N   UNL     1      31.315  35.389  14.034  1.00  0.00    -0.348 N 
ATOM     73  C   UNL     1      31.706  36.454  13.146  1.00  0.00     0.217 C 
ATOM     74  H   UNL     1      31.768  34.481  13.831  1.00  0.00     0.163 HD
ATOM     75  C   UNL     1      32.666  36.273  12.040  1.00  0.00     0.114 C 
ATOM     76  O   UNL     1      31.177  37.577  13.360  1.00  0.00    -0.275 OA
ENDBRANCH   4  72
TORSDOF 30
BEGIN_RES LYS A 131
REMARK  4 active torsions:
REMARK  status: ('A' for Active; 'I' for Inactive)
REMARK    1  A    between atoms: CA   and  CB  
REMARK    2  A    between atoms: CB   and  CG  
REMARK    3  A    between atoms: CG   and  CD  
REMARK    4  A    between atoms: CD   and  CE  
ROOT
ATOM      1  CA  LYS A 131      29.867  25.555  16.977  1.00 20.52     0.186 C 
ENDROOT
BRANCH   1   2
ATOM      2  CB  LYS A 131      28.345  25.722  17.026  1.00 20.94     0.034 C 
BRANCH   2   3
ATOM      3  CG  LYS A 131      27.599  24.477  16.572  1.00 22.96     0.005 C 
BRANCH   3   4
ATOM      4  CD  LYS A 131      26.317  24.276  17.332  1.00 24.33     0.041 C 
BRANCH   4   5
ATOM      5  CE  LYS A 131      26.467  24.839  18.742  1.00 26.91     0.338 C 
ATOM      6  NZ  LYS A 131      25.219  24.640  19.515  1.00 27.40     0.618 N 
ENDBRANCH   4   5
ENDBRANCH   3   4
ENDBRANCH   2   3
ENDBRANCH   1   2
END_RES LYS A 131
BEGIN_RES LYS A 135
REMARK  4 active torsions:
REMARK  status: ('A' for Active; 'I' for Inactive)
REMARK    5  A    between atoms: CA   and  CB  
REMARK    6  A    between atoms: CB   and  CG  
REMARK    7  A    between atoms: CG   and  CD  
REMARK    8  A    between atoms: CD   and  CE  
ROOT
ATOM      7  CA  LYS A 135      33.193  34.663   9.290  1.00 25.02     0.186 C 
ENDROOT
BRANCH   7   8
ATOM      8  CB  LYS A 135      32.060  35.360  10.034  1.00 26.63     0.034 C 
BRANCH   8   9
ATOM      9  CG  LYS A 135      30.778  35.434   9.246  1.00 29.45     0.005 C 
BRANCH   9  10
ATOM     10  CD  LYS A 135      30.158  34.053   9.097  1.00 32.00     0.041 C 
BRANCH  10  11
ATOM     11  CE  LYS A 135      28.730  34.053   9.606  1.00 34.25     0.338 C 
ATOM     12  NZ  LYS A 135      28.572  34.977  10.763  1.00 35.99     0.618 N 
ENDBRANCH  10  11
ENDBRANCH   9  10
ENDBRANCH   8   9
ENDBRANCH   7   8
END_RES LYS A 135
