REMARK VINA RESULT:    -3.675      2.274      3.614
REMARK INTER + INTRA:         -21.590
REMARK INTER:                 -10.664
REMARK INTRA:                 -10.926
REMARK UNBOUND:               -12.543
REMARK SMILES CC(=O)N[C@@H]1[C@@H](O)C[C@](OC[C@H]2O[C@@H](O[C@H]3[C@H](O)[C@@H](O)[C@H](OCCN=[N+]=[N-])O[C@@H]3CO)[C@H](O)[C@@H](O)[C@H]2O)(C(=O)O)O[C@H]1C(O)[C@H](O)CNC(=O)OCc1cn(-c2ccncc2)nn1
REMARK SMILES IDX 9 1 8 2 6 3 5 4 42 5 41 6 10 7 11 8 12 9 14 10 13 11 32 12
REMARK SMILES IDX 34 13 36 14 15 15 16 16 29 17 28 18 21 19 17 20 19 21 30 22
REMARK SMILES IDX 31 23 22 25 23 26 24 27 25 28 26 29 27 30 18 31 20 33 33 35
REMARK SMILES IDX 35 37 37 39 38 41 39 42 40 43 7 45 43 47 44 48 45 50 46 51
REMARK SMILES IDX 47 53 48 54 49 55 50 57 51 58 52 59 53 60 54 61 63 62 55 63
REMARK SMILES IDX 62 64 56 65 57 66 61 67 58 68 60 69 59 70 4 71 2 72 1 74
REMARK SMILES IDX 3 75
REMARK H PARENT 31 24 18 32 20 34 33 36 35 38 37 40 40 44 7 46 44 49 46 52
REMARK H PARENT 48 56 4 73
REMARK Flexibility Score: inf
ROOT
ATOM      1  C   UNL     1      29.236  32.827  16.621  1.00  0.00     0.272 C 
ATOM      2  C   UNL     1      30.469  33.585  17.155  1.00  0.00     0.113 C 
ATOM      3  C   UNL     1      30.378  35.069  16.782  1.00  0.00     0.145 C 
ATOM      4  C   UNL     1      30.555  35.127  15.226  1.00  0.00     0.142 C 
ATOM      5  C   UNL     1      29.554  34.158  14.668  1.00  0.00     0.178 C 
ATOM      6  O   UNL     1      28.710  33.747  15.692  1.00  0.00    -0.332 OA
ENDROOT
BRANCH   1   7
ATOM      7  O   UNL     1      28.315  32.717  17.558  1.00  0.00    -0.338 OA
BRANCH   7   8
ATOM      8  C   UNL     1      28.050  32.168  18.660  1.00  0.00     0.199 C 
BRANCH   8   9
ATOM      9  C   UNL     1      27.056  31.052  18.763  1.00  0.00     0.179 C 
ATOM     10  C   UNL     1      25.786  29.769  17.258  1.00  0.00     0.282 C 
ATOM     11  O   UNL     1      26.709  30.778  17.402  1.00  0.00    -0.341 OA
ATOM     12  C   UNL     1      26.333  28.466  17.749  1.00  0.00     0.202 C 
ATOM     13  C   UNL     1      26.826  28.627  19.189  1.00  0.00     0.179 C 
ATOM     14  C   UNL     1      27.780  29.783  19.225  1.00  0.00     0.177 C 
BRANCH  10  15
ATOM     15  O   UNL     1      25.580  29.703  15.856  1.00  0.00    -0.341 OA
BRANCH  15  16
ATOM     16  C   UNL     1      24.672  30.599  15.401  1.00  0.00     0.184 C 
ATOM     17  C   UNL     1      23.573  30.011  14.613  1.00  0.00     0.178 C 
ATOM     18  O   UNL     1      22.623  31.001  14.283  1.00  0.00    -0.341 OA
ATOM     19  C   UNL     1      23.269  31.673  13.177  1.00  0.00     0.281 C 
ATOM     20  C   UNL     1      25.428  31.616  14.492  1.00  0.00     0.180 C 
ATOM     21  C   UNL     1      24.392  32.447  13.758  1.00  0.00     0.202 C 
BRANCH  17  22
ATOM     22  C   UNL     1      22.894  28.879  15.284  1.00  0.00     0.191 C 
BRANCH  22  23
ATOM     23  O   UNL     1      22.283  29.257  16.490  1.00  0.00    -0.394 OA
ATOM     24  H   UNL     1      22.651  30.160  16.722  1.00  0.00     0.210 HD
ENDBRANCH  22  23
ENDBRANCH  17  22
BRANCH  19  25
ATOM     25  O   UNL     1      22.302  32.489  12.658  1.00  0.00    -0.350 OA
BRANCH  25  26
ATOM     26  C   UNL     1      21.516  33.063  13.610  1.00  0.00     0.169 C 
BRANCH  26  27
ATOM     27  C   UNL     1      20.896  34.377  13.263  1.00  0.00     0.119 C 
BRANCH  27  28
ATOM     28  N   UNL     1      21.811  35.271  12.582  1.00  0.00    -0.092 NA
ATOM     29  N   UNL     1      22.896  35.615  13.029  1.00  0.00     0.001 N 
ATOM     30  N   UNL     1      23.831  36.107  13.668  1.00  0.00    -0.003 NA
ENDBRANCH  27  28
ENDBRANCH  26  27
ENDBRANCH  25  26
ENDBRANCH  19  25
BRANCH  20  31
ATOM     31  O   UNL     1      26.130  32.440  15.338  1.00  0.00    -0.387 OA
ATOM     32  H   UNL     1      25.604  32.642  16.176  1.00  0.00     0.211 HD
ENDBRANCH  20  31
BRANCH  21  33
ATOM     33  O   UNL     1      25.002  33.214  12.777  1.00  0.00    -0.385 OA
ATOM     34  H   UNL     1      25.937  32.902  12.660  1.00  0.00     0.211 HD
ENDBRANCH  21  33
ENDBRANCH  15  16
ENDBRANCH  10  15
BRANCH  12  35
ATOM     35  O   UNL     1      25.324  27.474  17.781  1.00  0.00    -0.385 OA
ATOM     36  H   UNL     1      25.797  26.625  17.950  1.00  0.00     0.211 HD
ENDBRANCH  12  35
BRANCH  13  37
ATOM     37  O   UNL     1      27.438  27.496  19.674  1.00  0.00    -0.387 OA
ATOM     38  H   UNL     1      28.074  27.727  20.421  1.00  0.00     0.211 HD
ENDBRANCH  13  37
BRANCH  14  39
ATOM     39  O   UNL     1      28.833  29.598  18.314  1.00  0.00    -0.387 OA
ATOM     40  H   UNL     1      28.567  29.975  17.421  1.00  0.00     0.211 HD
ENDBRANCH  14  39
ENDBRANCH   8   9
ENDBRANCH   7   8
ENDBRANCH   1   7
BRANCH   1  41
ATOM     41  C   UNL     1      29.631  31.566  15.987  1.00  0.00     0.364 C 
ATOM     42  O   UNL     1      30.854  31.232  15.856  1.00  0.00    -0.246 OA
BRANCH  41  43
ATOM     43  O   UNL     1      28.728  30.656  15.490  1.00  0.00    -0.477 OA
ATOM     44  H   UNL     1      27.973  30.233  15.985  1.00  0.00     0.296 HD
ENDBRANCH  41  43
ENDBRANCH   1  41
BRANCH   3  45
ATOM     45  O   UNL     1      29.125  35.540  17.064  1.00  0.00    -0.391 OA
ATOM     46  H   UNL     1      29.033  36.494  16.875  1.00  0.00     0.211 HD
ENDBRANCH   3  45
BRANCH   5  47
ATOM     47  C   UNL     1      28.570  34.800  13.681  1.00  0.00     0.176 C 
BRANCH  47  48
ATOM     48  O   UNL     1      29.482  35.660  12.924  1.00  0.00    -0.388 OA
ATOM     49  H   UNL     1      30.045  35.045  12.364  1.00  0.00     0.211 HD
ENDBRANCH  47  48
BRANCH  47  50
ATOM     50  C   UNL     1      27.529  35.670  14.237  1.00  0.00     0.165 C 
BRANCH  50  51
ATOM     51  O   UNL     1      26.418  35.084  14.795  1.00  0.00    -0.388 OA
ATOM     52  H   UNL     1      26.602  34.148  15.073  1.00  0.00     0.211 HD
ENDBRANCH  50  51
BRANCH  50  53
ATOM     53  C   UNL     1      27.336  36.972  13.561  1.00  0.00     0.154 C 
BRANCH  53  54
ATOM     54  N   UNL     1      26.700  36.925  12.270  1.00  0.00    -0.319 N 
ATOM     55  C   UNL     1      27.328  37.477  11.127  1.00  0.00     0.407 C 
ATOM     56  H   UNL     1      25.764  36.488  12.215  1.00  0.00     0.167 HD
ATOM     57  O   UNL     1      28.453  37.999  11.290  1.00  0.00    -0.225 OA
BRANCH  55  58
ATOM     58  O   UNL     1      26.784  37.472   9.874  1.00  0.00    -0.443 OA
BRANCH  58  59
ATOM     59  C   UNL     1      25.580  38.098   9.485  1.00  0.00     0.294 C 
BRANCH  59  60
ATOM     60  C   UNL     1      24.439  37.125   9.435  1.00  0.00     0.121 A 
ATOM     61  C   UNL     1      23.116  37.341   9.120  1.00  0.00     0.144 A 
ATOM     62  N   UNL     1      24.529  35.801   9.709  1.00  0.00    -0.131 NA
ATOM     63  N   UNL     1      22.453  36.174   9.209  1.00  0.00    -0.220 N 
ATOM     64  N   UNL     1      23.340  35.246   9.570  1.00  0.00    -0.062 NA
BRANCH  63  65
ATOM     65  C   UNL     1      21.065  35.996   8.959  1.00  0.00     0.069 A 
ATOM     66  C   UNL     1      20.063  36.606   9.681  1.00  0.00     0.048 A 
ATOM     67  C   UNL     1      20.697  35.163   7.925  1.00  0.00     0.048 A 
ATOM     68  C   UNL     1      18.722  36.408   9.399  1.00  0.00     0.113 A 
ATOM     69  C   UNL     1      19.354  34.970   7.650  1.00  0.00     0.113 A 
ATOM     70  N   UNL     1      18.408  35.581   8.374  1.00  0.00    -0.265 NA
ENDBRANCH  63  65
ENDBRANCH  59  60
ENDBRANCH  58  59
ENDBRANCH  55  58
ENDBRANCH  53  54
ENDBRANCH  50  53
ENDBRANCH  47  50
ENDBRANCH   5  47
BRANCH   4  71
ATOM     71  N   UNL     1      31.928  34.717  15.050  1.00  0.00    -0.348 N 
ATOM     72  C   UNL     1      32.758  35.119  13.981  1.00  0.00     0.217 C 
ATOM     73  H   UNL     1      32.351  34.080  15.750  1.00  0.00     0.163 HD
ATOM     74  C   UNL     1      34.145  34.635  13.906  1.00  0.00     0.114 C 
ATOM     75  O   UNL     1      32.319  35.885  13.101  1.00  0.00    -0.275 OA
ENDBRANCH   4  71
TORSDOF 30
BEGIN_RES LYS A 131
REMARK  4 active torsions:
REMARK  status: ('A' for Active; 'I' for Inactive)
REMARK    1  A    between atoms: CA   and  CB  
REMARK    2  A    between atoms: CB   and  CG  
REMARK    3  A    between atoms: CG   and  CD  
REMARK    4  A    between atoms: CD   and  CE  
ROOT
ATOM      1  CA  LYS A 131      29.867  25.555  16.977  1.00 20.52     0.186 C 
ENDROOT
BRANCH   1   2
ATOM      2  CB  LYS A 131      28.345  25.722  17.026  1.00 20.94     0.034 C 
BRANCH   2   3
ATOM      3  CG  LYS A 131      27.601  24.401  16.905  1.00 22.96     0.005 C 
BRANCH   3   4
ATOM      4  CD  LYS A 131      26.141  24.540  17.236  1.00 24.33     0.041 C 
BRANCH   4   5
ATOM      5  CE  LYS A 131      25.599  23.199  17.720  1.00 26.91     0.338 C 
ATOM      6  NZ  LYS A 131      25.546  23.164  19.200  1.00 27.40     0.618 N 
ENDBRANCH   4   5
ENDBRANCH   3   4
ENDBRANCH   2   3
ENDBRANCH   1   2
END_RES LYS A 131
BEGIN_RES LYS A 135
REMARK  4 active torsions:
REMARK  status: ('A' for Active; 'I' for Inactive)
REMARK    5  A    between atoms: CA   and  CB  
REMARK    6  A    between atoms: CB   and  CG  
REMARK    7  A    between atoms: CG   and  CD  
REMARK    8  A    between atoms: CD   and  CE  
ROOT
ATOM      7  CA  LYS A 135      33.193  34.663   9.290  1.00 25.02     0.186 C 
ENDROOT
BRANCH   7   8
ATOM      8  CB  LYS A 135      32.060  35.360  10.034  1.00 26.63     0.034 C 
BRANCH   8   9
ATOM      9  CG  LYS A 135      30.749  34.619   9.967  1.00 29.45     0.005 C 
BRANCH   9  10
ATOM     10  CD  LYS A 135      29.719  35.422   9.187  1.00 32.00     0.041 C 
BRANCH  10  11
ATOM     11  CE  LYS A 135      28.885  34.508   8.310  1.00 34.25     0.338 C 
ATOM     12  NZ  LYS A 135      27.565  34.221   8.936  1.00 35.99     0.618 N 
ENDBRANCH  10  11
ENDBRANCH   9  10
ENDBRANCH   8   9
ENDBRANCH   7   8
END_RES LYS A 135
