REMARK VINA RESULT:    -5.070      3.706      9.194
REMARK INTER + INTRA:         -21.600
REMARK INTER:                 -10.813
REMARK INTRA:                 -10.787
REMARK UNBOUND:                -9.122
REMARK SMILES CC(=O)N[C@@H]1[C@@H](O)C[C@](OC[C@H]2O[C@@H](O[C@H]3[C@H](O)[C@@H](O)[C@H](OCCN=[N+]=[N-])O[C@@H]3CO)[C@H](O)[C@@H](O)[C@H]2O)(C(=O)O)O[C@H]1C(O)[C@H](O)CNC(=O)OCc1cn(-c2ccc(Cl)cc2)nn1
REMARK SMILES IDX 9 1 8 2 6 3 5 4 42 5 41 6 10 7 11 8 12 9 14 10 13 11 32 12
REMARK SMILES IDX 34 13 36 14 15 15 16 16 29 17 28 18 21 19 17 20 19 21 30 22
REMARK SMILES IDX 31 23 22 25 23 26 24 27 25 28 26 29 27 30 18 31 20 33 33 35
REMARK SMILES IDX 35 37 37 39 38 41 39 42 40 43 7 45 43 47 44 48 45 50 46 51
REMARK SMILES IDX 47 53 48 54 49 55 50 57 51 58 52 59 53 60 54 61 64 62 55 63
REMARK SMILES IDX 63 64 56 65 57 66 62 67 58 68 61 69 59 70 60 71 4 72 2 73
REMARK SMILES IDX 1 75 3 76
REMARK H PARENT 31 24 18 32 20 34 33 36 35 38 37 40 40 44 7 46 44 49 46 52
REMARK H PARENT 48 56 4 74
REMARK Flexibility Score: inf
ROOT
ATOM      1  C   UNL     1      28.752  38.770   6.682  1.00  0.00     0.272 C 
ATOM      2  C   UNL     1      29.852  38.966   5.722  1.00  0.00     0.113 C 
ATOM      3  C   UNL     1      30.292  40.331   5.381  1.00  0.00     0.145 C 
ATOM      4  C   UNL     1      29.610  41.343   6.276  1.00  0.00     0.142 C 
ATOM      5  C   UNL     1      28.125  40.921   6.279  1.00  0.00     0.178 C 
ATOM      6  O   UNL     1      28.162  39.871   7.246  1.00  0.00    -0.332 OA
ENDROOT
BRANCH   1   7
ATOM      7  O   UNL     1      29.254  37.945   7.727  1.00  0.00    -0.338 OA
BRANCH   7   8
ATOM      8  C   UNL     1      29.375  38.596   8.923  1.00  0.00     0.199 C 
BRANCH   8   9
ATOM      9  C   UNL     1      29.049  37.684  10.103  1.00  0.00     0.179 C 
ATOM     10  C   UNL     1      29.586  37.887  12.385  1.00  0.00     0.282 C 
ATOM     11  O   UNL     1      30.008  37.724  11.065  1.00  0.00    -0.341 OA
ATOM     12  C   UNL     1      28.846  39.155  12.478  1.00  0.00     0.202 C 
ATOM     13  C   UNL     1      27.622  39.095  11.575  1.00  0.00     0.179 C 
ATOM     14  C   UNL     1      27.655  37.936  10.630  1.00  0.00     0.177 C 
BRANCH  10  15
ATOM     15  O   UNL     1      30.769  37.784  13.114  1.00  0.00    -0.341 OA
BRANCH  15  16
ATOM     16  C   UNL     1      30.871  36.789  13.989  1.00  0.00     0.184 C 
ATOM     17  C   UNL     1      31.618  35.605  13.490  1.00  0.00     0.178 C 
ATOM     18  O   UNL     1      31.958  34.748  14.531  1.00  0.00    -0.341 OA
ATOM     19  C   UNL     1      30.918  34.248  15.246  1.00  0.00     0.281 C 
ATOM     20  C   UNL     1      29.521  36.240  14.497  1.00  0.00     0.180 C 
ATOM     21  C   UNL     1      29.608  34.787  14.798  1.00  0.00     0.202 C 
BRANCH  17  22
ATOM     22  C   UNL     1      32.842  35.871  12.670  1.00  0.00     0.191 C 
BRANCH  22  23
ATOM     23  O   UNL     1      33.688  34.764  12.607  1.00  0.00    -0.394 OA
ATOM     24  H   UNL     1      34.622  35.065  12.701  1.00  0.00     0.210 HD
ENDBRANCH  22  23
ENDBRANCH  17  22
BRANCH  19  25
ATOM     25  O   UNL     1      31.067  34.558  16.602  1.00  0.00    -0.350 OA
BRANCH  25  26
ATOM     26  C   UNL     1      30.248  33.773  17.399  1.00  0.00     0.169 C 
BRANCH  26  27
ATOM     27  C   UNL     1      30.610  32.319  17.394  1.00  0.00     0.119 C 
BRANCH  27  28
ATOM     28  N   UNL     1      29.361  31.569  17.504  1.00  0.00    -0.092 NA
ATOM     29  N   UNL     1      28.979  31.016  16.456  1.00  0.00     0.001 N 
ATOM     30  N   UNL     1      28.756  30.178  15.557  1.00  0.00    -0.003 NA
ENDBRANCH  27  28
ENDBRANCH  26  27
ENDBRANCH  25  26
ENDBRANCH  19  25
BRANCH  20  31
ATOM     31  O   UNL     1      29.224  36.939  15.654  1.00  0.00    -0.387 OA
ATOM     32  H   UNL     1      29.901  36.645  16.343  1.00  0.00     0.211 HD
ENDBRANCH  20  31
BRANCH  21  33
ATOM     33  O   UNL     1      29.105  33.989  13.751  1.00  0.00    -0.385 OA
ATOM     34  H   UNL     1      28.865  34.622  13.038  1.00  0.00     0.211 HD
ENDBRANCH  21  33
ENDBRANCH  15  16
ENDBRANCH  10  15
BRANCH  12  35
ATOM     35  O   UNL     1      28.414  39.507  13.758  1.00  0.00    -0.385 OA
ATOM     36  H   UNL     1      27.511  39.102  13.963  1.00  0.00     0.211 HD
ENDBRANCH  12  35
BRANCH  13  37
ATOM     37  O   UNL     1      27.493  40.328  10.940  1.00  0.00    -0.387 OA
ATOM     38  H   UNL     1      26.634  40.762  11.060  1.00  0.00     0.211 HD
ENDBRANCH  13  37
BRANCH  14  39
ATOM     39  O   UNL     1      26.877  38.237   9.485  1.00  0.00    -0.387 OA
ATOM     40  H   UNL     1      26.580  39.159   9.586  1.00  0.00     0.211 HD
ENDBRANCH  14  39
ENDBRANCH   8   9
ENDBRANCH   7   8
ENDBRANCH   1   7
BRANCH   1  41
ATOM     41  C   UNL     1      27.678  37.947   6.019  1.00  0.00     0.364 C 
ATOM     42  O   UNL     1      26.816  37.329   6.681  1.00  0.00    -0.246 OA
BRANCH  41  43
ATOM     43  O   UNL     1      27.643  37.870   4.649  1.00  0.00    -0.477 OA
ATOM     44  H   UNL     1      27.372  37.034   4.134  1.00  0.00     0.296 HD
ENDBRANCH  41  43
ENDBRANCH   1  41
BRANCH   3  45
ATOM     45  O   UNL     1      31.664  40.485   5.574  1.00  0.00    -0.391 OA
ATOM     46  H   UNL     1      32.086  39.612   5.465  1.00  0.00     0.211 HD
ENDBRANCH   3  45
BRANCH   5  47
ATOM     47  C   UNL     1      27.216  41.985   6.778  1.00  0.00     0.176 C 
BRANCH  47  48
ATOM     48  O   UNL     1      27.188  43.000   5.831  1.00  0.00    -0.388 OA
ATOM     49  H   UNL     1      27.671  43.820   6.096  1.00  0.00     0.211 HD
ENDBRANCH  47  48
BRANCH  47  50
ATOM     50  C   UNL     1      25.865  41.637   7.238  1.00  0.00     0.165 C 
BRANCH  50  51
ATOM     51  O   UNL     1      26.074  40.860   8.436  1.00  0.00    -0.388 OA
ATOM     52  H   UNL     1      26.997  40.514   8.450  1.00  0.00     0.211 HD
ENDBRANCH  50  51
BRANCH  50  53
ATOM     53  C   UNL     1      25.157  40.636   6.336  1.00  0.00     0.154 C 
BRANCH  53  54
ATOM     54  N   UNL     1      24.465  39.593   7.041  1.00  0.00    -0.319 N 
ATOM     55  C   UNL     1      23.097  39.778   7.366  1.00  0.00     0.407 C 
ATOM     56  H   UNL     1      24.920  38.696   7.335  1.00  0.00     0.167 HD
ATOM     57  O   UNL     1      22.474  40.842   7.066  1.00  0.00    -0.225 OA
BRANCH  55  58
ATOM     58  O   UNL     1      22.386  38.795   8.028  1.00  0.00    -0.443 OA
BRANCH  58  59
ATOM     59  C   UNL     1      22.426  38.656   9.451  1.00  0.00     0.294 C 
BRANCH  59  60
ATOM     60  C   UNL     1      23.364  37.563   9.836  1.00  0.00     0.121 A 
ATOM     61  C   UNL     1      23.568  37.101  11.129  1.00  0.00     0.144 A 
ATOM     62  N   UNL     1      24.163  36.841   9.038  1.00  0.00    -0.131 NA
ATOM     63  N   UNL     1      24.479  36.121  11.076  1.00  0.00    -0.220 N 
ATOM     64  N   UNL     1      24.814  35.988   9.824  1.00  0.00    -0.062 NA
BRANCH  63  65
ATOM     65  C   UNL     1      24.925  35.420  12.238  1.00  0.00     0.066 A 
ATOM     66  C   UNL     1      25.484  36.084  13.301  1.00  0.00     0.030 A 
ATOM     67  C   UNL     1      24.802  34.060  12.316  1.00  0.00     0.030 A 
ATOM     68  C   UNL     1      25.929  35.427  14.450  1.00  0.00     0.023 A 
ATOM     69  C   UNL     1      25.236  33.382  13.446  1.00  0.00     0.023 A 
ATOM     70  C   UNL     1      25.804  34.066  14.521  1.00  0.00     0.041 A 
ATOM     71  Cl  UNL     1      26.353  33.190  15.953  1.00  0.00    -0.084 Cl
ENDBRANCH  63  65
ENDBRANCH  59  60
ENDBRANCH  58  59
ENDBRANCH  55  58
ENDBRANCH  53  54
ENDBRANCH  50  53
ENDBRANCH  47  50
ENDBRANCH   5  47
BRANCH   4  72
ATOM     72  N   UNL     1      29.849  42.668   5.844  1.00  0.00    -0.348 N 
ATOM     73  C   UNL     1      30.816  43.479   6.537  1.00  0.00     0.217 C 
ATOM     74  H   UNL     1      29.390  43.123   5.039  1.00  0.00     0.163 HD
ATOM     75  C   UNL     1      31.093  44.880   6.107  1.00  0.00     0.114 C 
ATOM     76  O   UNL     1      31.424  42.976   7.516  1.00  0.00    -0.275 OA
ENDBRANCH   4  72
TORSDOF 30
BEGIN_RES LYS A 131
REMARK  4 active torsions:
REMARK  status: ('A' for Active; 'I' for Inactive)
REMARK    1  A    between atoms: CA   and  CB  
REMARK    2  A    between atoms: CB   and  CG  
REMARK    3  A    between atoms: CG   and  CD  
REMARK    4  A    between atoms: CD   and  CE  
ROOT
ATOM      1  CA  LYS A 131      29.867  25.555  16.977  1.00 20.52     0.186 C 
ENDROOT
BRANCH   1   2
ATOM      2  CB  LYS A 131      28.345  25.722  17.026  1.00 20.94     0.034 C 
BRANCH   2   3
ATOM      3  CG  LYS A 131      27.604  24.394  17.008  1.00 22.96     0.005 C 
BRANCH   3   4
ATOM      4  CD  LYS A 131      26.180  24.533  17.471  1.00 24.33     0.041 C 
BRANCH   4   5
ATOM      5  CE  LYS A 131      25.836  23.384  18.413  1.00 26.91     0.338 C 
ATOM      6  NZ  LYS A 131      25.034  22.357  17.706  1.00 27.40     0.618 N 
ENDBRANCH   4   5
ENDBRANCH   3   4
ENDBRANCH   2   3
ENDBRANCH   1   2
END_RES LYS A 131
BEGIN_RES LYS A 135
REMARK  4 active torsions:
REMARK  status: ('A' for Active; 'I' for Inactive)
REMARK    5  A    between atoms: CA   and  CB  
REMARK    6  A    between atoms: CB   and  CG  
REMARK    7  A    between atoms: CG   and  CD  
REMARK    8  A    between atoms: CD   and  CE  
ROOT
ATOM      7  CA  LYS A 135      33.193  34.663   9.290  1.00 25.02     0.186 C 
ENDROOT
BRANCH   7   8
ATOM      8  CB  LYS A 135      32.060  35.360  10.034  1.00 26.63     0.034 C 
BRANCH   8   9
ATOM      9  CG  LYS A 135      30.740  34.640   9.932  1.00 29.45     0.005 C 
BRANCH   9  10
ATOM     10  CD  LYS A 135      30.328  34.477   8.477  1.00 32.00     0.041 C 
BRANCH  10  11
ATOM     11  CE  LYS A 135      28.818  34.513   8.344  1.00 34.25     0.338 C 
ATOM     12  NZ  LYS A 135      28.161  33.849   9.504  1.00 35.99     0.618 N 
ENDBRANCH  10  11
ENDBRANCH   9  10
ENDBRANCH   8   9
ENDBRANCH   7   8
END_RES LYS A 135
