REMARK VINA RESULT:    -4.894      3.849      6.401
REMARK INTER + INTRA:         -23.874
REMARK INTER:                  -9.587
REMARK INTRA:                 -14.287
REMARK UNBOUND:               -10.398
REMARK SMILES CC(=O)N[C@@H]1[C@@H](O)C[C@](OC[C@H]2O[C@@H](O[C@H]3[C@H](O)[C@@H](O)[C@H](OCCN=[N+]=[N-])O[C@@H]3CO)[C@H](O)[C@@H](O)[C@H]2O)(C(=O)O)O[C@H]1C(O)[C@H](O)CNC(=O)OCc1cn([C@@H](CCC(=O)O)C(=O)O)nn1
REMARK SMILES IDX 43 1 42 2 9 3 8 4 41 5 6 6 5 7 10 8 11 9 12 10 14 11 13 12
REMARK SMILES IDX 32 13 34 14 36 15 15 16 16 17 29 18 28 19 21 20 17 21 19 22
REMARK SMILES IDX 30 23 31 24 22 26 23 27 24 28 25 29 26 30 27 31 18 32 20 34
REMARK SMILES IDX 33 36 35 38 37 40 38 42 39 43 40 44 7 46 4 48 2 49 1 51 3 52
REMARK SMILES IDX 44 53 45 55 46 56 47 58 48 59 49 60 50 62 51 63 52 64 53 65
REMARK SMILES IDX 54 66 66 67 55 68 65 69 56 70 57 71 58 72 59 73 60 74 61 75
REMARK SMILES IDX 62 77 63 78 64 79
REMARK H PARENT 31 25 18 33 20 35 33 37 35 39 37 41 40 45 7 47 4 50 44 54
REMARK H PARENT 46 57 48 61 61 76 64 80
REMARK Flexibility Score: inf
ROOT
ATOM      1  C   UNL     1      24.191  33.184  16.533  1.00  0.00     0.176 C 
ENDROOT
BRANCH   1   2
ATOM      2  C   UNL     1      23.753  32.517  15.228  1.00  0.00     0.178 C 
ATOM      3  C   UNL     1      22.774  30.447  14.680  1.00  0.00     0.272 C 
ATOM      4  C   UNL     1      23.884  30.011  13.811  1.00  0.00     0.113 C 
ATOM      5  O   UNL     1      23.382  31.248  15.671  1.00  0.00    -0.332 OA
ATOM      6  C   UNL     1      25.110  30.869  13.974  1.00  0.00     0.145 C 
ATOM      7  C   UNL     1      24.890  32.309  14.269  1.00  0.00     0.142 C 
BRANCH   3   8
ATOM      8  O   UNL     1      22.204  29.386  15.353  1.00  0.00    -0.338 OA
BRANCH   8   9
ATOM      9  C   UNL     1      22.740  28.203  15.506  1.00  0.00     0.199 C 
BRANCH   9  10
ATOM     10  C   UNL     1      23.456  27.758  16.751  1.00  0.00     0.179 C 
ATOM     11  C   UNL     1      24.913  28.870  18.194  1.00  0.00     0.282 C 
ATOM     12  O   UNL     1      24.646  28.400  16.934  1.00  0.00    -0.341 OA
ATOM     13  C   UNL     1      23.827  29.850  18.581  1.00  0.00     0.202 C 
ATOM     14  C   UNL     1      22.530  29.113  18.678  1.00  0.00     0.179 C 
ATOM     15  C   UNL     1      22.525  27.814  17.956  1.00  0.00     0.177 C 
BRANCH  11  16
ATOM     16  O   UNL     1      26.133  29.550  18.164  1.00  0.00    -0.341 OA
BRANCH  16  17
ATOM     17  C   UNL     1      27.177  28.905  18.776  1.00  0.00     0.184 C 
ATOM     18  C   UNL     1      26.837  28.519  20.213  1.00  0.00     0.178 C 
ATOM     19  O   UNL     1      27.722  29.160  21.077  1.00  0.00    -0.341 OA
ATOM     20  C   UNL     1      27.457  30.558  21.085  1.00  0.00     0.281 C 
ATOM     21  C   UNL     1      28.333  29.882  18.841  1.00  0.00     0.180 C 
ATOM     22  C   UNL     1      27.867  31.054  19.732  1.00  0.00     0.202 C 
BRANCH  18  23
ATOM     23  C   UNL     1      27.033  27.024  20.393  1.00  0.00     0.191 C 
BRANCH  23  24
ATOM     24  O   UNL     1      28.170  26.570  19.751  1.00  0.00    -0.394 OA
ATOM     25  H   UNL     1      28.903  27.239  19.773  1.00  0.00     0.210 HD
ENDBRANCH  23  24
ENDBRANCH  18  23
BRANCH  20  26
ATOM     26  O   UNL     1      28.128  31.085  22.150  1.00  0.00    -0.350 OA
BRANCH  26  27
ATOM     27  C   UNL     1      29.180  31.902  21.845  1.00  0.00     0.169 C 
BRANCH  27  28
ATOM     28  C   UNL     1      30.525  31.379  22.307  1.00  0.00     0.119 C 
BRANCH  28  29
ATOM     29  N   UNL     1      31.218  30.651  21.263  1.00  0.00    -0.092 NA
ATOM     30  N   UNL     1      32.383  30.274  21.348  1.00  0.00     0.001 N 
ATOM     31  N   UNL     1      33.465  29.790  21.598  1.00  0.00    -0.003 NA
ENDBRANCH  28  29
ENDBRANCH  27  28
ENDBRANCH  26  27
ENDBRANCH  20  26
BRANCH  21  32
ATOM     32  O   UNL     1      29.491  29.312  19.355  1.00  0.00    -0.387 OA
ATOM     33  H   UNL     1      30.317  29.594  18.851  1.00  0.00     0.211 HD
ENDBRANCH  21  32
BRANCH  22  34
ATOM     34  O   UNL     1      26.690  31.514  19.091  1.00  0.00    -0.385 OA
ATOM     35  H   UNL     1      26.653  32.497  19.216  1.00  0.00     0.211 HD
ENDBRANCH  22  34
ENDBRANCH  16  17
ENDBRANCH  11  16
BRANCH  13  36
ATOM     36  O   UNL     1      24.135  30.470  19.793  1.00  0.00    -0.385 OA
ATOM     37  H   UNL     1      23.520  31.269  19.854  1.00  0.00     0.211 HD
ENDBRANCH  13  36
BRANCH  14  38
ATOM     38  O   UNL     1      21.444  29.897  18.278  1.00  0.00    -0.387 OA
ATOM     39  H   UNL     1      20.758  29.897  19.008  1.00  0.00     0.211 HD
ENDBRANCH  14  38
BRANCH  15  40
ATOM     40  O   UNL     1      21.218  27.607  17.510  1.00  0.00    -0.387 OA
ATOM     41  H   UNL     1      20.840  26.785  17.896  1.00  0.00     0.211 HD
ENDBRANCH  15  40
ENDBRANCH   9  10
ENDBRANCH   8   9
ENDBRANCH   3   8
BRANCH   3  42
ATOM     42  C   UNL     1      21.689  31.216  14.085  1.00  0.00     0.364 C 
ATOM     43  O   UNL     1      21.772  31.503  12.835  1.00  0.00    -0.246 OA
BRANCH  42  44
ATOM     44  O   UNL     1      20.545  31.703  14.687  1.00  0.00    -0.477 OA
ATOM     45  H   UNL     1      19.771  31.120  14.906  1.00  0.00     0.296 HD
ENDBRANCH  42  44
ENDBRANCH   3  42
BRANCH   6  46
ATOM     46  O   UNL     1      25.823  30.347  15.089  1.00  0.00    -0.391 OA
ATOM     47  H   UNL     1      25.229  29.797  15.661  1.00  0.00     0.211 HD
ENDBRANCH   6  46
BRANCH   7  48
ATOM     48  N   UNL     1      24.852  33.002  13.029  1.00  0.00    -0.348 N 
ATOM     49  C   UNL     1      25.578  34.187  12.757  1.00  0.00     0.217 C 
ATOM     50  H   UNL     1      24.288  32.651  12.230  1.00  0.00     0.163 HD
ATOM     51  C   UNL     1      25.486  34.873  11.419  1.00  0.00     0.114 C 
ATOM     52  O   UNL     1      26.305  34.685  13.613  1.00  0.00    -0.275 OA
ENDBRANCH   7  48
ENDBRANCH   1   2
BRANCH   1  53
ATOM     53  O   UNL     1      25.478  32.767  16.852  1.00  0.00    -0.388 OA
ATOM     54  H   UNL     1      26.055  33.556  17.032  1.00  0.00     0.211 HD
ENDBRANCH   1  53
BRANCH   1  55
ATOM     55  C   UNL     1      23.295  33.063  17.675  1.00  0.00     0.165 C 
BRANCH  55  56
ATOM     56  O   UNL     1      21.955  33.012  17.185  1.00  0.00    -0.388 OA
ATOM     57  H   UNL     1      21.986  32.633  16.275  1.00  0.00     0.211 HD
ENDBRANCH  55  56
BRANCH  55  58
ATOM     58  C   UNL     1      23.288  34.164  18.692  1.00  0.00     0.154 C 
BRANCH  58  59
ATOM     59  N   UNL     1      24.601  34.480  19.202  1.00  0.00    -0.319 N 
ATOM     60  C   UNL     1      25.201  33.812  20.310  1.00  0.00     0.407 C 
ATOM     61  H   UNL     1      25.144  35.237  18.758  1.00  0.00     0.167 HD
ATOM     62  O   UNL     1      24.609  32.908  20.899  1.00  0.00    -0.225 OA
BRANCH  60  63
ATOM     63  O   UNL     1      26.456  34.208  20.702  1.00  0.00    -0.443 OA
BRANCH  63  64
ATOM     64  C   UNL     1      27.119  35.322  20.179  1.00  0.00     0.294 C 
BRANCH  64  65
ATOM     65  C   UNL     1      27.957  34.908  19.027  1.00  0.00     0.120 A 
ATOM     66  C   UNL     1      29.244  34.413  19.017  1.00  0.00     0.139 A 
ATOM     67  N   UNL     1      27.586  34.971  17.720  1.00  0.00    -0.132 NA
ATOM     68  N   UNL     1      29.620  34.189  17.725  1.00  0.00    -0.238 N 
ATOM     69  N   UNL     1      28.579  34.544  16.969  1.00  0.00    -0.066 NA
BRANCH  68  70
ATOM     70  C   UNL     1      30.859  33.661  17.284  1.00  0.00     0.219 C 
BRANCH  70  71
ATOM     71  C   UNL     1      30.900  32.802  16.075  1.00  0.00     0.051 C 
BRANCH  71  72
ATOM     72  C   UNL     1      30.491  31.391  16.160  1.00  0.00     0.125 C 
BRANCH  72  73
ATOM     73  C   UNL     1      29.147  31.007  15.782  1.00  0.00     0.303 C 
ATOM     74  O   UNL     1      28.123  31.710  15.726  1.00  0.00    -0.252 OA
BRANCH  73  75
ATOM     75  O   UNL     1      28.904  29.646  15.412  1.00  0.00    -0.481 OA
ATOM     76  H   UNL     1      29.691  29.041  15.239  1.00  0.00     0.296 HD
ENDBRANCH  73  75
ENDBRANCH  72  73
ENDBRANCH  71  72
ENDBRANCH  70  71
BRANCH  70  77
ATOM     77  C   UNL     1      31.814  34.796  17.083  1.00  0.00     0.328 C 
ATOM     78  O   UNL     1      32.646  34.764  16.156  1.00  0.00    -0.250 OA
BRANCH  77  79
ATOM     79  O   UNL     1      31.811  35.908  17.905  1.00  0.00    -0.480 OA
ATOM     80  H   UNL     1      32.622  36.523  17.980  1.00  0.00     0.296 HD
ENDBRANCH  77  79
ENDBRANCH  70  77
ENDBRANCH  68  70
ENDBRANCH  64  65
ENDBRANCH  63  64
ENDBRANCH  60  63
ENDBRANCH  58  59
ENDBRANCH  55  58
ENDBRANCH   1  55
TORSDOF 36
BEGIN_RES LYS A 131
REMARK  4 active torsions:
REMARK  status: ('A' for Active; 'I' for Inactive)
REMARK    1  A    between atoms: CA   and  CB  
REMARK    2  A    between atoms: CB   and  CG  
REMARK    3  A    between atoms: CG   and  CD  
REMARK    4  A    between atoms: CD   and  CE  
ROOT
ATOM      1  CA  LYS A 131      29.867  25.555  16.977  1.00 20.52     0.186 C 
ENDROOT
BRANCH   1   2
ATOM      2  CB  LYS A 131      28.345  25.722  17.026  1.00 20.94     0.034 C 
BRANCH   2   3
ATOM      3  CG  LYS A 131      27.599  24.438  16.699  1.00 22.96     0.005 C 
BRANCH   3   4
ATOM      4  CD  LYS A 131      26.665  24.028  17.804  1.00 24.33     0.041 C 
BRANCH   4   5
ATOM      5  CE  LYS A 131      25.370  24.826  17.698  1.00 26.91     0.338 C 
ATOM      6  NZ  LYS A 131      24.347  24.058  16.950  1.00 27.40     0.618 N 
ENDBRANCH   4   5
ENDBRANCH   3   4
ENDBRANCH   2   3
ENDBRANCH   1   2
END_RES LYS A 131
BEGIN_RES LYS A 135
REMARK  4 active torsions:
REMARK  status: ('A' for Active; 'I' for Inactive)
REMARK    5  A    between atoms: CA   and  CB  
REMARK    6  A    between atoms: CB   and  CG  
REMARK    7  A    between atoms: CG   and  CD  
REMARK    8  A    between atoms: CD   and  CE  
ROOT
ATOM      7  CA  LYS A 135      33.193  34.663   9.290  1.00 25.02     0.186 C 
ENDROOT
BRANCH   7   8
ATOM      8  CB  LYS A 135      32.060  35.360  10.034  1.00 26.63     0.034 C 
BRANCH   8   9
ATOM      9  CG  LYS A 135      30.715  34.715   9.824  1.00 29.45     0.005 C 
BRANCH   9  10
ATOM     10  CD  LYS A 135      30.468  34.456   8.345  1.00 32.00     0.041 C 
BRANCH  10  11
ATOM     11  CE  LYS A 135      29.026  34.755   7.985  1.00 34.25     0.338 C 
ATOM     12  NZ  LYS A 135      28.929  35.957   7.111  1.00 35.99     0.618 N 
ENDBRANCH  10  11
ENDBRANCH   9  10
ENDBRANCH   8   9
ENDBRANCH   7   8
END_RES LYS A 135
