REMARK VINA RESULT:    -4.891      2.734      7.132
REMARK INTER + INTRA:         -23.239
REMARK INTER:                 -12.964
REMARK INTRA:                 -10.275
REMARK UNBOUND:               -10.485
REMARK SMILES CC(=O)N[C@@H]1[C@@H](O)C[C@](OC[C@H]2O[C@@H](O[C@H]3[C@H](O)[C@@H](O)[C@H](OCCN=[N+]=[N-])O[C@@H]3CO)[C@H](O)[C@@H](O)[C@H]2O)(C(=O)O)O[C@H]1C(O)[C@H](O)CNC(=O)OCc1cn(CC(O)c2ccccc2)nn1
REMARK SMILES IDX 9 1 8 2 6 3 5 4 42 5 41 6 10 7 11 8 12 9 14 10 13 11 32 12
REMARK SMILES IDX 34 13 36 14 15 15 16 16 29 17 28 18 21 19 17 20 19 21 30 22
REMARK SMILES IDX 31 23 22 25 23 26 24 27 25 28 26 29 27 30 18 31 20 33 33 35
REMARK SMILES IDX 35 37 37 39 38 41 39 42 40 43 7 45 43 47 44 48 45 50 46 51
REMARK SMILES IDX 47 53 48 54 49 55 50 57 51 58 52 59 53 60 54 61 66 62 55 63
REMARK SMILES IDX 65 64 56 65 57 66 58 67 59 69 60 70 64 71 61 72 63 73 62 74
REMARK SMILES IDX 4 75 2 76 1 78 3 79
REMARK H PARENT 31 24 18 32 20 34 33 36 35 38 37 40 40 44 7 46 44 49 46 52
REMARK H PARENT 48 56 58 68 4 77
REMARK Flexibility Score: inf
ROOT
ATOM      1  C   UNL     1      28.438  38.543   6.352  1.00  0.00     0.272 C 
ATOM      2  C   UNL     1      29.768  38.800   5.751  1.00  0.00     0.113 C 
ATOM      3  C   UNL     1      30.267  40.201   5.794  1.00  0.00     0.145 C 
ATOM      4  C   UNL     1      29.133  41.115   6.133  1.00  0.00     0.142 C 
ATOM      5  C   UNL     1      27.902  40.608   5.403  1.00  0.00     0.178 C 
ATOM      6  O   UNL     1      27.466  39.379   5.791  1.00  0.00    -0.332 OA
ENDROOT
BRANCH   1   7
ATOM      7  O   UNL     1      28.321  38.655   7.705  1.00  0.00    -0.338 OA
BRANCH   7   8
ATOM      8  C   UNL     1      29.291  38.102   8.483  1.00  0.00     0.199 C 
BRANCH   8   9
ATOM      9  C   UNL     1      29.211  38.609   9.905  1.00  0.00     0.179 C 
ATOM     10  C   UNL     1      29.900  37.945  11.997  1.00  0.00     0.282 C 
ATOM     11  O   UNL     1      29.348  37.568  10.803  1.00  0.00    -0.341 OA
ATOM     12  C   UNL     1      31.323  38.450  11.911  1.00  0.00     0.202 C 
ATOM     13  C   UNL     1      31.482  39.171  10.591  1.00  0.00     0.179 C 
ATOM     14  C   UNL     1      30.126  39.741  10.229  1.00  0.00     0.177 C 
BRANCH  10  15
ATOM     15  O   UNL     1      29.938  36.894  12.909  1.00  0.00    -0.341 OA
BRANCH  15  16
ATOM     16  C   UNL     1      28.729  36.331  13.210  1.00  0.00     0.184 C 
ATOM     17  C   UNL     1      28.452  36.646  14.676  1.00  0.00     0.178 C 
ATOM     18  O   UNL     1      28.757  35.569  15.484  1.00  0.00    -0.341 OA
ATOM     19  C   UNL     1      30.053  35.137  15.153  1.00  0.00     0.281 C 
ATOM     20  C   UNL     1      28.873  34.831  12.982  1.00  0.00     0.180 C 
ATOM     21  C   UNL     1      29.914  34.247  13.923  1.00  0.00     0.202 C 
BRANCH  17  22
ATOM     22  C   UNL     1      27.019  37.110  14.867  1.00  0.00     0.191 C 
BRANCH  22  23
ATOM     23  O   UNL     1      26.144  36.031  14.951  1.00  0.00    -0.394 OA
ATOM     24  H   UNL     1      25.439  36.174  15.636  1.00  0.00     0.210 HD
ENDBRANCH  22  23
ENDBRANCH  17  22
BRANCH  19  25
ATOM     25  O   UNL     1      30.539  34.465  16.247  1.00  0.00    -0.350 OA
BRANCH  25  26
ATOM     26  C   UNL     1      31.857  34.707  16.555  1.00  0.00     0.169 C 
BRANCH  26  27
ATOM     27  C   UNL     1      32.063  35.717  17.649  1.00  0.00     0.119 C 
BRANCH  27  28
ATOM     28  N   UNL     1      32.737  36.904  17.110  1.00  0.00    -0.092 NA
ATOM     29  N   UNL     1      32.026  37.616  16.383  1.00  0.00     0.001 N 
ATOM     30  N   UNL     1      31.485  38.542  15.780  1.00  0.00    -0.003 NA
ENDBRANCH  27  28
ENDBRANCH  26  27
ENDBRANCH  25  26
ENDBRANCH  19  25
BRANCH  20  31
ATOM     31  O   UNL     1      27.650  34.199  13.159  1.00  0.00    -0.387 OA
ATOM     32  H   UNL     1      27.588  33.844  14.091  1.00  0.00     0.211 HD
ENDBRANCH  20  31
BRANCH  21  33
ATOM     33  O   UNL     1      31.117  34.048  13.271  1.00  0.00    -0.385 OA
ATOM     34  H   UNL     1      30.919  33.688  12.372  1.00  0.00     0.211 HD
ENDBRANCH  21  33
ENDBRANCH  15  16
ENDBRANCH  10  15
BRANCH  12  35
ATOM     35  O   UNL     1      31.539  39.353  12.957  1.00  0.00    -0.385 OA
ATOM     36  H   UNL     1      32.483  39.238  13.254  1.00  0.00     0.211 HD
ENDBRANCH  12  35
BRANCH  13  37
ATOM     37  O   UNL     1      31.883  38.208   9.668  1.00  0.00    -0.387 OA
ATOM     38  H   UNL     1      32.788  37.877   9.804  1.00  0.00     0.211 HD
ENDBRANCH  13  37
BRANCH  14  39
ATOM     39  O   UNL     1      30.168  40.723   9.269  1.00  0.00    -0.387 OA
ATOM     40  H   UNL     1      29.400  41.350   9.301  1.00  0.00     0.211 HD
ENDBRANCH  14  39
ENDBRANCH   8   9
ENDBRANCH   7   8
ENDBRANCH   1   7
BRANCH   1  41
ATOM     41  C   UNL     1      28.037  37.156   5.873  1.00  0.00     0.364 C 
ATOM     42  O   UNL     1      28.896  36.340   5.583  1.00  0.00    -0.246 OA
BRANCH  41  43
ATOM     43  O   UNL     1      26.678  36.910   5.799  1.00  0.00    -0.477 OA
ATOM     44  H   UNL     1      26.398  36.067   5.344  1.00  0.00     0.296 HD
ENDBRANCH  41  43
ENDBRANCH   1  41
BRANCH   3  45
ATOM     45  O   UNL     1      31.367  40.340   6.641  1.00  0.00    -0.391 OA
ATOM     46  H   UNL     1      31.125  39.862   7.483  1.00  0.00     0.211 HD
ENDBRANCH   3  45
BRANCH   5  47
ATOM     47  C   UNL     1      26.876  41.708   5.509  1.00  0.00     0.176 C 
BRANCH  47  48
ATOM     48  O   UNL     1      26.879  42.194   6.826  1.00  0.00    -0.388 OA
ATOM     49  H   UNL     1      26.934  41.396   7.421  1.00  0.00     0.211 HD
ENDBRANCH  47  48
BRANCH  47  50
ATOM     50  C   UNL     1      25.519  41.269   5.072  1.00  0.00     0.165 C 
BRANCH  50  51
ATOM     51  O   UNL     1      24.967  42.101   4.135  1.00  0.00    -0.388 OA
ATOM     52  H   UNL     1      25.089  41.826   3.213  1.00  0.00     0.211 HD
ENDBRANCH  50  51
BRANCH  50  53
ATOM     53  C   UNL     1      24.602  40.850   6.192  1.00  0.00     0.154 C 
BRANCH  53  54
ATOM     54  N   UNL     1      24.673  39.470   6.571  1.00  0.00    -0.319 N 
ATOM     55  C   UNL     1      24.852  39.002   7.906  1.00  0.00     0.407 C 
ATOM     56  H   UNL     1      24.581  38.717   5.816  1.00  0.00     0.167 HD
ATOM     57  O   UNL     1      24.950  39.803   8.851  1.00  0.00    -0.225 OA
BRANCH  55  58
ATOM     58  O   UNL     1      24.920  37.655   8.186  1.00  0.00    -0.443 OA
BRANCH  58  59
ATOM     59  C   UNL     1      25.650  37.121   9.291  1.00  0.00     0.294 C 
BRANCH  59  60
ATOM     60  C   UNL     1      24.742  36.266  10.120  1.00  0.00     0.120 A 
ATOM     61  C   UNL     1      24.927  35.748  11.375  1.00  0.00     0.138 A 
ATOM     62  N   UNL     1      23.514  35.871   9.719  1.00  0.00    -0.132 NA
ATOM     63  N   UNL     1      23.809  35.043  11.725  1.00  0.00    -0.249 N 
ATOM     64  N   UNL     1      23.006  35.158  10.693  1.00  0.00    -0.067 NA
BRANCH  63  65
ATOM     65  C   UNL     1      23.605  34.342  12.983  1.00  0.00     0.182 C 
BRANCH  65  66
ATOM     66  C   UNL     1      24.434  33.070  13.009  1.00  0.00     0.166 C 
BRANCH  66  67
ATOM     67  O   UNL     1      25.112  33.110  14.250  1.00  0.00    -0.386 OA
ATOM     68  H   UNL     1      24.458  32.995  14.993  1.00  0.00     0.211 HD
ENDBRANCH  66  67
BRANCH  66  69
ATOM     69  C   UNL     1      23.648  31.838  12.899  1.00  0.00    -0.018 A 
ATOM     70  C   UNL     1      22.307  31.829  12.666  1.00  0.00     0.006 A 
ATOM     71  C   UNL     1      24.368  30.646  13.068  1.00  0.00     0.006 A 
ATOM     72  C   UNL     1      21.658  30.606  12.598  1.00  0.00     0.000 A 
ATOM     73  C   UNL     1      23.703  29.452  12.996  1.00  0.00     0.000 A 
ATOM     74  C   UNL     1      22.343  29.426  12.761  1.00  0.00     0.000 A 
ENDBRANCH  66  69
ENDBRANCH  65  66
ENDBRANCH  63  65
ENDBRANCH  59  60
ENDBRANCH  58  59
ENDBRANCH  55  58
ENDBRANCH  53  54
ENDBRANCH  50  53
ENDBRANCH  47  50
ENDBRANCH   5  47
BRANCH   4  75
ATOM     75  N   UNL     1      29.376  42.454   5.573  1.00  0.00    -0.348 N 
ATOM     76  C   UNL     1      30.060  43.465   6.293  1.00  0.00     0.217 C 
ATOM     77  H   UNL     1      29.041  42.689   4.614  1.00  0.00     0.163 HD
ATOM     78  C   UNL     1      30.325  44.827   5.761  1.00  0.00     0.114 C 
ATOM     79  O   UNL     1      30.470  43.187   7.454  1.00  0.00    -0.275 OA
ENDBRANCH   4  75
TORSDOF 33
BEGIN_RES LYS A 131
REMARK  4 active torsions:
REMARK  status: ('A' for Active; 'I' for Inactive)
REMARK    1  A    between atoms: CA   and  CB  
REMARK    2  A    between atoms: CB   and  CG  
REMARK    3  A    between atoms: CG   and  CD  
REMARK    4  A    between atoms: CD   and  CE  
ROOT
ATOM      1  CA  LYS A 131      29.867  25.555  16.977  1.00 20.52     0.186 C 
ENDROOT
BRANCH   1   2
ATOM      2  CB  LYS A 131      28.345  25.722  17.026  1.00 20.94     0.034 C 
BRANCH   2   3
ATOM      3  CG  LYS A 131      27.602  24.398  16.931  1.00 22.96     0.005 C 
BRANCH   3   4
ATOM      4  CD  LYS A 131      26.157  24.530  17.325  1.00 24.33     0.041 C 
BRANCH   4   5
ATOM      5  CE  LYS A 131      25.796  23.426  18.314  1.00 26.91     0.338 C 
ATOM      6  NZ  LYS A 131      24.372  23.529  18.710  1.00 27.40     0.618 N 
ENDBRANCH   4   5
ENDBRANCH   3   4
ENDBRANCH   2   3
ENDBRANCH   1   2
END_RES LYS A 131
BEGIN_RES LYS A 135
REMARK  4 active torsions:
REMARK  status: ('A' for Active; 'I' for Inactive)
REMARK    5  A    between atoms: CA   and  CB  
REMARK    6  A    between atoms: CB   and  CG  
REMARK    7  A    between atoms: CG   and  CD  
REMARK    8  A    between atoms: CD   and  CE  
ROOT
ATOM      7  CA  LYS A 135      33.193  34.663   9.290  1.00 25.02     0.186 C 
ENDROOT
BRANCH   7   8
ATOM      8  CB  LYS A 135      32.060  35.360  10.034  1.00 26.63     0.034 C 
BRANCH   8   9
ATOM      9  CG  LYS A 135      30.732  34.660   9.903  1.00 29.45     0.005 C 
BRANCH   9  10
ATOM     10  CD  LYS A 135      30.301  34.595   8.445  1.00 32.00     0.041 C 
BRANCH  10  11
ATOM     11  CE  LYS A 135      28.801  34.398   8.342  1.00 34.25     0.338 C 
ATOM     12  NZ  LYS A 135      28.149  34.532   9.674  1.00 35.99     0.618 N 
ENDBRANCH  10  11
ENDBRANCH   9  10
ENDBRANCH   8   9
ENDBRANCH   7   8
END_RES LYS A 135
