REMARK VINA RESULT:    -4.786      5.454     11.349
REMARK INTER + INTRA:         -23.526
REMARK INTER:                 -10.075
REMARK INTRA:                 -13.451
REMARK UNBOUND:               -10.207
REMARK SMILES CC(=O)N[C@@H]1[C@@H](O)C[C@](OC[C@H]2O[C@@H](O[C@H]3[C@H](O)[C@@H](O)[C@H](OCCN=[N+]=[N-])O[C@@H]3CO)[C@H](O)[C@@H](O)[C@H]2O)(C(=O)O)O[C@H]1C(O)[C@H](O)CNC(=O)OCc1cn(C[C@H](CC(=O)O)CC(C)C)nn1
REMARK SMILES IDX 43 1 42 2 9 3 8 4 41 5 6 6 5 7 10 8 11 9 12 10 14 11 13 12
REMARK SMILES IDX 32 13 34 14 36 15 15 16 16 17 29 18 28 19 21 20 17 21 19 22
REMARK SMILES IDX 30 23 31 24 22 26 23 27 24 28 25 29 26 30 27 31 18 32 20 34
REMARK SMILES IDX 33 36 35 38 37 40 38 42 39 43 40 44 7 46 4 48 2 49 1 51 3 52
REMARK SMILES IDX 44 53 45 55 46 56 47 58 48 59 49 60 50 62 51 63 52 64 53 65
REMARK SMILES IDX 54 66 67 67 55 68 66 69 56 70 57 71 58 72 59 73 60 74 61 75
REMARK SMILES IDX 62 77 63 78 64 79 65 80
REMARK H PARENT 31 25 18 33 20 35 33 37 35 39 37 41 40 45 7 47 4 50 44 54
REMARK H PARENT 46 57 48 61 61 76
REMARK Flexibility Score: inf
ROOT
ATOM      1  C   UNL     1      26.328  37.130   7.833  1.00  0.00     0.176 C 
ENDROOT
BRANCH   1   2
ATOM      2  C   UNL     1      27.824  37.236   7.929  1.00  0.00     0.178 C 
ATOM      3  C   UNL     1      28.919  39.240   7.161  1.00  0.00     0.272 C 
ATOM      4  C   UNL     1      29.262  38.586   5.871  1.00  0.00     0.113 C 
ATOM      5  O   UNL     1      28.101  38.565   7.941  1.00  0.00    -0.332 OA
ATOM      6  C   UNL     1      28.623  37.291   5.569  1.00  0.00     0.145 C 
ATOM      7  C   UNL     1      28.409  36.435   6.819  1.00  0.00     0.142 C 
BRANCH   3   8
ATOM      8  O   UNL     1      28.350  40.517   6.901  1.00  0.00    -0.338 OA
BRANCH   8   9
ATOM      9  C   UNL     1      28.059  40.756   5.594  1.00  0.00     0.199 C 
BRANCH   9  10
ATOM     10  C   UNL     1      26.716  41.512   5.478  1.00  0.00     0.179 C 
ATOM     11  C   UNL     1      24.512  41.431   6.199  1.00  0.00     0.282 C 
ATOM     12  O   UNL     1      25.833  41.095   6.453  1.00  0.00    -0.341 OA
ATOM     13  C   UNL     1      24.535  42.795   5.491  1.00  0.00     0.202 C 
ATOM     14  C   UNL     1      25.667  43.644   6.032  1.00  0.00     0.179 C 
ATOM     15  C   UNL     1      26.978  43.005   5.720  1.00  0.00     0.177 C 
BRANCH  11  16
ATOM     16  O   UNL     1      23.878  41.662   7.395  1.00  0.00    -0.341 OA
BRANCH  16  17
ATOM     17  C   UNL     1      23.870  40.628   8.294  1.00  0.00     0.184 C 
ATOM     18  C   UNL     1      22.505  40.137   8.673  1.00  0.00     0.178 C 
ATOM     19  O   UNL     1      22.160  40.317   9.980  1.00  0.00    -0.341 OA
ATOM     20  C   UNL     1      23.030  39.774  10.905  1.00  0.00     0.281 C 
ATOM     21  C   UNL     1      24.544  41.125   9.556  1.00  0.00     0.180 C 
ATOM     22  C   UNL     1      24.469  40.000  10.598  1.00  0.00     0.202 C 
BRANCH  18  23
ATOM     23  C   UNL     1      22.390  38.693   8.218  1.00  0.00     0.191 C 
BRANCH  23  24
ATOM     24  O   UNL     1      23.106  38.474   7.044  1.00  0.00    -0.394 OA
ATOM     25  H   UNL     1      22.713  38.956   6.266  1.00  0.00     0.210 HD
ENDBRANCH  23  24
ENDBRANCH  18  23
BRANCH  20  26
ATOM     26  O   UNL     1      22.681  38.443  11.083  1.00  0.00    -0.350 OA
BRANCH  26  27
ATOM     27  C   UNL     1      21.633  38.267  11.971  1.00  0.00     0.169 C 
BRANCH  27  28
ATOM     28  C   UNL     1      20.601  37.395  11.269  1.00  0.00     0.119 C 
BRANCH  28  29
ATOM     29  N   UNL     1      21.338  36.255  10.743  1.00  0.00    -0.092 NA
ATOM     30  N   UNL     1      21.373  35.237  11.394  1.00  0.00     0.001 N 
ATOM     31  N   UNL     1      21.696  34.155  11.901  1.00  0.00    -0.003 NA
ENDBRANCH  28  29
ENDBRANCH  27  28
ENDBRANCH  26  27
ENDBRANCH  20  26
BRANCH  21  32
ATOM     32  O   UNL     1      25.852  41.488   9.290  1.00  0.00    -0.387 OA
ATOM     33  H   UNL     1      25.977  42.416   9.665  1.00  0.00     0.211 HD
ENDBRANCH  21  32
BRANCH  22  34
ATOM     34  O   UNL     1      25.194  40.488  11.705  1.00  0.00    -0.385 OA
ATOM     35  H   UNL     1      25.425  41.421  11.510  1.00  0.00     0.211 HD
ENDBRANCH  22  34
ENDBRANCH  16  17
ENDBRANCH  11  16
BRANCH  13  36
ATOM     36  O   UNL     1      24.522  42.687   4.123  1.00  0.00    -0.385 OA
ATOM     37  H   UNL     1      24.832  41.832   3.776  1.00  0.00     0.211 HD
ENDBRANCH  13  36
BRANCH  14  38
ATOM     38  O   UNL     1      25.489  43.660   7.431  1.00  0.00    -0.387 OA
ATOM     39  H   UNL     1      24.603  43.961   7.687  1.00  0.00     0.211 HD
ENDBRANCH  14  38
BRANCH  15  40
ATOM     40  O   UNL     1      27.803  43.160   6.854  1.00  0.00    -0.387 OA
ATOM     41  H   UNL     1      28.057  44.089   6.976  1.00  0.00     0.211 HD
ENDBRANCH  15  40
ENDBRANCH   9  10
ENDBRANCH   8   9
ENDBRANCH   3   8
BRANCH   3  42
ATOM     42  C   UNL     1      30.196  39.603   7.897  1.00  0.00     0.364 C 
ATOM     43  O   UNL     1      31.102  38.771   8.028  1.00  0.00    -0.246 OA
BRANCH  42  44
ATOM     44  O   UNL     1      30.359  40.852   8.424  1.00  0.00    -0.477 OA
ATOM     45  H   UNL     1      29.581  41.475   8.634  1.00  0.00     0.296 HD
ENDBRANCH  42  44
ENDBRANCH   3  42
BRANCH   6  46
ATOM     46  O   UNL     1      27.458  37.326   4.834  1.00  0.00    -0.391 OA
ATOM     47  H   UNL     1      27.553  38.065   4.183  1.00  0.00     0.211 HD
ENDBRANCH   6  46
BRANCH   7  48
ATOM     48  N   UNL     1      29.682  35.819   7.083  1.00  0.00    -0.348 N 
ATOM     49  C   UNL     1      29.728  34.731   8.033  1.00  0.00     0.217 C 
ATOM     50  H   UNL     1      30.595  36.088   6.654  1.00  0.00     0.163 HD
ATOM     51  C   UNL     1      31.060  34.086   8.303  1.00  0.00     0.114 C 
ATOM     52  O   UNL     1      28.704  34.317   8.629  1.00  0.00    -0.275 OA
ENDBRANCH   7  48
ENDBRANCH   1   2
BRANCH   1  53
ATOM     53  O   UNL     1      25.842  38.281   7.144  1.00  0.00    -0.388 OA
ATOM     54  H   UNL     1      26.398  38.433   6.336  1.00  0.00     0.211 HD
ENDBRANCH   1  53
BRANCH   1  55
ATOM     55  C   UNL     1      25.551  37.143   9.130  1.00  0.00     0.165 C 
BRANCH  55  56
ATOM     56  O   UNL     1      26.645  37.155  10.101  1.00  0.00    -0.388 OA
ATOM     57  H   UNL     1      26.722  36.172  10.322  1.00  0.00     0.211 HD
ENDBRANCH  55  56
BRANCH  55  58
ATOM     58  C   UNL     1      24.882  35.844   9.420  1.00  0.00     0.154 C 
BRANCH  58  59
ATOM     59  N   UNL     1      24.482  35.725  10.777  1.00  0.00    -0.319 N 
ATOM     60  C   UNL     1      25.251  34.812  11.591  1.00  0.00     0.407 C 
ATOM     61  H   UNL     1      23.704  36.204  11.264  1.00  0.00     0.167 HD
ATOM     62  O   UNL     1      26.219  34.182  11.079  1.00  0.00    -0.225 OA
BRANCH  60  63
ATOM     63  O   UNL     1      24.987  34.575  12.922  1.00  0.00    -0.443 OA
BRANCH  63  64
ATOM     64  C   UNL     1      25.212  35.481  13.981  1.00  0.00     0.294 C 
BRANCH  64  65
ATOM     65  C   UNL     1      26.163  36.572  13.623  1.00  0.00     0.120 A 
ATOM     66  C   UNL     1      27.528  36.610  13.784  1.00  0.00     0.138 A 
ATOM     67  N   UNL     1      25.808  37.732  13.062  1.00  0.00    -0.132 NA
ATOM     68  N   UNL     1      27.980  37.812  13.310  1.00  0.00    -0.252 N 
ATOM     69  N   UNL     1      26.908  38.442  12.891  1.00  0.00    -0.067 NA
BRANCH  68  70
ATOM     70  C   UNL     1      29.316  38.284  13.302  1.00  0.00     0.150 C 
BRANCH  70  71
ATOM     71  C   UNL     1      29.480  39.744  13.282  1.00  0.00     0.022 C 
BRANCH  71  72
ATOM     72  C   UNL     1      29.869  40.367  11.994  1.00  0.00     0.128 C 
BRANCH  72  73
ATOM     73  C   UNL     1      28.784  40.740  11.077  1.00  0.00     0.303 C 
ATOM     74  O   UNL     1      28.601  41.955  10.800  1.00  0.00    -0.252 OA
BRANCH  73  75
ATOM     75  O   UNL     1      27.930  39.821  10.482  1.00  0.00    -0.481 OA
ATOM     76  H   UNL     1      27.723  39.882   9.496  1.00  0.00     0.296 HD
ENDBRANCH  73  75
ENDBRANCH  72  73
ENDBRANCH  71  72
BRANCH  71  77
ATOM     77  C   UNL     1      30.226  40.310  14.457  1.00  0.00     0.009 C 
BRANCH  77  78
ATOM     78  C   UNL     1      30.259  39.570  15.717  1.00  0.00    -0.017 C 
ATOM     79  C   UNL     1      31.554  39.025  16.201  1.00  0.00     0.007 C 
ATOM     80  C   UNL     1      29.584  40.277  16.878  1.00  0.00     0.007 C 
ENDBRANCH  77  78
ENDBRANCH  71  77
ENDBRANCH  70  71
ENDBRANCH  68  70
ENDBRANCH  64  65
ENDBRANCH  63  64
ENDBRANCH  60  63
ENDBRANCH  58  59
ENDBRANCH  55  58
ENDBRANCH   1  55
TORSDOF 36
BEGIN_RES LYS A 131
REMARK  4 active torsions:
REMARK  status: ('A' for Active; 'I' for Inactive)
REMARK    1  A    between atoms: CA   and  CB  
REMARK    2  A    between atoms: CB   and  CG  
REMARK    3  A    between atoms: CG   and  CD  
REMARK    4  A    between atoms: CD   and  CE  
ROOT
ATOM      1  CA  LYS A 131      29.867  25.555  16.977  1.00 20.52     0.186 C 
ENDROOT
BRANCH   1   2
ATOM      2  CB  LYS A 131      28.345  25.722  17.026  1.00 20.94     0.034 C 
BRANCH   2   3
ATOM      3  CG  LYS A 131      27.601  24.403  16.887  1.00 22.96     0.005 C 
BRANCH   3   4
ATOM      4  CD  LYS A 131      26.188  24.494  17.391  1.00 24.33     0.041 C 
BRANCH   4   5
ATOM      5  CE  LYS A 131      26.054  23.690  18.681  1.00 26.91     0.338 C 
ATOM      6  NZ  LYS A 131      25.052  24.311  19.579  1.00 27.40     0.618 N 
ENDBRANCH   4   5
ENDBRANCH   3   4
ENDBRANCH   2   3
ENDBRANCH   1   2
END_RES LYS A 131
BEGIN_RES LYS A 135
REMARK  4 active torsions:
REMARK  status: ('A' for Active; 'I' for Inactive)
REMARK    5  A    between atoms: CA   and  CB  
REMARK    6  A    between atoms: CB   and  CG  
REMARK    7  A    between atoms: CG   and  CD  
REMARK    8  A    between atoms: CD   and  CE  
ROOT
ATOM      7  CA  LYS A 135      33.193  34.663   9.290  1.00 25.02     0.186 C 
ENDROOT
BRANCH   7   8
ATOM      8  CB  LYS A 135      32.060  35.360  10.034  1.00 26.63     0.034 C 
BRANCH   8   9
ATOM      9  CG  LYS A 135      32.501  36.037  11.306  1.00 29.45     0.005 C 
BRANCH   9  10
ATOM     10  CD  LYS A 135      31.711  35.513  12.495  1.00 32.00     0.041 C 
BRANCH  10  11
ATOM     11  CE  LYS A 135      32.449  35.792  13.790  1.00 34.25     0.338 C 
ATOM     12  NZ  LYS A 135      33.599  34.862  13.964  1.00 35.99     0.618 N 
ENDBRANCH  10  11
ENDBRANCH   9  10
ENDBRANCH   8   9
ENDBRANCH   7   8
END_RES LYS A 135
