REMARK VINA RESULT:    -5.767      0.000      0.000
REMARK INTER + INTRA:         -24.754
REMARK INTER:                 -14.692
REMARK INTRA:                 -10.062
REMARK UNBOUND:                -9.883
REMARK SMILES CC(=O)N[C@@H]1[C@@H](O)C[C@](OC[C@H]2O[C@@H](O[C@H]3[C@H](O)[C@@H](O)[C@H](OCCN=[N+]=[N-])O[C@@H]3CO)[C@H](O)[C@@H](O)[C@H]2O)(C(=O)O)O[C@H]1C(O)[C@H](O)CNC(=O)OCc1cn(C(c2ccccc2)c2ccccc2)nn1
REMARK SMILES IDX 9 1 8 2 6 3 5 4 42 5 41 6 10 7 11 8 12 9 14 10 13 11 32 12
REMARK SMILES IDX 34 13 36 14 15 15 16 16 29 17 28 18 21 19 17 20 19 21 30 22
REMARK SMILES IDX 31 23 22 25 23 26 24 27 25 28 26 29 27 30 18 31 20 33 33 35
REMARK SMILES IDX 35 37 37 39 38 41 39 42 40 43 7 45 43 47 44 48 45 50 46 51
REMARK SMILES IDX 47 53 48 54 49 55 50 57 51 58 52 59 53 60 54 61 70 62 55 63
REMARK SMILES IDX 69 64 56 65 57 66 58 67 62 68 59 69 61 70 60 71 63 72 64 73
REMARK SMILES IDX 68 74 65 75 67 76 66 77 4 78 2 79 1 81 3 82
REMARK H PARENT 31 24 18 32 20 34 33 36 35 38 37 40 40 44 7 46 44 49 46 52
REMARK H PARENT 48 56 4 80
REMARK Flexibility Score: inf
ROOT
ATOM      1  C   UNL     1      29.356  32.790  16.293  1.00  0.00     0.272 C 
ATOM      2  C   UNL     1      30.386  32.779  17.442  1.00  0.00     0.113 C 
ATOM      3  C   UNL     1      31.039  34.097  17.543  1.00  0.00     0.145 C 
ATOM      4  C   UNL     1      30.002  35.166  17.778  1.00  0.00     0.142 C 
ATOM      5  C   UNL     1      28.637  34.771  17.346  1.00  0.00     0.178 C 
ATOM      6  O   UNL     1      28.565  33.873  16.331  1.00  0.00    -0.332 OA
ENDROOT
BRANCH   1   7
ATOM      7  O   UNL     1      28.571  31.632  16.424  1.00  0.00    -0.338 OA
BRANCH   7   8
ATOM      8  C   UNL     1      28.929  30.902  17.526  1.00  0.00     0.199 C 
BRANCH   8   9
ATOM      9  C   UNL     1      27.777  30.738  18.516  1.00  0.00     0.179 C 
ATOM     10  C   UNL     1      25.937  29.469  17.685  1.00  0.00     0.282 C 
ATOM     11  O   UNL     1      26.626  30.604  17.914  1.00  0.00    -0.341 OA
ATOM     12  C   UNL     1      26.597  28.239  18.092  1.00  0.00     0.202 C 
ATOM     13  C   UNL     1      27.485  28.361  19.281  1.00  0.00     0.179 C 
ATOM     14  C   UNL     1      28.087  29.684  19.554  1.00  0.00     0.177 C 
BRANCH  10  15
ATOM     15  O   UNL     1      25.622  29.554  16.294  1.00  0.00    -0.341 OA
BRANCH  15  16
ATOM     16  C   UNL     1      24.717  30.539  16.038  1.00  0.00     0.184 C 
ATOM     17  C   UNL     1      23.397  29.994  15.623  1.00  0.00     0.178 C 
ATOM     18  O   UNL     1      22.440  31.018  15.581  1.00  0.00    -0.341 OA
ATOM     19  C   UNL     1      22.682  31.837  14.513  1.00  0.00     0.281 C 
ATOM     20  C   UNL     1      25.181  31.442  14.901  1.00  0.00     0.180 C 
ATOM     21  C   UNL     1      24.062  31.783  13.997  1.00  0.00     0.202 C 
BRANCH  17  22
ATOM     22  C   UNL     1      22.900  28.825  16.449  1.00  0.00     0.191 C 
BRANCH  22  23
ATOM     23  O   UNL     1      23.563  27.670  16.048  1.00  0.00    -0.394 OA
ATOM     24  H   UNL     1      22.974  26.977  15.685  1.00  0.00     0.210 HD
ENDBRANCH  22  23
ENDBRANCH  17  22
BRANCH  19  25
ATOM     25  O   UNL     1      22.254  33.152  14.758  1.00  0.00    -0.350 OA
BRANCH  25  26
ATOM     26  C   UNL     1      21.264  33.274  15.690  1.00  0.00     0.169 C 
BRANCH  26  27
ATOM     27  C   UNL     1      21.545  34.468  16.572  1.00  0.00     0.119 C 
BRANCH  27  28
ATOM     28  N   UNL     1      21.919  34.064  17.925  1.00  0.00    -0.092 NA
ATOM     29  N   UNL     1      23.020  33.596  18.188  1.00  0.00     0.001 N 
ATOM     30  N   UNL     1      23.997  32.843  18.283  1.00  0.00    -0.003 NA
ENDBRANCH  27  28
ENDBRANCH  26  27
ENDBRANCH  25  26
ENDBRANCH  19  25
BRANCH  20  31
ATOM     31  O   UNL     1      25.814  32.540  15.486  1.00  0.00    -0.387 OA
ATOM     32  H   UNL     1      26.746  32.324  15.757  1.00  0.00     0.211 HD
ENDBRANCH  20  31
BRANCH  21  33
ATOM     33  O   UNL     1      24.121  30.891  12.886  1.00  0.00    -0.385 OA
ATOM     34  H   UNL     1      23.170  30.742  12.622  1.00  0.00     0.211 HD
ENDBRANCH  21  33
ENDBRANCH  15  16
ENDBRANCH  10  15
BRANCH  12  35
ATOM     35  O   UNL     1      25.692  27.193  18.406  1.00  0.00    -0.385 OA
ATOM     36  H   UNL     1      26.118  26.368  18.070  1.00  0.00     0.211 HD
ENDBRANCH  12  35
BRANCH  13  37
ATOM     37  O   UNL     1      28.526  27.398  19.241  1.00  0.00    -0.387 OA
ATOM     38  H   UNL     1      28.466  26.820  20.046  1.00  0.00     0.211 HD
ENDBRANCH  13  37
BRANCH  14  39
ATOM     39  O   UNL     1      29.487  29.562  19.562  1.00  0.00    -0.387 OA
ATOM     40  H   UNL     1      29.917  30.221  18.968  1.00  0.00     0.211 HD
ENDBRANCH  14  39
ENDBRANCH   8   9
ENDBRANCH   7   8
ENDBRANCH   1   7
BRANCH   1  41
ATOM     41  C   UNL     1      30.145  32.697  15.065  1.00  0.00     0.364 C 
ATOM     42  O   UNL     1      29.863  33.384  14.064  1.00  0.00    -0.246 OA
BRANCH  41  43
ATOM     43  O   UNL     1      31.244  31.843  14.945  1.00  0.00    -0.477 OA
ATOM     44  H   UNL     1      31.577  31.548  14.039  1.00  0.00     0.296 HD
ENDBRANCH  41  43
ENDBRANCH   1  41
BRANCH   3  45
ATOM     45  O   UNL     1      31.918  34.042  18.646  1.00  0.00    -0.391 OA
ATOM     46  H   UNL     1      32.304  34.934  18.832  1.00  0.00     0.211 HD
ENDBRANCH   3  45
BRANCH   5  47
ATOM     47  C   UNL     1      27.668  34.396  18.431  1.00  0.00     0.176 C 
BRANCH  47  48
ATOM     48  O   UNL     1      26.626  33.688  17.795  1.00  0.00    -0.388 OA
ATOM     49  H   UNL     1      26.680  32.726  17.928  1.00  0.00     0.211 HD
ENDBRANCH  47  48
BRANCH  47  50
ATOM     50  C   UNL     1      27.060  35.520  19.189  1.00  0.00     0.165 C 
BRANCH  50  51
ATOM     51  O   UNL     1      26.744  35.037  20.453  1.00  0.00    -0.388 OA
ATOM     52  H   UNL     1      26.540  35.757  21.104  1.00  0.00     0.211 HD
ENDBRANCH  50  51
BRANCH  50  53
ATOM     53  C   UNL     1      25.858  36.152  18.579  1.00  0.00     0.154 C 
BRANCH  53  54
ATOM     54  N   UNL     1      26.036  36.744  17.292  1.00  0.00    -0.319 N 
ATOM     55  C   UNL     1      25.519  36.310  16.068  1.00  0.00     0.407 C 
ATOM     56  H   UNL     1      26.636  37.630  17.249  1.00  0.00     0.167 HD
ATOM     57  O   UNL     1      24.825  35.288  16.010  1.00  0.00    -0.225 OA
BRANCH  55  58
ATOM     58  O   UNL     1      25.768  37.009  14.889  1.00  0.00    -0.443 OA
BRANCH  58  59
ATOM     59  C   UNL     1      26.983  36.769  14.161  1.00  0.00     0.294 C 
BRANCH  59  60
ATOM     60  C   UNL     1      26.697  35.789  13.083  1.00  0.00     0.120 A 
ATOM     61  C   UNL     1      26.681  36.112  11.757  1.00  0.00     0.139 A 
ATOM     62  N   UNL     1      26.430  34.497  13.246  1.00  0.00    -0.132 NA
ATOM     63  N   UNL     1      26.393  34.969  11.111  1.00  0.00    -0.240 N 
ATOM     64  N   UNL     1      26.245  34.001  12.023  1.00  0.00    -0.066 NA
BRANCH  63  65
ATOM     65  C   UNL     1      26.261  34.724   9.690  1.00  0.00     0.169 C 
BRANCH  65  66
ATOM     66  C   UNL     1      27.609  34.706   9.106  1.00  0.00    -0.019 A 
ATOM     67  C   UNL     1      27.838  35.237   7.853  1.00  0.00     0.006 A 
ATOM     68  C   UNL     1      28.697  34.157   9.750  1.00  0.00     0.006 A 
ATOM     69  C   UNL     1      29.101  35.217   7.276  1.00  0.00     0.000 A 
ATOM     70  C   UNL     1      29.967  34.131   9.181  1.00  0.00     0.000 A 
ATOM     71  C   UNL     1      30.178  34.668   7.926  1.00  0.00     0.000 A 
ENDBRANCH  65  66
BRANCH  65  72
ATOM     72  C   UNL     1      25.330  35.694   9.081  1.00  0.00    -0.019 A 
ATOM     73  C   UNL     1      23.971  35.453   9.243  1.00  0.00     0.006 A 
ATOM     74  C   UNL     1      25.705  36.787   8.354  1.00  0.00     0.006 A 
ATOM     75  C   UNL     1      23.042  36.292   8.686  1.00  0.00     0.000 A 
ATOM     76  C   UNL     1      24.773  37.639   7.789  1.00  0.00     0.000 A 
ATOM     77  C   UNL     1      23.434  37.394   7.953  1.00  0.00     0.000 A 
ENDBRANCH  65  72
ENDBRANCH  63  65
ENDBRANCH  59  60
ENDBRANCH  58  59
ENDBRANCH  55  58
ENDBRANCH  53  54
ENDBRANCH  50  53
ENDBRANCH  47  50
ENDBRANCH   5  47
BRANCH   4  78
ATOM     78  N   UNL     1      30.466  36.319  16.981  1.00  0.00    -0.348 N 
ATOM     79  C   UNL     1      31.449  37.227  17.462  1.00  0.00     0.217 C 
ATOM     80  H   UNL     1      30.082  36.509  16.022  1.00  0.00     0.163 HD
ATOM     81  C   UNL     1      31.904  38.390  16.625  1.00  0.00     0.114 C 
ATOM     82  O   UNL     1      31.966  37.085  18.590  1.00  0.00    -0.275 OA
ENDBRANCH   4  78
TORSDOF 32
BEGIN_RES LYS A 131
REMARK  4 active torsions:
REMARK  status: ('A' for Active; 'I' for Inactive)
REMARK    1  A    between atoms: CA   and  CB  
REMARK    2  A    between atoms: CB   and  CG  
REMARK    3  A    between atoms: CG   and  CD  
REMARK    4  A    between atoms: CD   and  CE  
ROOT
ATOM      1  CA  LYS A 131      29.867  25.555  16.977  1.00 20.52     0.186 C 
ENDROOT
BRANCH   1   2
ATOM      2  CB  LYS A 131      28.345  25.722  17.026  1.00 20.94     0.034 C 
BRANCH   2   3
ATOM      3  CG  LYS A 131      27.599  24.418  16.784  1.00 22.96     0.005 C 
BRANCH   3   4
ATOM      4  CD  LYS A 131      26.821  23.979  17.993  1.00 24.33     0.041 C 
BRANCH   4   5
ATOM      5  CE  LYS A 131      25.581  23.210  17.548  1.00 26.91     0.338 C 
ATOM      6  NZ  LYS A 131      24.590  24.131  16.941  1.00 27.40     0.618 N 
ENDBRANCH   4   5
ENDBRANCH   3   4
ENDBRANCH   2   3
ENDBRANCH   1   2
END_RES LYS A 131
BEGIN_RES LYS A 135
REMARK  4 active torsions:
REMARK  status: ('A' for Active; 'I' for Inactive)
REMARK    5  A    between atoms: CA   and  CB  
REMARK    6  A    between atoms: CB   and  CG  
REMARK    7  A    between atoms: CG   and  CD  
REMARK    8  A    between atoms: CD   and  CE  
ROOT
ATOM      7  CA  LYS A 135      33.193  34.663   9.290  1.00 25.02     0.186 C 
ENDROOT
BRANCH   7   8
ATOM      8  CB  LYS A 135      32.060  35.360  10.034  1.00 26.63     0.034 C 
BRANCH   8   9
ATOM      9  CG  LYS A 135      32.506  36.060  11.291  1.00 29.45     0.005 C 
BRANCH   9  10
ATOM     10  CD  LYS A 135      31.751  37.368  11.474  1.00 32.00     0.041 C 
BRANCH  10  11
ATOM     11  CE  LYS A 135      30.255  37.120  11.501  1.00 34.25     0.338 C 
ATOM     12  NZ  LYS A 135      29.584  37.765  10.339  1.00 35.99     0.618 N 
ENDBRANCH  10  11
ENDBRANCH   9  10
ENDBRANCH   8   9
ENDBRANCH   7   8
END_RES LYS A 135
