REMARK VINA RESULT:    -5.149      3.536     10.388
REMARK INTER + INTRA:         -23.091
REMARK INTER:                 -11.919
REMARK INTRA:                 -11.172
REMARK UNBOUND:               -10.416
REMARK SMILES CC(=O)N[C@@H]1[C@@H](O)C[C@](OC[C@H]2O[C@@H](O[C@H]3[C@H](O)[C@@H](O)[C@H](OCCN=[N+]=[N-])O[C@@H]3CO)[C@H](O)[C@@H](O)[C@H]2O)(C(=O)O)O[C@H]1C(O)[C@H](O)CNC(=O)OCc1cn(-c2ccc3c(c2)OCO3)nn1
REMARK SMILES IDX 9 1 8 2 6 3 5 4 42 5 41 6 10 7 11 8 12 9 14 10 13 11 32 12
REMARK SMILES IDX 34 13 36 14 15 15 16 16 29 17 28 18 21 19 17 20 19 21 30 22
REMARK SMILES IDX 31 23 22 25 23 26 24 27 25 28 26 29 27 30 18 31 20 33 33 35
REMARK SMILES IDX 35 37 37 39 38 41 39 42 40 43 7 45 43 47 44 48 45 50 46 51
REMARK SMILES IDX 47 53 48 54 49 55 50 57 51 58 52 59 53 60 54 61 66 62 55 63
REMARK SMILES IDX 65 64 56 65 57 66 61 67 58 68 60 69 59 70 62 71 64 72 63 73
REMARK SMILES IDX 4 74 2 75 1 77 3 78
REMARK H PARENT 31 24 18 32 20 34 33 36 35 38 37 40 40 44 7 46 44 49 46 52
REMARK H PARENT 48 56 4 76
REMARK Flexibility Score: inf
ROOT
ATOM      1  C   UNL     1      26.082  39.517   7.507  1.00  0.00     0.272 C 
ATOM      2  C   UNL     1      26.096  40.653   6.523  1.00  0.00     0.113 C 
ATOM      3  C   UNL     1      27.188  40.474   5.452  1.00  0.00     0.145 C 
ATOM      4  C   UNL     1      28.499  40.616   6.196  1.00  0.00     0.142 C 
ATOM      5  C   UNL     1      28.432  39.620   7.335  1.00  0.00     0.178 C 
ATOM      6  O   UNL     1      27.327  38.840   7.361  1.00  0.00    -0.332 OA
ENDROOT
BRANCH   1   7
ATOM      7  O   UNL     1      25.160  38.598   7.274  1.00  0.00    -0.338 OA
BRANCH   7   8
ATOM      8  C   UNL     1      23.903  38.485   7.578  1.00  0.00     0.199 C 
BRANCH   8   9
ATOM      9  C   UNL     1      23.386  37.378   8.457  1.00  0.00     0.179 C 
ATOM     10  C   UNL     1      24.170  35.990  10.154  1.00  0.00     0.282 C 
ATOM     11  O   UNL     1      24.456  36.783   9.074  1.00  0.00    -0.341 OA
ATOM     12  C   UNL     1      22.719  35.688  10.324  1.00  0.00     0.202 C 
ATOM     13  C   UNL     1      21.883  36.954  10.392  1.00  0.00     0.179 C 
ATOM     14  C   UNL     1      22.468  38.024   9.528  1.00  0.00     0.177 C 
BRANCH  10  15
ATOM     15  O   UNL     1      24.571  36.702  11.302  1.00  0.00    -0.341 OA
BRANCH  15  16
ATOM     16  C   UNL     1      25.869  36.454  11.666  1.00  0.00     0.184 C 
ATOM     17  C   UNL     1      26.112  34.967  11.678  1.00  0.00     0.178 C 
ATOM     18  O   UNL     1      25.769  34.355  12.861  1.00  0.00    -0.341 OA
ATOM     19  C   UNL     1      24.739  35.013  13.535  1.00  0.00     0.281 C 
ATOM     20  C   UNL     1      26.080  37.078  13.026  1.00  0.00     0.180 C 
ATOM     21  C   UNL     1      25.162  36.382  14.006  1.00  0.00     0.202 C 
BRANCH  17  22
ATOM     22  C   UNL     1      27.573  34.639  11.405  1.00  0.00     0.191 C 
BRANCH  22  23
ATOM     23  O   UNL     1      28.328  34.684  12.571  1.00  0.00    -0.394 OA
ATOM     24  H   UNL     1      27.930  34.124  13.306  1.00  0.00     0.210 HD
ENDBRANCH  22  23
ENDBRANCH  17  22
BRANCH  19  25
ATOM     25  O   UNL     1      24.470  34.239  14.656  1.00  0.00    -0.350 OA
BRANCH  25  26
ATOM     26  C   UNL     1      25.131  33.022  14.530  1.00  0.00     0.169 C 
BRANCH  26  27
ATOM     27  C   UNL     1      25.678  32.553  15.873  1.00  0.00     0.119 C 
BRANCH  27  28
ATOM     28  N   UNL     1      27.142  32.661  15.788  1.00  0.00    -0.092 NA
ATOM     29  N   UNL     1      27.662  33.797  15.769  1.00  0.00     0.001 N 
ATOM     30  N   UNL     1      27.973  35.000  15.713  1.00  0.00    -0.003 NA
ENDBRANCH  27  28
ENDBRANCH  26  27
ENDBRANCH  25  26
ENDBRANCH  19  25
BRANCH  20  31
ATOM     31  O   UNL     1      27.398  37.069  13.435  1.00  0.00    -0.387 OA
ATOM     32  H   UNL     1      27.933  36.308  13.060  1.00  0.00     0.211 HD
ENDBRANCH  20  31
BRANCH  21  33
ATOM     33  O   UNL     1      24.009  37.160  14.125  1.00  0.00    -0.385 OA
ATOM     34  H   UNL     1      23.352  36.990  13.404  1.00  0.00     0.211 HD
ENDBRANCH  21  33
ENDBRANCH  15  16
ENDBRANCH  10  15
BRANCH  12  35
ATOM     35  O   UNL     1      22.184  34.854   9.345  1.00  0.00    -0.385 OA
ATOM     36  H   UNL     1      21.183  34.964   9.361  1.00  0.00     0.211 HD
ENDBRANCH  12  35
BRANCH  13  37
ATOM     37  O   UNL     1      21.835  37.366  11.726  1.00  0.00    -0.387 OA
ATOM     38  H   UNL     1      21.663  36.643  12.357  1.00  0.00     0.211 HD
ENDBRANCH  13  37
BRANCH  14  39
ATOM     39  O   UNL     1      23.216  38.881  10.329  1.00  0.00    -0.387 OA
ATOM     40  H   UNL     1      24.177  38.768  10.241  1.00  0.00     0.211 HD
ENDBRANCH  14  39
ENDBRANCH   8   9
ENDBRANCH   7   8
ENDBRANCH   1   7
BRANCH   1  41
ATOM     41  C   UNL     1      26.077  40.030   8.916  1.00  0.00     0.364 C 
ATOM     42  O   UNL     1      26.017  41.303   9.042  1.00  0.00    -0.246 OA
BRANCH  41  43
ATOM     43  O   UNL     1      26.133  39.278  10.045  1.00  0.00    -0.477 OA
ATOM     44  H   UNL     1      25.488  38.535  10.263  1.00  0.00     0.296 HD
ENDBRANCH  41  43
ENDBRANCH   1  41
BRANCH   3  45
ATOM     45  O   UNL     1      27.019  39.170   4.968  1.00  0.00    -0.391 OA
ATOM     46  H   UNL     1      26.399  38.668   5.542  1.00  0.00     0.211 HD
ENDBRANCH   3  45
BRANCH   5  47
ATOM     47  C   UNL     1      29.607  38.655   7.073  1.00  0.00     0.176 C 
BRANCH  47  48
ATOM     48  O   UNL     1      29.966  38.592   5.758  1.00  0.00    -0.388 OA
ATOM     49  H   UNL     1      30.027  37.676   5.391  1.00  0.00     0.211 HD
ENDBRANCH  47  48
BRANCH  47  50
ATOM     50  C   UNL     1      30.816  39.022   7.925  1.00  0.00     0.165 C 
BRANCH  50  51
ATOM     51  O   UNL     1      31.623  37.965   8.180  1.00  0.00    -0.388 OA
ATOM     52  H   UNL     1      32.126  37.594   7.425  1.00  0.00     0.211 HD
ENDBRANCH  50  51
BRANCH  50  53
ATOM     53  C   UNL     1      30.273  39.632   9.179  1.00  0.00     0.154 C 
BRANCH  53  54
ATOM     54  N   UNL     1      30.644  38.901  10.350  1.00  0.00    -0.319 N 
ATOM     55  C   UNL     1      29.804  38.021  11.079  1.00  0.00     0.407 C 
ATOM     56  H   UNL     1      31.640  38.988  10.761  1.00  0.00     0.167 HD
ATOM     57  O   UNL     1      28.630  37.807  10.715  1.00  0.00    -0.225 OA
BRANCH  55  58
ATOM     58  O   UNL     1      30.259  37.363  12.226  1.00  0.00    -0.443 OA
BRANCH  58  59
ATOM     59  C   UNL     1      31.548  37.522  12.752  1.00  0.00     0.294 C 
BRANCH  59  60
ATOM     60  C   UNL     1      31.913  36.273  13.503  1.00  0.00     0.121 A 
ATOM     61  C   UNL     1      31.087  35.592  14.399  1.00  0.00     0.144 A 
ATOM     62  N   UNL     1      33.054  35.574  13.468  1.00  0.00    -0.131 NA
ATOM     63  N   UNL     1      31.757  34.516  14.869  1.00  0.00    -0.220 N 
ATOM     64  N   UNL     1      32.940  34.549  14.276  1.00  0.00    -0.062 NA
BRANCH  63  65
ATOM     65  C   UNL     1      31.312  33.547  15.786  1.00  0.00     0.070 A 
ATOM     66  C   UNL     1      30.954  32.299  15.361  1.00  0.00     0.032 A 
ATOM     67  C   UNL     1      31.235  33.841  17.126  1.00  0.00     0.079 A 
ATOM     68  C   UNL     1      30.516  31.342  16.288  1.00  0.00     0.053 A 
ATOM     69  C   UNL     1      30.807  32.913  18.050  1.00  0.00     0.167 A 
ATOM     70  C   UNL     1      30.448  31.662  17.621  1.00  0.00     0.165 A 
ATOM     71  O   UNL     1      30.653  32.987  19.417  1.00  0.00    -0.454 OA
ATOM     72  O   UNL     1      30.060  30.924  18.732  1.00  0.00    -0.454 OA
ATOM     73  C   UNL     1      29.907  31.824  19.795  1.00  0.00     0.468 C 
ENDBRANCH  63  65
ENDBRANCH  59  60
ENDBRANCH  58  59
ENDBRANCH  55  58
ENDBRANCH  53  54
ENDBRANCH  50  53
ENDBRANCH  47  50
ENDBRANCH   5  47
BRANCH   4  74
ATOM     74  N   UNL     1      28.664  41.976   6.610  1.00  0.00    -0.348 N 
ATOM     75  C   UNL     1      29.953  42.626   6.574  1.00  0.00     0.217 C 
ATOM     76  H   UNL     1      27.899  42.589   6.962  1.00  0.00     0.163 HD
ATOM     77  C   UNL     1      30.112  44.040   7.007  1.00  0.00     0.114 C 
ATOM     78  O   UNL     1      30.936  41.992   6.176  1.00  0.00    -0.275 OA
ENDBRANCH   4  74
TORSDOF 30
BEGIN_RES LYS A 131
REMARK  4 active torsions:
REMARK  status: ('A' for Active; 'I' for Inactive)
REMARK    1  A    between atoms: CA   and  CB  
REMARK    2  A    between atoms: CB   and  CG  
REMARK    3  A    between atoms: CG   and  CD  
REMARK    4  A    between atoms: CD   and  CE  
ROOT
ATOM      1  CA  LYS A 131      29.867  25.555  16.977  1.00 20.52     0.186 C 
ENDROOT
BRANCH   1   2
ATOM      2  CB  LYS A 131      28.345  25.722  17.026  1.00 20.94     0.034 C 
BRANCH   2   3
ATOM      3  CG  LYS A 131      27.599  24.470  16.592  1.00 22.96     0.005 C 
BRANCH   3   4
ATOM      4  CD  LYS A 131      27.136  23.651  17.765  1.00 24.33     0.041 C 
BRANCH   4   5
ATOM      5  CE  LYS A 131      25.825  24.220  18.298  1.00 26.91     0.338 C 
ATOM      6  NZ  LYS A 131      25.546  23.695  19.656  1.00 27.40     0.618 N 
ENDBRANCH   4   5
ENDBRANCH   3   4
ENDBRANCH   2   3
ENDBRANCH   1   2
END_RES LYS A 131
BEGIN_RES LYS A 135
REMARK  4 active torsions:
REMARK  status: ('A' for Active; 'I' for Inactive)
REMARK    5  A    between atoms: CA   and  CB  
REMARK    6  A    between atoms: CB   and  CG  
REMARK    7  A    between atoms: CG   and  CD  
REMARK    8  A    between atoms: CD   and  CE  
ROOT
ATOM      7  CA  LYS A 135      33.193  34.663   9.290  1.00 25.02     0.186 C 
ENDROOT
BRANCH   7   8
ATOM      8  CB  LYS A 135      32.060  35.360  10.034  1.00 26.63     0.034 C 
BRANCH   8   9
ATOM      9  CG  LYS A 135      30.689  34.896   9.615  1.00 29.45     0.005 C 
BRANCH   9  10
ATOM     10  CD  LYS A 135      30.694  34.448   8.162  1.00 32.00     0.041 C 
BRANCH  10  11
ATOM     11  CE  LYS A 135      29.524  35.056   7.413  1.00 34.25     0.338 C 
ATOM     12  NZ  LYS A 135      28.237  34.773   8.107  1.00 35.99     0.618 N 
ENDBRANCH  10  11
ENDBRANCH   9  10
ENDBRANCH   8   9
ENDBRANCH   7   8
END_RES LYS A 135
