REMARK VINA RESULT:    -3.594      4.875     12.119
REMARK INTER + INTRA:         -21.522
REMARK INTER:                  -9.379
REMARK INTRA:                 -12.143
REMARK UNBOUND:               -12.359
REMARK SMILES CC(=O)N[C@@H]1[C@@H](O)C[C@](OC[C@H]2O[C@@H](O[C@H]3[C@H](O)[C@@H](O)[C@H](OCCN=[N+]=[N-])O[C@@H]3CO)[C@H](O)[C@@H](O)[C@H]2O)(C(=O)O)O[C@H]1C(O)[C@H](O)CNC(=O)OCc1cn(CC(=O)O)nn1
REMARK SMILES IDX 9 1 8 2 6 3 5 4 42 5 41 6 10 7 11 8 12 9 14 10 13 11 32 12
REMARK SMILES IDX 34 13 36 14 15 15 16 16 29 17 28 18 21 19 17 20 19 21 30 22
REMARK SMILES IDX 31 23 22 25 23 26 24 27 25 28 26 29 27 30 18 31 20 33 33 35
REMARK SMILES IDX 35 37 37 39 38 41 39 42 40 43 7 45 43 47 44 48 45 50 46 51
REMARK SMILES IDX 47 53 48 54 49 55 50 57 51 58 52 59 53 60 54 61 61 62 55 63
REMARK SMILES IDX 60 64 56 65 57 66 58 67 59 68 4 70 2 71 1 73 3 74
REMARK H PARENT 31 24 18 32 20 34 33 36 35 38 37 40 40 44 7 46 44 49 46 52
REMARK H PARENT 48 56 59 69 4 72
REMARK Flexibility Score: inf
ROOT
ATOM      1  C   UNL     1      27.390  28.993  19.710  1.00  0.00     0.272 C 
ATOM      2  C   UNL     1      27.739  28.552  18.317  1.00  0.00     0.113 C 
ATOM      3  C   UNL     1      26.615  28.257  17.415  1.00  0.00     0.145 C 
ATOM      4  C   UNL     1      25.260  28.040  18.079  1.00  0.00     0.142 C 
ATOM      5  C   UNL     1      25.545  27.632  19.491  1.00  0.00     0.178 C 
ATOM      6  O   UNL     1      26.086  28.819  20.053  1.00  0.00    -0.332 OA
ENDROOT
BRANCH   1   7
ATOM      7  O   UNL     1      27.733  30.345  19.929  1.00  0.00    -0.338 OA
BRANCH   7   8
ATOM      8  C   UNL     1      26.697  31.145  20.302  1.00  0.00     0.199 C 
BRANCH   8   9
ATOM      9  C   UNL     1      26.580  32.322  19.320  1.00  0.00     0.179 C 
ATOM     10  C   UNL     1      26.171  32.377  17.051  1.00  0.00     0.282 C 
ATOM     11  O   UNL     1      27.099  32.033  18.084  1.00  0.00    -0.341 OA
ATOM     12  C   UNL     1      25.032  31.446  17.246  1.00  0.00     0.202 C 
ATOM     13  C   UNL     1      24.239  31.995  18.444  1.00  0.00     0.179 C 
ATOM     14  C   UNL     1      25.153  32.833  19.296  1.00  0.00     0.177 C 
BRANCH  10  15
ATOM     15  O   UNL     1      26.839  32.320  15.863  1.00  0.00    -0.341 OA
BRANCH  15  16
ATOM     16  C   UNL     1      28.121  32.868  15.908  1.00  0.00     0.184 C 
ATOM     17  C   UNL     1      28.149  34.076  15.019  1.00  0.00     0.178 C 
ATOM     18  O   UNL     1      29.396  34.277  14.493  1.00  0.00    -0.341 OA
ATOM     19  C   UNL     1      30.468  33.996  15.302  1.00  0.00     0.281 C 
ATOM     20  C   UNL     1      29.157  31.884  15.408  1.00  0.00     0.180 C 
ATOM     21  C   UNL     1      30.524  32.522  15.665  1.00  0.00     0.202 C 
BRANCH  17  22
ATOM     22  C   UNL     1      27.732  35.296  15.819  1.00  0.00     0.191 C 
BRANCH  22  23
ATOM     23  O   UNL     1      28.143  36.405  15.074  1.00  0.00    -0.394 OA
ATOM     24  H   UNL     1      27.408  36.747  14.519  1.00  0.00     0.210 HD
ENDBRANCH  22  23
ENDBRANCH  17  22
BRANCH  19  25
ATOM     25  O   UNL     1      30.483  34.811  16.400  1.00  0.00    -0.350 OA
BRANCH  25  26
ATOM     26  C   UNL     1      30.997  34.232  17.533  1.00  0.00     0.169 C 
BRANCH  26  27
ATOM     27  C   UNL     1      30.094  34.291  18.737  1.00  0.00     0.119 C 
BRANCH  27  28
ATOM     28  N   UNL     1      30.343  33.165  19.639  1.00  0.00    -0.092 NA
ATOM     29  N   UNL     1      30.614  32.082  19.082  1.00  0.00     0.001 N 
ATOM     30  N   UNL     1      30.546  30.852  18.890  1.00  0.00    -0.003 NA
ENDBRANCH  27  28
ENDBRANCH  26  27
ENDBRANCH  25  26
ENDBRANCH  19  25
BRANCH  20  31
ATOM     31  O   UNL     1      29.140  30.683  16.072  1.00  0.00    -0.387 OA
ATOM     32  H   UNL     1      30.004  30.344  16.352  1.00  0.00     0.211 HD
ENDBRANCH  20  31
BRANCH  21  33
ATOM     33  O   UNL     1      31.514  31.901  14.927  1.00  0.00    -0.385 OA
ATOM     34  H   UNL     1      32.298  31.667  15.487  1.00  0.00     0.211 HD
ENDBRANCH  21  33
ENDBRANCH  15  16
ENDBRANCH  10  15
BRANCH  12  35
ATOM     35  O   UNL     1      24.239  31.189  16.166  1.00  0.00    -0.385 OA
ATOM     36  H   UNL     1      23.564  30.526  16.385  1.00  0.00     0.211 HD
ENDBRANCH  12  35
BRANCH  13  37
ATOM     37  O   UNL     1      23.769  30.899  19.152  1.00  0.00    -0.387 OA
ATOM     38  H   UNL     1      24.489  30.246  19.376  1.00  0.00     0.211 HD
ENDBRANCH  13  37
BRANCH  14  39
ATOM     39  O   UNL     1      24.652  32.765  20.595  1.00  0.00    -0.387 OA
ATOM     40  H   UNL     1      24.841  33.580  21.116  1.00  0.00     0.211 HD
ENDBRANCH  14  39
ENDBRANCH   8   9
ENDBRANCH   7   8
ENDBRANCH   1   7
BRANCH   1  41
ATOM     41  C   UNL     1      28.234  28.229  20.657  1.00  0.00     0.364 C 
ATOM     42  O   UNL     1      28.240  28.480  21.877  1.00  0.00    -0.246 OA
BRANCH  41  43
ATOM     43  O   UNL     1      29.055  27.198  20.233  1.00  0.00    -0.477 OA
ATOM     44  H   UNL     1      29.932  27.358  19.722  1.00  0.00     0.296 HD
ENDBRANCH  41  43
ENDBRANCH   1  41
BRANCH   3  45
ATOM     45  O   UNL     1      26.519  29.115  16.314  1.00  0.00    -0.391 OA
ATOM     46  H   UNL     1      26.996  28.802  15.527  1.00  0.00     0.211 HD
ENDBRANCH   3  45
BRANCH   5  47
ATOM     47  C   UNL     1      24.392  27.190  20.325  1.00  0.00     0.176 C 
BRANCH  47  48
ATOM     48  O   UNL     1      23.551  28.349  20.411  1.00  0.00    -0.388 OA
ATOM     49  H   UNL     1      24.077  29.155  20.140  1.00  0.00     0.211 HD
ENDBRANCH  47  48
BRANCH  47  50
ATOM     50  C   UNL     1      24.761  26.784  21.735  1.00  0.00     0.165 C 
BRANCH  50  51
ATOM     51  O   UNL     1      25.195  27.936  22.441  1.00  0.00    -0.388 OA
ATOM     52  H   UNL     1      24.918  27.821  23.376  1.00  0.00     0.211 HD
ENDBRANCH  50  51
BRANCH  50  53
ATOM     53  C   UNL     1      25.815  25.749  21.796  1.00  0.00     0.154 C 
BRANCH  53  54
ATOM     54  N   UNL     1      26.817  26.035  22.781  1.00  0.00    -0.319 N 
ATOM     55  C   UNL     1      26.921  25.487  24.079  1.00  0.00     0.407 C 
ATOM     56  H   UNL     1      27.609  26.740  22.562  1.00  0.00     0.167 HD
ATOM     57  O   UNL     1      26.100  24.672  24.506  1.00  0.00    -0.225 OA
BRANCH  55  58
ATOM     58  O   UNL     1      27.957  25.838  24.953  1.00  0.00    -0.443 OA
BRANCH  58  59
ATOM     59  C   UNL     1      29.238  25.242  24.842  1.00  0.00     0.294 C 
BRANCH  59  60
ATOM     60  C   UNL     1      30.134  26.078  23.985  1.00  0.00     0.120 A 
ATOM     61  C   UNL     1      30.963  27.107  24.410  1.00  0.00     0.139 A 
ATOM     62  N   UNL     1      30.311  26.000  22.657  1.00  0.00    -0.132 NA
ATOM     63  N   UNL     1      31.599  27.603  23.334  1.00  0.00    -0.241 N 
ATOM     64  N   UNL     1      31.187  26.915  22.281  1.00  0.00    -0.066 NA
BRANCH  63  65
ATOM     65  C   UNL     1      32.575  28.697  23.295  1.00  0.00     0.268 C 
BRANCH  65  66
ATOM     66  C   UNL     1      32.313  29.499  22.086  1.00  0.00     0.325 C 
ATOM     67  O   UNL     1      33.250  29.863  21.361  1.00  0.00    -0.250 OA
BRANCH  66  68
ATOM     68  O   UNL     1      31.017  29.845  21.762  1.00  0.00    -0.480 OA
ATOM     69  H   UNL     1      30.473  29.353  21.084  1.00  0.00     0.296 HD
ENDBRANCH  66  68
ENDBRANCH  65  66
ENDBRANCH  63  65
ENDBRANCH  59  60
ENDBRANCH  58  59
ENDBRANCH  55  58
ENDBRANCH  53  54
ENDBRANCH  50  53
ENDBRANCH  47  50
ENDBRANCH   5  47
BRANCH   4  70
ATOM     70  N   UNL     1      24.431  27.189  17.296  1.00  0.00    -0.348 N 
ATOM     71  C   UNL     1      23.180  27.630  16.742  1.00  0.00     0.217 C 
ATOM     72  H   UNL     1      24.714  26.213  17.083  1.00  0.00     0.163 HD
ATOM     73  C   UNL     1      22.381  26.676  15.938  1.00  0.00     0.114 C 
ATOM     74  O   UNL     1      22.766  28.798  16.932  1.00  0.00    -0.275 OA
ENDBRANCH   4  70
TORSDOF 32
BEGIN_RES LYS A 131
REMARK  4 active torsions:
REMARK  status: ('A' for Active; 'I' for Inactive)
REMARK    1  A    between atoms: CA   and  CB  
REMARK    2  A    between atoms: CB   and  CG  
REMARK    3  A    between atoms: CG   and  CD  
REMARK    4  A    between atoms: CD   and  CE  
ROOT
ATOM      1  CA  LYS A 131      29.867  25.555  16.977  1.00 20.52     0.186 C 
ENDROOT
BRANCH   1   2
ATOM      2  CB  LYS A 131      28.345  25.722  17.026  1.00 20.94     0.034 C 
BRANCH   2   3
ATOM      3  CG  LYS A 131      27.602  24.398  16.935  1.00 22.96     0.005 C 
BRANCH   3   4
ATOM      4  CD  LYS A 131      26.525  24.280  17.977  1.00 24.33     0.041 C 
BRANCH   4   5
ATOM      5  CE  LYS A 131      25.247  23.754  17.331  1.00 26.91     0.338 C 
ATOM      6  NZ  LYS A 131      24.889  22.430  17.892  1.00 27.40     0.618 N 
ENDBRANCH   4   5
ENDBRANCH   3   4
ENDBRANCH   2   3
ENDBRANCH   1   2
END_RES LYS A 131
BEGIN_RES LYS A 135
REMARK  4 active torsions:
REMARK  status: ('A' for Active; 'I' for Inactive)
REMARK    5  A    between atoms: CA   and  CB  
REMARK    6  A    between atoms: CB   and  CG  
REMARK    7  A    between atoms: CG   and  CD  
REMARK    8  A    between atoms: CD   and  CE  
ROOT
ATOM      7  CA  LYS A 135      33.193  34.663   9.290  1.00 25.02     0.186 C 
ENDROOT
BRANCH   7   8
ATOM      8  CB  LYS A 135      32.060  35.360  10.034  1.00 26.63     0.034 C 
BRANCH   8   9
ATOM      9  CG  LYS A 135      30.766  35.398   9.262  1.00 29.45     0.005 C 
BRANCH   9  10
ATOM     10  CD  LYS A 135      29.716  34.526   9.933  1.00 32.00     0.041 C 
BRANCH  10  11
ATOM     11  CE  LYS A 135      28.590  34.210   8.967  1.00 34.25     0.338 C 
ATOM     12  NZ  LYS A 135      27.353  33.815   9.695  1.00 35.99     0.618 N 
ENDBRANCH  10  11
ENDBRANCH   9  10
ENDBRANCH   8   9
ENDBRANCH   7   8
END_RES LYS A 135
