REMARK VINA RESULT:    -4.992      3.211      7.971
REMARK INTER + INTRA:         -22.703
REMARK INTER:                 -11.713
REMARK INTRA:                 -10.991
REMARK UNBOUND:               -10.416
REMARK SMILES CC(=O)N[C@@H]1[C@@H](O)C[C@](OC[C@H]2O[C@@H](O[C@H]3[C@H](O)[C@@H](O)[C@H](OCCN=[N+]=[N-])O[C@@H]3CO)[C@H](O)[C@@H](O)[C@H]2O)(C(=O)O)O[C@H]1C(O)[C@H](O)CNC(=O)OCc1cn(-c2ccc3c(c2)OCO3)nn1
REMARK SMILES IDX 9 1 8 2 6 3 5 4 42 5 41 6 10 7 11 8 12 9 14 10 13 11 32 12
REMARK SMILES IDX 34 13 36 14 15 15 16 16 29 17 28 18 21 19 17 20 19 21 30 22
REMARK SMILES IDX 31 23 22 25 23 26 24 27 25 28 26 29 27 30 18 31 20 33 33 35
REMARK SMILES IDX 35 37 37 39 38 41 39 42 40 43 7 45 43 47 44 48 45 50 46 51
REMARK SMILES IDX 47 53 48 54 49 55 50 57 51 58 52 59 53 60 54 61 66 62 55 63
REMARK SMILES IDX 65 64 56 65 57 66 61 67 58 68 60 69 59 70 62 71 64 72 63 73
REMARK SMILES IDX 4 74 2 75 1 77 3 78
REMARK H PARENT 31 24 18 32 20 34 33 36 35 38 37 40 40 44 7 46 44 49 46 52
REMARK H PARENT 48 56 4 76
REMARK Flexibility Score: inf
ROOT
ATOM      1  C   UNL     1      27.686  30.495  16.538  1.00  0.00     0.272 C 
ATOM      2  C   UNL     1      28.663  30.644  15.405  1.00  0.00     0.113 C 
ATOM      3  C   UNL     1      29.999  31.249  15.874  1.00  0.00     0.145 C 
ATOM      4  C   UNL     1      29.672  32.674  16.267  1.00  0.00     0.142 C 
ATOM      5  C   UNL     1      28.535  32.572  17.263  1.00  0.00     0.178 C 
ATOM      6  O   UNL     1      28.168  31.314  17.599  1.00  0.00    -0.332 OA
ENDROOT
BRANCH   1   7
ATOM      7  O   UNL     1      27.616  29.276  17.047  1.00  0.00    -0.338 OA
BRANCH   7   8
ATOM      8  C   UNL     1      26.642  28.449  17.274  1.00  0.00     0.199 C 
BRANCH   8   9
ATOM      9  C   UNL     1      26.397  27.850  18.634  1.00  0.00     0.179 C 
ATOM     10  C   UNL     1      27.630  27.195  20.497  1.00  0.00     0.282 C 
ATOM     11  O   UNL     1      27.602  27.451  19.152  1.00  0.00    -0.341 OA
ATOM     12  C   UNL     1      26.283  27.136  21.137  1.00  0.00     0.202 C 
ATOM     13  C   UNL     1      25.479  28.399  20.878  1.00  0.00     0.179 C 
ATOM     14  C   UNL     1      25.794  28.963  19.530  1.00  0.00     0.177 C 
BRANCH  10  15
ATOM     15  O   UNL     1      28.316  28.267  21.103  1.00  0.00    -0.341 OA
BRANCH  15  16
ATOM     16  C   UNL     1      29.626  28.360  20.711  1.00  0.00     0.184 C 
ATOM     17  C   UNL     1      30.521  27.935  21.846  1.00  0.00     0.178 C 
ATOM     18  O   UNL     1      30.819  28.945  22.730  1.00  0.00    -0.341 OA
ATOM     19  C   UNL     1      29.816  29.913  22.808  1.00  0.00     0.281 C 
ATOM     20  C   UNL     1      29.870  29.792  20.297  1.00  0.00     0.180 C 
ATOM     21  C   UNL     1      29.666  30.670  21.511  1.00  0.00     0.202 C 
BRANCH  17  22
ATOM     22  C   UNL     1      31.842  27.376  21.337  1.00  0.00     0.191 C 
BRANCH  22  23
ATOM     23  O   UNL     1      31.768  27.057  19.987  1.00  0.00    -0.394 OA
ATOM     24  H   UNL     1      31.361  27.798  19.440  1.00  0.00     0.210 HD
ENDBRANCH  22  23
ENDBRANCH  17  22
BRANCH  19  25
ATOM     25  O   UNL     1      30.234  30.810  23.781  1.00  0.00    -0.350 OA
BRANCH  25  26
ATOM     26  C   UNL     1      31.616  30.949  23.699  1.00  0.00     0.169 C 
BRANCH  26  27
ATOM     27  C   UNL     1      32.024  32.418  23.737  1.00  0.00     0.119 C 
BRANCH  27  28
ATOM     28  N   UNL     1      30.826  33.193  23.380  1.00  0.00    -0.092 NA
ATOM     29  N   UNL     1      30.843  33.879  22.335  1.00  0.00     0.001 N 
ATOM     30  N   UNL     1      31.078  34.526  21.299  1.00  0.00    -0.003 NA
ENDBRANCH  27  28
ENDBRANCH  26  27
ENDBRANCH  25  26
ENDBRANCH  19  25
BRANCH  20  31
ATOM     31  O   UNL     1      31.099  29.989  19.701  1.00  0.00    -0.387 OA
ATOM     32  H   UNL     1      31.251  30.929  19.387  1.00  0.00     0.211 HD
ENDBRANCH  20  31
BRANCH  21  33
ATOM     33  O   UNL     1      28.360  31.160  21.460  1.00  0.00    -0.385 OA
ATOM     34  H   UNL     1      27.734  30.543  21.001  1.00  0.00     0.211 HD
ENDBRANCH  21  33
ENDBRANCH  15  16
ENDBRANCH  10  15
BRANCH  12  35
ATOM     35  O   UNL     1      25.515  26.036  20.763  1.00  0.00    -0.385 OA
ATOM     36  H   UNL     1      26.134  25.248  20.664  1.00  0.00     0.211 HD
ENDBRANCH  12  35
BRANCH  13  37
ATOM     37  O   UNL     1      25.788  29.318  21.884  1.00  0.00    -0.387 OA
ATOM     38  H   UNL     1      25.041  29.888  22.143  1.00  0.00     0.211 HD
ENDBRANCH  13  37
BRANCH  14  39
ATOM     39  O   UNL     1      26.719  29.991  19.686  1.00  0.00    -0.387 OA
ATOM     40  H   UNL     1      27.605  29.690  19.946  1.00  0.00     0.211 HD
ENDBRANCH  14  39
ENDBRANCH   8   9
ENDBRANCH   7   8
ENDBRANCH   1   7
BRANCH   1  41
ATOM     41  C   UNL     1      26.351  31.071  16.172  1.00  0.00     0.364 C 
ATOM     42  O   UNL     1      25.617  31.438  17.156  1.00  0.00    -0.246 OA
BRANCH  41  43
ATOM     43  O   UNL     1      25.862  31.232  14.916  1.00  0.00    -0.477 OA
ATOM     44  H   UNL     1      26.335  30.925  14.081  1.00  0.00     0.296 HD
ENDBRANCH  41  43
ENDBRANCH   1  41
BRANCH   3  45
ATOM     45  O   UNL     1      30.377  30.490  16.989  1.00  0.00    -0.391 OA
ATOM     46  H   UNL     1      30.271  29.531  16.804  1.00  0.00     0.211 HD
ENDBRANCH   3  45
BRANCH   5  47
ATOM     47  C   UNL     1      29.100  33.192  18.558  1.00  0.00     0.176 C 
BRANCH  47  48
ATOM     48  O   UNL     1      29.969  34.218  18.326  1.00  0.00    -0.388 OA
ATOM     49  H   UNL     1      29.798  35.032  18.862  1.00  0.00     0.211 HD
ENDBRANCH  47  48
BRANCH  47  50
ATOM     50  C   UNL     1      27.976  33.661  19.474  1.00  0.00     0.165 C 
BRANCH  50  51
ATOM     51  O   UNL     1      26.769  33.150  19.133  1.00  0.00    -0.388 OA
ATOM     52  H   UNL     1      26.137  33.755  18.692  1.00  0.00     0.211 HD
ENDBRANCH  50  51
BRANCH  50  53
ATOM     53  C   UNL     1      27.991  35.156  19.422  1.00  0.00     0.154 C 
BRANCH  53  54
ATOM     54  N   UNL     1      27.497  35.667  18.181  1.00  0.00    -0.319 N 
ATOM     55  C   UNL     1      26.161  36.065  17.921  1.00  0.00     0.407 C 
ATOM     56  H   UNL     1      28.156  35.783  17.332  1.00  0.00     0.167 HD
ATOM     57  O   UNL     1      25.289  36.003  18.811  1.00  0.00    -0.225 OA
BRANCH  55  58
ATOM     58  O   UNL     1      25.775  36.538  16.663  1.00  0.00    -0.443 OA
BRANCH  58  59
ATOM     59  C   UNL     1      24.817  35.908  15.857  1.00  0.00     0.294 C 
BRANCH  59  60
ATOM     60  C   UNL     1      25.520  35.269  14.693  1.00  0.00     0.121 A 
ATOM     61  C   UNL     1      25.491  35.725  13.374  1.00  0.00     0.144 A 
ATOM     62  N   UNL     1      26.297  34.179  14.676  1.00  0.00    -0.131 NA
ATOM     63  N   UNL     1      26.245  34.898  12.616  1.00  0.00    -0.220 N 
ATOM     64  N   UNL     1      26.710  33.981  13.449  1.00  0.00    -0.062 NA
BRANCH  63  65
ATOM     65  C   UNL     1      26.503  34.977  11.236  1.00  0.00     0.070 A 
ATOM     66  C   UNL     1      27.176  33.974  10.596  1.00  0.00     0.032 A 
ATOM     67  C   UNL     1      26.080  36.063  10.510  1.00  0.00     0.079 A 
ATOM     68  C   UNL     1      27.424  34.066   9.218  1.00  0.00     0.053 A 
ATOM     69  C   UNL     1      26.315  36.170   9.156  1.00  0.00     0.167 A 
ATOM     70  C   UNL     1      26.990  35.162   8.517  1.00  0.00     0.165 A 
ATOM     71  O   UNL     1      25.988  37.150   8.245  1.00  0.00    -0.454 OA
ATOM     72  O   UNL     1      27.095  35.505   7.174  1.00  0.00    -0.454 OA
ATOM     73  C   UNL     1      26.738  36.855   7.060  1.00  0.00     0.468 C 
ENDBRANCH  63  65
ENDBRANCH  59  60
ENDBRANCH  58  59
ENDBRANCH  55  58
ENDBRANCH  53  54
ENDBRANCH  50  53
ENDBRANCH  47  50
ENDBRANCH   5  47
BRANCH   4  74
ATOM     74  N   UNL     1      29.362  33.431  15.093  1.00  0.00    -0.348 N 
ATOM     75  C   UNL     1      30.381  34.151  14.367  1.00  0.00     0.217 C 
ATOM     76  H   UNL     1      28.411  33.526  14.679  1.00  0.00     0.163 HD
ATOM     77  C   UNL     1      30.046  34.934  13.148  1.00  0.00     0.114 C 
ATOM     78  O   UNL     1      31.548  34.113  14.770  1.00  0.00    -0.275 OA
ENDBRANCH   4  74
TORSDOF 30
BEGIN_RES LYS A 131
REMARK  4 active torsions:
REMARK  status: ('A' for Active; 'I' for Inactive)
REMARK    1  A    between atoms: CA   and  CB  
REMARK    2  A    between atoms: CB   and  CG  
REMARK    3  A    between atoms: CG   and  CD  
REMARK    4  A    between atoms: CD   and  CE  
ROOT
ATOM      1  CA  LYS A 131      29.867  25.555  16.977  1.00 20.52     0.186 C 
ENDROOT
BRANCH   1   2
ATOM      2  CB  LYS A 131      28.345  25.722  17.026  1.00 20.94     0.034 C 
BRANCH   2   3
ATOM      3  CG  LYS A 131      27.601  24.405  16.872  1.00 22.96     0.005 C 
BRANCH   3   4
ATOM      4  CD  LYS A 131      26.783  24.070  18.089  1.00 24.33     0.041 C 
BRANCH   4   5
ATOM      5  CE  LYS A 131      25.576  23.234  17.676  1.00 26.91     0.338 C 
ATOM      6  NZ  LYS A 131      24.612  24.058  16.908  1.00 27.40     0.618 N 
ENDBRANCH   4   5
ENDBRANCH   3   4
ENDBRANCH   2   3
ENDBRANCH   1   2
END_RES LYS A 131
BEGIN_RES LYS A 135
REMARK  4 active torsions:
REMARK  status: ('A' for Active; 'I' for Inactive)
REMARK    5  A    between atoms: CA   and  CB  
REMARK    6  A    between atoms: CB   and  CG  
REMARK    7  A    between atoms: CG   and  CD  
REMARK    8  A    between atoms: CD   and  CE  
ROOT
ATOM      7  CA  LYS A 135      33.193  34.663   9.290  1.00 25.02     0.186 C 
ENDROOT
BRANCH   7   8
ATOM      8  CB  LYS A 135      32.060  35.360  10.034  1.00 26.63     0.034 C 
BRANCH   8   9
ATOM      9  CG  LYS A 135      30.730  35.266   9.331  1.00 29.45     0.005 C 
BRANCH   9  10
ATOM     10  CD  LYS A 135      30.219  36.651   8.963  1.00 32.00     0.041 C 
BRANCH  10  11
ATOM     11  CE  LYS A 135      29.597  37.327  10.169  1.00 34.25     0.338 C 
ATOM     12  NZ  LYS A 135      29.008  38.645   9.801  1.00 35.99     0.618 N 
ENDBRANCH  10  11
ENDBRANCH   9  10
ENDBRANCH   8   9
ENDBRANCH   7   8
END_RES LYS A 135
