REMARK VINA RESULT:    -3.019      3.085      7.289
REMARK INTER + INTRA:         -22.220
REMARK INTER:                  -9.273
REMARK INTRA:                 -12.947
REMARK UNBOUND:               -13.729
REMARK SMILES CCOC(CCn1cc(COC(=O)NC[C@@H](O)C(O)[C@@H]2O[C@@](OC[C@H]3O[C@@H](O[C@H]4[C@H](O)[C@@H](O)[C@H](OCCN=[N+]=[N-])O[C@@H]4CO)[C@H](O)[C@@H](O)[C@H]3O)(C(=O)O)C[C@H](O)[C@H]2NC(C)=O)nn1)OCC
REMARK SMILES IDX 18 1 20 2 22 3 54 4 21 5 55 6 57 7 23 8 24 9 25 10 27 11
REMARK SMILES IDX 26 12 45 13 47 14 49 15 28 16 29 17 42 18 41 19 34 20 30 21
REMARK SMILES IDX 32 22 43 23 44 24 35 26 36 27 37 28 38 29 39 30 40 31 31 32
REMARK SMILES IDX 33 34 46 36 48 38 50 40 51 42 52 43 53 44 56 46 58 48 59 49
REMARK SMILES IDX 60 51 61 52 19 53 16 55 17 56 15 58 14 59 12 60 13 62 11 63
REMARK SMILES IDX 10 64 9 65 8 66 62 67 7 68 63 69 6 70 5 71 4 72 3 73 2 74
REMARK SMILES IDX 1 75 64 76 65 77 66 78
REMARK H PARENT 44 25 31 33 33 35 46 37 48 39 50 41 53 45 56 47 58 50 19 54
REMARK H PARENT 17 57 14 61
REMARK Flexibility Score: inf
ROOT
ATOM      1  C   UNL     1      21.986  37.738  12.050  1.00  0.00     0.176 C 
ENDROOT
BRANCH   1   2
ATOM      2  C   UNL     1      22.121  37.046  10.726  1.00  0.00     0.178 C 
ATOM      3  C   UNL     1      23.598  36.521   9.025  1.00  0.00     0.272 C 
ATOM      4  C   UNL     1      22.391  35.778   8.572  1.00  0.00     0.113 C 
ATOM      5  O   UNL     1      23.402  37.231  10.231  1.00  0.00    -0.332 OA
ATOM      6  C   UNL     1      21.102  36.522   8.628  1.00  0.00     0.145 C 
ATOM      7  C   UNL     1      21.199  37.652   9.662  1.00  0.00     0.142 C 
BRANCH   3   8
ATOM      8  O   UNL     1      24.209  37.338   8.163  1.00  0.00    -0.338 OA
BRANCH   8   9
ATOM      9  C   UNL     1      24.728  38.520   8.543  1.00  0.00     0.199 C 
BRANCH   9  10
ATOM     10  C   UNL     1      26.232  38.533   8.392  1.00  0.00     0.179 C 
ATOM     11  C   UNL     1      28.218  38.020   9.306  1.00  0.00     0.282 C 
ATOM     12  O   UNL     1      26.878  37.576   9.153  1.00  0.00    -0.341 OA
ATOM     13  C   UNL     1      28.902  37.874   7.997  1.00  0.00     0.202 C 
ATOM     14  C   UNL     1      28.154  38.654   6.942  1.00  0.00     0.179 C 
ATOM     15  C   UNL     1      26.668  38.409   6.935  1.00  0.00     0.177 C 
BRANCH  11  16
ATOM     16  O   UNL     1      28.805  37.321  10.366  1.00  0.00    -0.341 OA
BRANCH  16  17
ATOM     17  C   UNL     1      28.498  37.947  11.533  1.00  0.00     0.184 C 
ATOM     18  C   UNL     1      29.595  38.500  12.358  1.00  0.00     0.178 C 
ATOM     19  O   UNL     1      29.036  39.411  13.265  1.00  0.00    -0.341 OA
ATOM     20  C   UNL     1      28.239  38.738  14.203  1.00  0.00     0.281 C 
ATOM     21  C   UNL     1      27.751  36.970  12.496  1.00  0.00     0.180 C 
ATOM     22  C   UNL     1      27.152  37.913  13.549  1.00  0.00     0.202 C 
BRANCH  18  23
ATOM     23  C   UNL     1      30.599  39.233  11.520  1.00  0.00     0.191 C 
BRANCH  23  24
ATOM     24  O   UNL     1      31.428  38.366  10.807  1.00  0.00    -0.394 OA
ATOM     25  H   UNL     1      32.372  38.495  11.004  1.00  0.00     0.210 HD
ENDBRANCH  23  24
ENDBRANCH  18  23
BRANCH  20  26
ATOM     26  O   UNL     1      27.629  39.712  14.973  1.00  0.00    -0.350 OA
BRANCH  26  27
ATOM     27  C   UNL     1      28.433  40.696  15.465  1.00  0.00     0.169 C 
BRANCH  27  28
ATOM     28  C   UNL     1      28.961  40.313  16.823  1.00  0.00     0.119 C 
BRANCH  28  29
ATOM     29  N   UNL     1      28.349  41.171  17.835  1.00  0.00    -0.092 NA
ATOM     30  N   UNL     1      27.140  40.942  18.048  1.00  0.00     0.001 N 
ATOM     31  N   UNL     1      25.927  41.148  18.132  1.00  0.00    -0.003 NA
ENDBRANCH  28  29
ENDBRANCH  27  28
ENDBRANCH  26  27
ENDBRANCH  20  26
BRANCH  21  32
ATOM     32  O   UNL     1      26.763  36.284  11.841  1.00  0.00    -0.387 OA
ATOM     33  H   UNL     1      26.024  36.866  11.537  1.00  0.00     0.211 HD
ENDBRANCH  21  32
BRANCH  22  34
ATOM     34  O   UNL     1      26.474  37.215  14.511  1.00  0.00    -0.385 OA
ATOM     35  H   UNL     1      26.915  37.428  15.392  1.00  0.00     0.211 HD
ENDBRANCH  22  34
ENDBRANCH  16  17
ENDBRANCH  11  16
BRANCH  13  36
ATOM     36  O   UNL     1      30.194  38.421   8.030  1.00  0.00    -0.385 OA
ATOM     37  H   UNL     1      30.435  38.733   8.930  1.00  0.00     0.211 HD
ENDBRANCH  13  36
BRANCH  14  38
ATOM     38  O   UNL     1      28.722  38.501   5.682  1.00  0.00    -0.387 OA
ATOM     39  H   UNL     1      29.583  38.995   5.612  1.00  0.00     0.211 HD
ENDBRANCH  14  38
BRANCH  15  40
ATOM     40  O   UNL     1      26.337  37.149   6.461  1.00  0.00    -0.387 OA
ATOM     41  H   UNL     1      27.023  36.488   6.705  1.00  0.00     0.211 HD
ENDBRANCH  15  40
ENDBRANCH   9  10
ENDBRANCH   8   9
ENDBRANCH   3   8
BRANCH   3  42
ATOM     42  C   UNL     1      24.608  35.483   9.409  1.00  0.00     0.364 C 
ATOM     43  O   UNL     1      24.635  34.987  10.551  1.00  0.00    -0.246 OA
BRANCH  42  44
ATOM     44  O   UNL     1      25.560  35.030   8.502  1.00  0.00    -0.477 OA
ATOM     45  H   UNL     1      26.486  35.445   8.530  1.00  0.00     0.296 HD
ENDBRANCH  42  44
ENDBRANCH   3  42
BRANCH   6  46
ATOM     46  O   UNL     1      20.653  36.998   7.422  1.00  0.00    -0.391 OA
ATOM     47  H   UNL     1      19.836  36.553   7.086  1.00  0.00     0.211 HD
ENDBRANCH   6  46
BRANCH   7  48
ATOM     48  N   UNL     1      19.923  38.038  10.169  1.00  0.00    -0.348 N 
ATOM     49  C   UNL     1      19.261  39.139   9.557  1.00  0.00     0.217 C 
ATOM     50  H   UNL     1      19.451  37.556  10.958  1.00  0.00     0.163 HD
ATOM     51  C   UNL     1      17.930  39.566  10.062  1.00  0.00     0.114 C 
ATOM     52  O   UNL     1      19.788  39.770   8.579  1.00  0.00    -0.275 OA
ENDBRANCH   7  48
ENDBRANCH   1   2
BRANCH   1  53
ATOM     53  O   UNL     1      21.232  36.881  12.873  1.00  0.00    -0.388 OA
ATOM     54  H   UNL     1      21.108  35.992  12.429  1.00  0.00     0.211 HD
ENDBRANCH   1  53
BRANCH   1  55
ATOM     55  C   UNL     1      23.367  37.832  12.668  1.00  0.00     0.165 C 
BRANCH  55  56
ATOM     56  O   UNL     1      23.963  36.606  12.738  1.00  0.00    -0.388 OA
ATOM     57  H   UNL     1      24.138  36.180  11.862  1.00  0.00     0.211 HD
ENDBRANCH  55  56
BRANCH  55  58
ATOM     58  C   UNL     1      23.289  38.464  14.029  1.00  0.00     0.154 C 
BRANCH  58  59
ATOM     59  N   UNL     1      23.681  37.629  15.127  1.00  0.00    -0.319 N 
ATOM     60  C   UNL     1      22.803  36.896  15.940  1.00  0.00     0.407 C 
ATOM     61  H   UNL     1      24.730  37.581  15.314  1.00  0.00     0.167 HD
ATOM     62  O   UNL     1      21.571  36.892  15.781  1.00  0.00    -0.225 OA
BRANCH  60  63
ATOM     63  O   UNL     1      23.302  36.110  17.004  1.00  0.00    -0.443 OA
BRANCH  63  64
ATOM     64  C   UNL     1      23.456  34.697  16.808  1.00  0.00     0.294 C 
BRANCH  64  65
ATOM     65  C   UNL     1      24.612  34.471  15.903  1.00  0.00     0.120 A 
ATOM     66  C   UNL     1      25.893  34.119  16.255  1.00  0.00     0.138 A 
ATOM     67  N   UNL     1      24.601  34.583  14.573  1.00  0.00    -0.132 NA
ATOM     68  N   UNL     1      26.605  34.034  15.111  1.00  0.00    -0.252 N 
ATOM     69  N   UNL     1      25.791  34.320  14.111  1.00  0.00    -0.067 NA
BRANCH  68  70
ATOM     70  C   UNL     1      27.995  33.687  15.052  1.00  0.00     0.151 C 
BRANCH  70  71
ATOM     71  C   UNL     1      28.400  32.558  15.955  1.00  0.00     0.086 C 
BRANCH  71  72
ATOM     72  C   UNL     1      29.651  31.889  15.386  1.00  0.00     0.251 C 
BRANCH  72  73
ATOM     73  O   UNL     1      30.160  31.088  16.390  1.00  0.00    -0.353 OA
BRANCH  73  74
ATOM     74  C   UNL     1      29.398  31.142  17.549  1.00  0.00     0.160 C 
ATOM     75  C   UNL     1      30.265  31.061  18.790  1.00  0.00     0.035 C 
ENDBRANCH  73  74
ENDBRANCH  72  73
BRANCH  72  76
ATOM     76  O   UNL     1      30.516  32.789  14.840  1.00  0.00    -0.353 OA
BRANCH  76  77
ATOM     77  C   UNL     1      31.733  32.940  15.447  1.00  0.00     0.160 C 
ATOM     78  C   UNL     1      31.727  34.210  16.265  1.00  0.00     0.035 C 
ENDBRANCH  76  77
ENDBRANCH  72  76
ENDBRANCH  71  72
ENDBRANCH  70  71
ENDBRANCH  68  70
ENDBRANCH  64  65
ENDBRANCH  63  64
ENDBRANCH  60  63
ENDBRANCH  58  59
ENDBRANCH  55  58
ENDBRANCH   1  55
TORSDOF 36
BEGIN_RES LYS A 131
REMARK  4 active torsions:
REMARK  status: ('A' for Active; 'I' for Inactive)
REMARK    1  A    between atoms: CA   and  CB  
REMARK    2  A    between atoms: CB   and  CG  
REMARK    3  A    between atoms: CG   and  CD  
REMARK    4  A    between atoms: CD   and  CE  
ROOT
ATOM      1  CA  LYS A 131      29.867  25.555  16.977  1.00 20.52     0.186 C 
ENDROOT
BRANCH   1   2
ATOM      2  CB  LYS A 131      28.345  25.722  17.026  1.00 20.94     0.034 C 
BRANCH   2   3
ATOM      3  CG  LYS A 131      27.601  24.403  16.886  1.00 22.96     0.005 C 
BRANCH   3   4
ATOM      4  CD  LYS A 131      26.686  24.143  18.051  1.00 24.33     0.041 C 
BRANCH   4   5
ATOM      5  CE  LYS A 131      25.541  23.238  17.606  1.00 26.91     0.338 C 
ATOM      6  NZ  LYS A 131      24.506  24.024  16.892  1.00 27.40     0.618 N 
ENDBRANCH   4   5
ENDBRANCH   3   4
ENDBRANCH   2   3
ENDBRANCH   1   2
END_RES LYS A 131
BEGIN_RES LYS A 135
REMARK  4 active torsions:
REMARK  status: ('A' for Active; 'I' for Inactive)
REMARK    5  A    between atoms: CA   and  CB  
REMARK    6  A    between atoms: CB   and  CG  
REMARK    7  A    between atoms: CG   and  CD  
REMARK    8  A    between atoms: CD   and  CE  
ROOT
ATOM      7  CA  LYS A 135      33.193  34.663   9.290  1.00 25.02     0.186 C 
ENDROOT
BRANCH   7   8
ATOM      8  CB  LYS A 135      32.060  35.360  10.034  1.00 26.63     0.034 C 
BRANCH   8   9
ATOM      9  CG  LYS A 135      30.749  34.621   9.964  1.00 29.45     0.005 C 
BRANCH   9  10
ATOM     10  CD  LYS A 135      30.330  34.406   8.518  1.00 32.00     0.041 C 
BRANCH  10  11
ATOM     11  CE  LYS A 135      28.819  34.355   8.403  1.00 34.25     0.338 C 
ATOM     12  NZ  LYS A 135      28.211  33.713   9.602  1.00 35.99     0.618 N 
ENDBRANCH  10  11
ENDBRANCH   9  10
ENDBRANCH   8   9
ENDBRANCH   7   8
END_RES LYS A 135
