REMARK VINA RESULT:    -4.919      8.283     13.933
REMARK INTER + INTRA:         -22.125
REMARK INTER:                 -11.591
REMARK INTRA:                 -10.534
REMARK UNBOUND:                -9.729
REMARK SMILES CC(=O)N[C@@H]1[C@@H](O)C[C@](OC[C@H]2O[C@@H](O[C@H]3[C@H](O)[C@@H](O)[C@H](OCCN=[N+]=[N-])O[C@@H]3CO)[C@H](O)[C@@H](O)[C@H]2O)(C(=O)O)O[C@H]1C(O)[C@H](O)CNC(=O)OCc1cn(-c2ncccc2C#N)nn1
REMARK SMILES IDX 9 1 8 2 6 3 5 4 42 5 41 6 10 7 11 8 12 9 14 10 13 11 32 12
REMARK SMILES IDX 34 13 36 14 15 15 16 16 29 17 28 18 21 19 17 20 19 21 30 22
REMARK SMILES IDX 31 23 22 25 23 26 24 27 25 28 26 29 27 30 18 31 20 33 33 35
REMARK SMILES IDX 35 37 37 39 38 41 39 42 40 43 7 45 43 47 44 48 45 50 46 51
REMARK SMILES IDX 47 53 48 54 49 55 50 57 51 58 52 59 53 60 54 61 65 62 55 63
REMARK SMILES IDX 64 64 56 65 57 66 61 67 58 68 60 69 59 70 62 71 63 72 4 73
REMARK SMILES IDX 2 74 1 76 3 77
REMARK H PARENT 31 24 18 32 20 34 33 36 35 38 37 40 40 44 7 46 44 49 46 52
REMARK H PARENT 48 56 4 75
REMARK Flexibility Score: inf
ROOT
ATOM      1  C   UNL     1      26.165  41.045   6.613  1.00  0.00     0.272 C 
ATOM      2  C   UNL     1      26.265  40.084   5.506  1.00  0.00     0.113 C 
ATOM      3  C   UNL     1      27.546  39.347   5.473  1.00  0.00     0.145 C 
ATOM      4  C   UNL     1      28.228  39.130   6.783  1.00  0.00     0.142 C 
ATOM      5  C   UNL     1      27.495  39.608   8.004  1.00  0.00     0.178 C 
ATOM      6  O   UNL     1      26.680  40.621   7.817  1.00  0.00    -0.332 OA
ENDROOT
BRANCH   1   7
ATOM      7  O   UNL     1      24.997  41.605   6.941  1.00  0.00    -0.338 OA
BRANCH   7   8
ATOM      8  C   UNL     1      23.842  41.745   6.368  1.00  0.00     0.199 C 
BRANCH   8   9
ATOM      9  C   UNL     1      22.803  41.063   7.266  1.00  0.00     0.179 C 
ATOM     10  C   UNL     1      22.339  39.197   8.465  1.00  0.00     0.282 C 
ATOM     11  O   UNL     1      23.010  39.712   7.297  1.00  0.00    -0.341 OA
ATOM     12  C   UNL     1      23.092  39.591   9.684  1.00  0.00     0.202 C 
ATOM     13  C   UNL     1      23.345  41.102   9.707  1.00  0.00     0.179 C 
ATOM     14  C   UNL     1      22.599  41.716   8.583  1.00  0.00     0.177 C 
BRANCH  10  15
ATOM     15  O   UNL     1      22.173  37.859   8.366  1.00  0.00    -0.341 OA
BRANCH  15  16
ATOM     16  C   UNL     1      20.952  37.444   7.914  1.00  0.00     0.184 C 
ATOM     17  C   UNL     1      19.856  37.798   8.961  1.00  0.00     0.178 C 
ATOM     18  O   UNL     1      19.402  36.608   9.527  1.00  0.00    -0.341 OA
ATOM     19  C   UNL     1      20.475  35.866  10.043  1.00  0.00     0.281 C 
ATOM     20  C   UNL     1      20.854  35.968   7.627  1.00  0.00     0.180 C 
ATOM     21  C   UNL     1      21.170  35.178   8.902  1.00  0.00     0.202 C 
BRANCH  17  22
ATOM     22  C   UNL     1      18.769  38.559   8.273  1.00  0.00     0.191 C 
BRANCH  22  23
ATOM     23  O   UNL     1      18.593  38.137   6.942  1.00  0.00    -0.394 OA
ATOM     24  H   UNL     1      19.362  37.611   6.617  1.00  0.00     0.210 HD
ENDBRANCH  22  23
ENDBRANCH  17  22
BRANCH  19  25
ATOM     25  O   UNL     1      19.941  34.986  10.957  1.00  0.00    -0.350 OA
BRANCH  25  26
ATOM     26  C   UNL     1      18.693  35.429  11.432  1.00  0.00     0.169 C 
BRANCH  26  27
ATOM     27  C   UNL     1      18.605  35.246  12.934  1.00  0.00     0.119 C 
BRANCH  27  28
ATOM     28  N   UNL     1      17.176  35.301  13.270  1.00  0.00    -0.092 NA
ATOM     29  N   UNL     1      16.515  34.270  12.978  1.00  0.00     0.001 N 
ATOM     30  N   UNL     1      15.749  33.475  12.414  1.00  0.00    -0.003 NA
ENDBRANCH  27  28
ENDBRANCH  26  27
ENDBRANCH  25  26
ENDBRANCH  19  25
BRANCH  20  31
ATOM     31  O   UNL     1      19.622  35.593   7.144  1.00  0.00    -0.387 OA
ATOM     32  H   UNL     1      19.169  34.859   7.589  1.00  0.00     0.211 HD
ENDBRANCH  20  31
BRANCH  21  33
ATOM     33  O   UNL     1      22.548  35.115   9.086  1.00  0.00    -0.385 OA
ATOM     34  H   UNL     1      22.887  34.399   8.482  1.00  0.00     0.211 HD
ENDBRANCH  21  33
ENDBRANCH  15  16
ENDBRANCH  10  15
BRANCH  12  35
ATOM     35  O   UNL     1      22.402  39.235  10.829  1.00  0.00    -0.385 OA
ATOM     36  H   UNL     1      21.413  39.305  10.617  1.00  0.00     0.211 HD
ENDBRANCH  12  35
BRANCH  13  37
ATOM     37  O   UNL     1      24.736  41.336   9.602  1.00  0.00    -0.387 OA
ATOM     38  H   UNL     1      25.009  41.336   8.642  1.00  0.00     0.211 HD
ENDBRANCH  13  37
BRANCH  14  39
ATOM     39  O   UNL     1      22.797  43.095   8.465  1.00  0.00    -0.387 OA
ATOM     40  H   UNL     1      21.936  43.543   8.183  1.00  0.00     0.211 HD
ENDBRANCH  14  39
ENDBRANCH   8   9
ENDBRANCH   7   8
ENDBRANCH   1   7
BRANCH   1  41
ATOM     41  C   UNL     1      27.057  42.217   6.206  1.00  0.00     0.364 C 
ATOM     42  O   UNL     1      28.015  42.616   6.845  1.00  0.00    -0.246 OA
BRANCH  41  43
ATOM     43  O   UNL     1      26.770  42.901   5.008  1.00  0.00    -0.477 OA
ATOM     44  H   UNL     1      27.479  43.126   4.328  1.00  0.00     0.296 HD
ENDBRANCH  41  43
ENDBRANCH   1  41
BRANCH   3  45
ATOM     45  O   UNL     1      27.405  38.140   4.762  1.00  0.00    -0.391 OA
ATOM     46  H   UNL     1      26.628  38.310   4.134  1.00  0.00     0.211 HD
ENDBRANCH   3  45
BRANCH   5  47
ATOM     47  C   UNL     1      26.833  38.420   8.759  1.00  0.00     0.176 C 
BRANCH  47  48
ATOM     48  O   UNL     1      27.897  37.753   9.436  1.00  0.00    -0.388 OA
ATOM     49  H   UNL     1      28.559  37.425   8.804  1.00  0.00     0.211 HD
ENDBRANCH  47  48
BRANCH  47  50
ATOM     50  C   UNL     1      26.174  37.430   7.946  1.00  0.00     0.165 C 
BRANCH  50  51
ATOM     51  O   UNL     1      25.026  37.842   7.226  1.00  0.00    -0.388 OA
ATOM     52  H   UNL     1      24.261  37.227   7.463  1.00  0.00     0.211 HD
ENDBRANCH  50  51
BRANCH  50  53
ATOM     53  C   UNL     1      25.702  36.217   8.683  1.00  0.00     0.154 C 
BRANCH  53  54
ATOM     54  N   UNL     1      25.125  36.339   9.963  1.00  0.00    -0.319 N 
ATOM     55  C   UNL     1      25.672  36.077  11.218  1.00  0.00     0.407 C 
ATOM     56  H   UNL     1      24.089  36.682  10.001  1.00  0.00     0.167 HD
ATOM     57  O   UNL     1      26.862  35.681  11.269  1.00  0.00    -0.225 OA
BRANCH  55  58
ATOM     58  O   UNL     1      24.889  36.269  12.375  1.00  0.00    -0.443 OA
BRANCH  58  59
ATOM     59  C   UNL     1      23.499  36.191  12.266  1.00  0.00     0.294 C 
BRANCH  59  60
ATOM     60  C   UNL     1      22.963  34.945  12.781  1.00  0.00     0.121 A 
ATOM     61  C   UNL     1      23.201  33.715  12.295  1.00  0.00     0.146 A 
ATOM     62  N   UNL     1      22.051  34.801  13.837  1.00  0.00    -0.131 NA
ATOM     63  N   UNL     1      22.499  32.815  12.971  1.00  0.00    -0.201 N 
ATOM     64  N   UNL     1      21.854  33.516  13.854  1.00  0.00    -0.060 NA
BRANCH  63  65
ATOM     65  C   UNL     1      22.459  31.407  12.872  1.00  0.00     0.173 A 
ATOM     66  N   UNL     1      23.636  30.769  13.101  1.00  0.00    -0.236 NA
ATOM     67  C   UNL     1      21.322  30.723  12.423  1.00  0.00     0.097 A 
ATOM     68  C   UNL     1      23.686  29.346  12.854  1.00  0.00     0.113 A 
ATOM     69  C   UNL     1      21.448  29.369  12.201  1.00  0.00     0.025 A 
ATOM     70  C   UNL     1      22.604  28.746  12.421  1.00  0.00     0.022 A 
BRANCH  67  71
ATOM     71  C   UNL     1      20.028  31.306  12.263  1.00  0.00     0.103 C 
ATOM     72  N   UNL     1      18.924  31.785  12.139  1.00  0.00    -0.192 NA
ENDBRANCH  67  71
ENDBRANCH  63  65
ENDBRANCH  59  60
ENDBRANCH  58  59
ENDBRANCH  55  58
ENDBRANCH  53  54
ENDBRANCH  50  53
ENDBRANCH  47  50
ENDBRANCH   5  47
BRANCH   4  73
ATOM     73  N   UNL     1      29.584  39.602   6.605  1.00  0.00    -0.348 N 
ATOM     74  C   UNL     1      30.723  39.245   7.333  1.00  0.00     0.217 C 
ATOM     75  H   UNL     1      29.762  40.332   5.824  1.00  0.00     0.163 HD
ATOM     76  C   UNL     1      32.082  39.810   6.966  1.00  0.00     0.114 C 
ATOM     77  O   UNL     1      30.736  38.462   8.308  1.00  0.00    -0.275 OA
ENDBRANCH   4  73
TORSDOF 31
BEGIN_RES LYS A 131
REMARK  4 active torsions:
REMARK  status: ('A' for Active; 'I' for Inactive)
REMARK    1  A    between atoms: CA   and  CB  
REMARK    2  A    between atoms: CB   and  CG  
REMARK    3  A    between atoms: CG   and  CD  
REMARK    4  A    between atoms: CD   and  CE  
ROOT
ATOM      1  CA  LYS A 131      29.867  25.555  16.977  1.00 20.52     0.186 C 
ENDROOT
BRANCH   1   2
ATOM      2  CB  LYS A 131      28.345  25.722  17.026  1.00 20.94     0.034 C 
BRANCH   2   3
ATOM      3  CG  LYS A 131      27.601  24.406  16.862  1.00 22.96     0.005 C 
BRANCH   3   4
ATOM      4  CD  LYS A 131      26.736  24.091  18.051  1.00 24.33     0.041 C 
BRANCH   4   5
ATOM      5  CE  LYS A 131      25.479  23.362  17.588  1.00 26.91     0.338 C 
ATOM      6  NZ  LYS A 131      24.595  24.281  16.832  1.00 27.40     0.618 N 
ENDBRANCH   4   5
ENDBRANCH   3   4
ENDBRANCH   2   3
ENDBRANCH   1   2
END_RES LYS A 131
BEGIN_RES LYS A 135
REMARK  4 active torsions:
REMARK  status: ('A' for Active; 'I' for Inactive)
REMARK    5  A    between atoms: CA   and  CB  
REMARK    6  A    between atoms: CB   and  CG  
REMARK    7  A    between atoms: CG   and  CD  
REMARK    8  A    between atoms: CD   and  CE  
ROOT
ATOM      7  CA  LYS A 135      33.193  34.663   9.290  1.00 25.02     0.186 C 
ENDROOT
BRANCH   7   8
ATOM      8  CB  LYS A 135      32.060  35.360  10.034  1.00 26.63     0.034 C 
BRANCH   8   9
ATOM      9  CG  LYS A 135      30.707  34.745   9.784  1.00 29.45     0.005 C 
BRANCH   9  10
ATOM     10  CD  LYS A 135      30.483  34.528   8.295  1.00 32.00     0.041 C 
BRANCH  10  11
ATOM     11  CE  LYS A 135      29.051  34.854   7.919  1.00 34.25     0.338 C 
ATOM     12  NZ  LYS A 135      28.990  35.595   6.628  1.00 35.99     0.618 N 
ENDBRANCH  10  11
ENDBRANCH   9  10
ENDBRANCH   8   9
ENDBRANCH   7   8
END_RES LYS A 135
