REMARK VINA RESULT:    -5.185      6.778     12.825
REMARK INTER + INTRA:         -23.270
REMARK INTER:                 -12.253
REMARK INTRA:                 -11.017
REMARK UNBOUND:                -9.598
REMARK SMILES CC(=O)N[C@@H]1[C@@H](O)C[C@](OC[C@H]2O[C@@H](O[C@H]3[C@H](O)[C@@H](O)[C@H](OCCN=[N+]=[N-])O[C@@H]3CO)[C@H](O)[C@@H](O)[C@H]2O)(C(=O)O)O[C@H]1C(O)[C@H](O)CNC(=O)OCc1cn(Cc2ccccc2OC(C)=O)nn1
REMARK SMILES IDX 43 1 42 2 9 3 8 4 41 5 6 6 5 7 10 8 11 9 12 10 14 11 13 12
REMARK SMILES IDX 32 13 34 14 36 15 15 16 16 17 29 18 28 19 21 20 17 21 19 22
REMARK SMILES IDX 30 23 31 24 22 26 23 27 24 28 25 29 26 30 27 31 18 32 20 34
REMARK SMILES IDX 33 36 35 38 37 40 38 42 39 43 40 44 7 46 4 48 2 49 1 51 3 52
REMARK SMILES IDX 44 53 45 55 46 56 47 58 48 59 49 60 50 62 51 63 52 64 53 65
REMARK SMILES IDX 54 66 68 67 55 68 67 69 56 70 57 71 62 72 58 73 61 74 59 75
REMARK SMILES IDX 60 76 63 77 64 78 66 79 65 80
REMARK H PARENT 31 25 18 33 20 35 33 37 35 39 37 41 40 45 7 47 4 50 44 54
REMARK H PARENT 46 57 48 61
REMARK Flexibility Score: inf
ROOT
ATOM      1  C   UNL     1      32.210  29.062  20.667  1.00  0.00     0.176 C 
ENDROOT
BRANCH   1   2
ATOM      2  C   UNL     1      31.206  30.195  20.817  1.00  0.00     0.178 C 
ATOM      3  C   UNL     1      30.173  31.876  19.575  1.00  0.00     0.272 C 
ATOM      4  C   UNL     1      29.899  32.344  21.000  1.00  0.00     0.113 C 
ATOM      5  O   UNL     1      31.172  30.875  19.621  1.00  0.00    -0.332 OA
ATOM      6  C   UNL     1      31.255  32.460  21.676  1.00  0.00     0.145 C 
ATOM      7  C   UNL     1      31.749  31.088  21.933  1.00  0.00     0.142 C 
BRANCH   3   8
ATOM      8  O   UNL     1      30.669  32.859  18.771  1.00  0.00    -0.338 OA
BRANCH   8   9
ATOM      9  C   UNL     1      30.905  32.578  17.463  1.00  0.00     0.199 C 
BRANCH   9  10
ATOM     10  C   UNL     1      30.353  33.746  16.627  1.00  0.00     0.179 C 
ATOM     11  C   UNL     1      30.827  35.916  16.035  1.00  0.00     0.282 C 
ATOM     12  O   UNL     1      31.331  34.744  16.695  1.00  0.00    -0.341 OA
ATOM     13  C   UNL     1      30.894  35.599  14.583  1.00  0.00     0.202 C 
ATOM     14  C   UNL     1      29.862  34.484  14.339  1.00  0.00     0.179 C 
ATOM     15  C   UNL     1      30.098  33.305  15.222  1.00  0.00     0.177 C 
BRANCH  11  16
ATOM     16  O   UNL     1      31.624  36.930  16.507  1.00  0.00    -0.341 OA
BRANCH  16  17
ATOM     17  C   UNL     1      32.426  36.493  17.577  1.00  0.00     0.184 C 
ATOM     18  C   UNL     1      32.318  37.331  18.796  1.00  0.00     0.178 C 
ATOM     19  O   UNL     1      33.560  37.636  19.363  1.00  0.00    -0.341 OA
ATOM     20  C   UNL     1      34.413  36.548  19.483  1.00  0.00     0.281 C 
ATOM     21  C   UNL     1      33.914  36.699  17.104  1.00  0.00     0.180 C 
ATOM     22  C   UNL     1      34.743  35.953  18.114  1.00  0.00     0.202 C 
BRANCH  18  23
ATOM     23  C   UNL     1      31.331  36.876  19.825  1.00  0.00     0.191 C 
BRANCH  23  24
ATOM     24  O   UNL     1      31.023  35.542  19.605  1.00  0.00    -0.394 OA
ATOM     25  H   UNL     1      31.684  35.132  19.009  1.00  0.00     0.210 HD
ENDBRANCH  23  24
ENDBRANCH  18  23
BRANCH  20  26
ATOM     26  O   UNL     1      33.868  35.569  20.235  1.00  0.00    -0.350 OA
BRANCH  26  27
ATOM     27  C   UNL     1      34.501  35.078  21.316  1.00  0.00     0.169 C 
BRANCH  27  28
ATOM     28  C   UNL     1      35.567  34.060  21.123  1.00  0.00     0.119 C 
BRANCH  28  29
ATOM     29  N   UNL     1      35.097  32.754  21.439  1.00  0.00    -0.092 NA
ATOM     30  N   UNL     1      35.826  31.860  21.808  1.00  0.00     0.001 N 
ATOM     31  N   UNL     1      36.609  31.126  22.417  1.00  0.00    -0.003 NA
ENDBRANCH  28  29
ENDBRANCH  27  28
ENDBRANCH  26  27
ENDBRANCH  20  26
BRANCH  21  32
ATOM     32  O   UNL     1      34.050  36.242  15.817  1.00  0.00    -0.387 OA
ATOM     33  H   UNL     1      33.190  35.808  15.513  1.00  0.00     0.211 HD
ENDBRANCH  21  32
BRANCH  22  34
ATOM     34  O   UNL     1      36.088  35.981  17.821  1.00  0.00    -0.385 OA
ATOM     35  H   UNL     1      36.182  36.368  16.904  1.00  0.00     0.211 HD
ENDBRANCH  22  34
ENDBRANCH  16  17
ENDBRANCH  11  16
BRANCH  13  36
ATOM     36  O   UNL     1      30.491  36.641  13.764  1.00  0.00    -0.385 OA
ATOM     37  H   UNL     1      30.703  36.519  12.815  1.00  0.00     0.211 HD
ENDBRANCH  13  36
BRANCH  14  38
ATOM     38  O   UNL     1      29.844  34.139  12.987  1.00  0.00    -0.387 OA
ATOM     39  H   UNL     1      30.261  34.905  12.499  1.00  0.00     0.211 HD
ENDBRANCH  14  38
BRANCH  15  40
ATOM     40  O   UNL     1      31.151  32.566  14.688  1.00  0.00    -0.387 OA
ATOM     41  H   UNL     1      31.617  32.018  15.348  1.00  0.00     0.211 HD
ENDBRANCH  15  40
ENDBRANCH   9  10
ENDBRANCH   8   9
ENDBRANCH   3   8
BRANCH   3  42
ATOM     42  C   UNL     1      28.912  31.267  19.098  1.00  0.00     0.364 C 
ATOM     43  O   UNL     1      27.823  31.822  19.219  1.00  0.00    -0.246 OA
BRANCH  42  44
ATOM     44  O   UNL     1      28.968  30.012  18.486  1.00  0.00    -0.477 OA
ATOM     45  H   UNL     1      28.375  29.783  17.675  1.00  0.00     0.296 HD
ENDBRANCH  42  44
ENDBRANCH   3  42
BRANCH   6  46
ATOM     46  O   UNL     1      32.097  33.058  20.734  1.00  0.00    -0.391 OA
ATOM     47  H   UNL     1      32.931  33.417  21.121  1.00  0.00     0.211 HD
ENDBRANCH   6  46
BRANCH   7  48
ATOM     48  N   UNL     1      31.493  30.521  23.191  1.00  0.00    -0.348 N 
ATOM     49  C   UNL     1      32.404  30.553  24.284  1.00  0.00     0.217 C 
ATOM     50  H   UNL     1      30.560  30.038  23.333  1.00  0.00     0.163 HD
ATOM     51  C   UNL     1      32.100  29.946  25.590  1.00  0.00     0.114 C 
ATOM     52  O   UNL     1      33.485  31.125  24.089  1.00  0.00    -0.275 OA
ENDBRANCH   7  48
ENDBRANCH   1   2
BRANCH   1  53
ATOM     53  O   UNL     1      33.318  29.416  21.415  1.00  0.00    -0.388 OA
ATOM     54  H   UNL     1      34.172  29.090  21.062  1.00  0.00     0.211 HD
ENDBRANCH   1  53
BRANCH   1  55
ATOM     55  C   UNL     1      31.646  27.714  20.968  1.00  0.00     0.165 C 
BRANCH  55  56
ATOM     56  O   UNL     1      31.946  26.877  19.890  1.00  0.00    -0.388 OA
ATOM     57  H   UNL     1      31.421  27.088  19.103  1.00  0.00     0.211 HD
ENDBRANCH  55  56
BRANCH  55  58
ATOM     58  C   UNL     1      30.160  27.740  21.236  1.00  0.00     0.154 C 
BRANCH  58  59
ATOM     59  N   UNL     1      29.362  27.144  20.216  1.00  0.00    -0.319 N 
ATOM     60  C   UNL     1      28.005  27.474  19.966  1.00  0.00     0.407 C 
ATOM     61  H   UNL     1      29.790  26.407  19.593  1.00  0.00     0.167 HD
ATOM     62  O   UNL     1      27.471  28.346  20.696  1.00  0.00    -0.225 OA
BRANCH  60  63
ATOM     63  O   UNL     1      27.247  26.893  18.978  1.00  0.00    -0.443 OA
BRANCH  63  64
ATOM     64  C   UNL     1      26.021  27.459  18.516  1.00  0.00     0.294 C 
BRANCH  64  65
ATOM     65  C   UNL     1      26.259  28.586  17.603  1.00  0.00     0.120 A 
ATOM     66  C   UNL     1      25.548  29.762  17.633  1.00  0.00     0.138 A 
ATOM     67  N   UNL     1      27.152  28.723  16.615  1.00  0.00    -0.132 NA
ATOM     68  N   UNL     1      26.013  30.573  16.681  1.00  0.00    -0.248 N 
ATOM     69  N   UNL     1      27.005  29.898  16.070  1.00  0.00    -0.067 NA
BRANCH  68  70
ATOM     70  C   UNL     1      25.595  31.909  16.301  1.00  0.00     0.185 C 
BRANCH  70  71
ATOM     71  C   UNL     1      24.136  32.015  16.199  1.00  0.00     0.016 A 
ATOM     72  C   UNL     1      23.444  31.465  15.176  1.00  0.00     0.135 A 
ATOM     73  C   UNL     1      23.480  32.705  17.222  1.00  0.00     0.009 A 
ATOM     74  C   UNL     1      22.054  31.595  15.155  1.00  0.00     0.047 A 
ATOM     75  C   UNL     1      22.115  32.827  17.191  1.00  0.00     0.001 A 
ATOM     76  C   UNL     1      21.391  32.274  16.159  1.00  0.00     0.004 A 
BRANCH  72  77
ATOM     77  O   UNL     1      24.046  30.777  14.143  1.00  0.00    -0.426 OA
BRANCH  77  78
ATOM     78  C   UNL     1      23.678  29.442  13.943  1.00  0.00     0.308 C 
ATOM     79  O   UNL     1      23.672  28.668  14.925  1.00  0.00    -0.252 OA
ATOM     80  C   UNL     1      23.310  28.978  12.603  1.00  0.00     0.139 C 
ENDBRANCH  77  78
ENDBRANCH  72  77
ENDBRANCH  70  71
ENDBRANCH  68  70
ENDBRANCH  64  65
ENDBRANCH  63  64
ENDBRANCH  60  63
ENDBRANCH  58  59
ENDBRANCH  55  58
ENDBRANCH   1  55
TORSDOF 33
BEGIN_RES LYS A 131
REMARK  4 active torsions:
REMARK  status: ('A' for Active; 'I' for Inactive)
REMARK    1  A    between atoms: CA   and  CB  
REMARK    2  A    between atoms: CB   and  CG  
REMARK    3  A    between atoms: CG   and  CD  
REMARK    4  A    between atoms: CD   and  CE  
ROOT
ATOM      1  CA  LYS A 131      29.867  25.555  16.977  1.00 20.52     0.186 C 
ENDROOT
BRANCH   1   2
ATOM      2  CB  LYS A 131      28.345  25.722  17.026  1.00 20.94     0.034 C 
BRANCH   2   3
ATOM      3  CG  LYS A 131      27.599  24.473  16.581  1.00 22.96     0.005 C 
BRANCH   3   4
ATOM      4  CD  LYS A 131      27.157  23.633  17.747  1.00 24.33     0.041 C 
BRANCH   4   5
ATOM      5  CE  LYS A 131      25.686  23.264  17.579  1.00 26.91     0.338 C 
ATOM      6  NZ  LYS A 131      24.942  24.375  16.942  1.00 27.40     0.618 N 
ENDBRANCH   4   5
ENDBRANCH   3   4
ENDBRANCH   2   3
ENDBRANCH   1   2
END_RES LYS A 131
BEGIN_RES LYS A 135
REMARK  4 active torsions:
REMARK  status: ('A' for Active; 'I' for Inactive)
REMARK    5  A    between atoms: CA   and  CB  
REMARK    6  A    between atoms: CB   and  CG  
REMARK    7  A    between atoms: CG   and  CD  
REMARK    8  A    between atoms: CD   and  CE  
ROOT
ATOM      7  CA  LYS A 135      33.193  34.663   9.290  1.00 25.02     0.186 C 
ENDROOT
BRANCH   7   8
ATOM      8  CB  LYS A 135      32.060  35.360  10.034  1.00 26.63     0.034 C 
BRANCH   8   9
ATOM      9  CG  LYS A 135      30.788  35.464   9.233  1.00 29.45     0.005 C 
BRANCH   9  10
ATOM     10  CD  LYS A 135      30.219  34.082   8.947  1.00 32.00     0.041 C 
BRANCH  10  11
ATOM     11  CE  LYS A 135      28.715  34.075   9.139  1.00 34.25     0.338 C 
ATOM     12  NZ  LYS A 135      28.104  35.337   8.637  1.00 35.99     0.618 N 
ENDBRANCH  10  11
ENDBRANCH   9  10
ENDBRANCH   8   9
ENDBRANCH   7   8
END_RES LYS A 135
