REMARK VINA RESULT:    -5.160      3.746      8.308
REMARK INTER + INTRA:         -22.508
REMARK INTER:                 -11.544
REMARK INTRA:                 -10.964
REMARK UNBOUND:                -9.203
REMARK SMILES CC(=O)N[C@@H]1[C@@H](O)C[C@](OC[C@H]2O[C@@H](O[C@H]3[C@H](O)[C@@H](O)[C@H](OCCN=[N+]=[N-])O[C@@H]3CO)[C@H](O)[C@@H](O)[C@H]2O)(C(=O)O)O[C@H]1C(O)[C@H](O)CNC(=O)OCc1cn(Cc2ccc(C#N)cc2)nn1
REMARK SMILES IDX 9 1 8 2 6 3 5 4 42 5 41 6 10 7 11 8 12 9 14 10 13 11 32 12
REMARK SMILES IDX 34 13 36 14 15 15 16 16 29 17 28 18 21 19 17 20 19 21 30 22
REMARK SMILES IDX 31 23 22 25 23 26 24 27 25 28 26 29 27 30 18 31 20 33 33 35
REMARK SMILES IDX 35 37 37 39 38 41 39 42 40 43 7 45 43 47 44 48 45 50 46 51
REMARK SMILES IDX 47 53 48 54 49 55 50 57 51 58 52 59 53 60 54 61 66 62 55 63
REMARK SMILES IDX 65 64 56 65 57 66 58 67 64 68 59 69 63 70 60 71 61 72 62 73
REMARK SMILES IDX 4 74 2 75 1 77 3 78
REMARK H PARENT 31 24 18 32 20 34 33 36 35 38 37 40 40 44 7 46 44 49 46 52
REMARK H PARENT 48 56 4 76
REMARK Flexibility Score: inf
ROOT
ATOM      1  C   UNL     1      24.483  35.475  11.483  1.00  0.00     0.272 C 
ATOM      2  C   UNL     1      25.383  35.205  10.328  1.00  0.00     0.113 C 
ATOM      3  C   UNL     1      25.553  36.334   9.375  1.00  0.00     0.145 C 
ATOM      4  C   UNL     1      24.252  37.154   9.380  1.00  0.00     0.142 C 
ATOM      5  C   UNL     1      23.159  36.200   9.754  1.00  0.00     0.178 C 
ATOM      6  O   UNL     1      23.212  35.924  11.090  1.00  0.00    -0.332 OA
ENDROOT
BRANCH   1   7
ATOM      7  O   UNL     1      24.991  36.293  12.469  1.00  0.00    -0.338 OA
BRANCH   7   8
ATOM      8  C   UNL     1      24.064  36.915  13.235  1.00  0.00     0.199 C 
BRANCH   8   9
ATOM      9  C   UNL     1      24.620  38.188  13.897  1.00  0.00     0.179 C 
ATOM     10  C   UNL     1      26.652  39.161  14.398  1.00  0.00     0.282 C 
ATOM     11  O   UNL     1      25.998  37.996  13.998  1.00  0.00    -0.341 OA
ATOM     12  C   UNL     1      26.490  40.288  13.431  1.00  0.00     0.202 C 
ATOM     13  C   UNL     1      25.585  39.853  12.302  1.00  0.00     0.179 C 
ATOM     14  C   UNL     1      24.318  39.333  12.966  1.00  0.00     0.177 C 
BRANCH  10  15
ATOM     15  O   UNL     1      28.007  38.853  14.483  1.00  0.00    -0.341 OA
BRANCH  15  16
ATOM     16  C   UNL     1      28.323  37.606  13.949  1.00  0.00     0.184 C 
ATOM     17  C   UNL     1      28.838  36.717  15.024  1.00  0.00     0.178 C 
ATOM     18  O   UNL     1      30.195  36.631  15.144  1.00  0.00    -0.341 OA
ATOM     19  C   UNL     1      30.935  37.526  14.414  1.00  0.00     0.281 C 
ATOM     20  C   UNL     1      29.181  37.701  12.729  1.00  0.00     0.180 C 
ATOM     21  C   UNL     1      30.624  37.333  12.947  1.00  0.00     0.202 C 
BRANCH  17  22
ATOM     22  C   UNL     1      28.183  35.344  14.897  1.00  0.00     0.191 C 
BRANCH  22  23
ATOM     23  O   UNL     1      27.234  35.422  13.877  1.00  0.00    -0.394 OA
ATOM     24  H   UNL     1      27.460  34.793  13.125  1.00  0.00     0.210 HD
ENDBRANCH  22  23
ENDBRANCH  17  22
BRANCH  19  25
ATOM     25  O   UNL     1      32.286  37.174  14.613  1.00  0.00    -0.350 OA
BRANCH  25  26
ATOM     26  C   UNL     1      32.442  35.795  14.612  1.00  0.00     0.169 C 
BRANCH  26  27
ATOM     27  C   UNL     1      33.057  35.320  15.914  1.00  0.00     0.119 C 
BRANCH  27  28
ATOM     28  N   UNL     1      32.251  34.302  16.561  1.00  0.00    -0.092 NA
ATOM     29  N   UNL     1      31.678  33.457  15.893  1.00  0.00     0.001 N 
ATOM     30  N   UNL     1      31.386  32.330  15.463  1.00  0.00    -0.003 NA
ENDBRANCH  27  28
ENDBRANCH  26  27
ENDBRANCH  25  26
ENDBRANCH  19  25
BRANCH  20  31
ATOM     31  O   UNL     1      28.651  37.009  11.633  1.00  0.00    -0.387 OA
ATOM     32  H   UNL     1      29.349  36.408  11.238  1.00  0.00     0.211 HD
ENDBRANCH  20  31
BRANCH  21  33
ATOM     33  O   UNL     1      31.483  38.096  12.153  1.00  0.00    -0.385 OA
ATOM     34  H   UNL     1      31.923  38.749  12.757  1.00  0.00     0.211 HD
ENDBRANCH  21  33
ENDBRANCH  15  16
ENDBRANCH  10  15
BRANCH  12  35
ATOM     35  O   UNL     1      25.983  41.447  13.975  1.00  0.00    -0.385 OA
ATOM     36  H   UNL     1      25.444  41.229  14.787  1.00  0.00     0.211 HD
ENDBRANCH  12  35
BRANCH  13  37
ATOM     37  O   UNL     1      26.241  38.874  11.573  1.00  0.00    -0.387 OA
ATOM     38  H   UNL     1      26.602  38.134  12.108  1.00  0.00     0.211 HD
ENDBRANCH  13  37
BRANCH  14  39
ATOM     39  O   UNL     1      23.310  39.055  12.075  1.00  0.00    -0.387 OA
ATOM     40  H   UNL     1      23.532  38.251  11.557  1.00  0.00     0.211 HD
ENDBRANCH  14  39
ENDBRANCH   8   9
ENDBRANCH   7   8
ENDBRANCH   1   7
BRANCH   1  41
ATOM     41  C   UNL     1      24.189  34.142  12.107  1.00  0.00     0.364 C 
ATOM     42  O   UNL     1      25.102  33.469  12.596  1.00  0.00    -0.246 OA
BRANCH  41  43
ATOM     43  O   UNL     1      22.889  33.693  12.123  1.00  0.00    -0.477 OA
ATOM     44  H   UNL     1      22.413  33.367  12.954  1.00  0.00     0.296 HD
ENDBRANCH  41  43
ENDBRANCH   1  41
BRANCH   3  45
ATOM     45  O   UNL     1      26.668  37.106   9.535  1.00  0.00    -0.391 OA
ATOM     46  H   UNL     1      27.362  36.633  10.038  1.00  0.00     0.211 HD
ENDBRANCH   3  45
BRANCH   5  47
ATOM     47  C   UNL     1      21.765  36.689   9.339  1.00  0.00     0.176 C 
BRANCH  47  48
ATOM     48  O   UNL     1      21.563  36.134   8.053  1.00  0.00    -0.388 OA
ATOM     49  H   UNL     1      20.666  35.718   8.039  1.00  0.00     0.211 HD
ENDBRANCH  47  48
BRANCH  47  50
ATOM     50  C   UNL     1      20.722  36.200  10.241  1.00  0.00     0.165 C 
BRANCH  50  51
ATOM     51  O   UNL     1      20.800  34.783  10.395  1.00  0.00    -0.388 OA
ATOM     52  H   UNL     1      19.922  34.457  10.022  1.00  0.00     0.211 HD
ENDBRANCH  50  51
BRANCH  50  53
ATOM     53  C   UNL     1      19.325  36.583   9.947  1.00  0.00     0.154 C 
BRANCH  53  54
ATOM     54  N   UNL     1      18.339  35.650   9.619  1.00  0.00    -0.319 N 
ATOM     55  C   UNL     1      18.148  34.907   8.440  1.00  0.00     0.407 C 
ATOM     56  H   UNL     1      17.594  35.449  10.374  1.00  0.00     0.167 HD
ATOM     57  O   UNL     1      18.907  34.971   7.463  1.00  0.00    -0.225 OA
BRANCH  55  58
ATOM     58  O   UNL     1      17.061  34.029   8.308  1.00  0.00    -0.443 OA
BRANCH  58  59
ATOM     59  C   UNL     1      17.157  32.905   7.450  1.00  0.00     0.294 C 
BRANCH  59  60
ATOM     60  C   UNL     1      17.196  31.666   8.305  1.00  0.00     0.120 A 
ATOM     61  C   UNL     1      17.266  31.680   9.683  1.00  0.00     0.138 A 
ATOM     62  N   UNL     1      17.184  30.371   7.940  1.00  0.00    -0.132 NA
ATOM     63  N   UNL     1      17.295  30.391  10.112  1.00  0.00    -0.248 N 
ATOM     64  N   UNL     1      17.244  29.663   9.045  1.00  0.00    -0.067 NA
BRANCH  63  65
ATOM     65  C   UNL     1      17.387  30.040  11.520  1.00  0.00     0.181 C 
BRANCH  65  66
ATOM     66  C   UNL     1      18.863  30.078  11.829  1.00  0.00    -0.026 A 
ATOM     67  C   UNL     1      19.575  28.907  11.747  1.00  0.00     0.007 A 
ATOM     68  C   UNL     1      19.470  31.283  12.187  1.00  0.00     0.007 A 
ATOM     69  C   UNL     1      20.923  28.845  12.014  1.00  0.00     0.020 A 
ATOM     70  C   UNL     1      20.814  31.222  12.454  1.00  0.00     0.020 A 
ATOM     71  C   UNL     1      21.514  30.061  12.373  1.00  0.00     0.052 A 
BRANCH  71  72
ATOM     72  C   UNL     1      22.938  30.019  12.681  1.00  0.00     0.099 C 
ATOM     73  N   UNL     1      24.072  29.999  12.942  1.00  0.00    -0.192 NA
ENDBRANCH  71  72
ENDBRANCH  65  66
ENDBRANCH  63  65
ENDBRANCH  59  60
ENDBRANCH  58  59
ENDBRANCH  55  58
ENDBRANCH  53  54
ENDBRANCH  50  53
ENDBRANCH  47  50
ENDBRANCH   5  47
BRANCH   4  74
ATOM     74  N   UNL     1      24.075  37.808   8.107  1.00  0.00    -0.348 N 
ATOM     75  C   UNL     1      24.138  39.225   8.056  1.00  0.00     0.217 C 
ATOM     76  H   UNL     1      23.907  37.288   7.233  1.00  0.00     0.163 HD
ATOM     77  C   UNL     1      23.967  39.964   6.792  1.00  0.00     0.114 C 
ATOM     78  O   UNL     1      24.345  39.911   9.112  1.00  0.00    -0.275 OA
ENDBRANCH   4  74
TORSDOF 32
BEGIN_RES LYS A 131
REMARK  4 active torsions:
REMARK  status: ('A' for Active; 'I' for Inactive)
REMARK    1  A    between atoms: CA   and  CB  
REMARK    2  A    between atoms: CB   and  CG  
REMARK    3  A    between atoms: CG   and  CD  
REMARK    4  A    between atoms: CD   and  CE  
ROOT
ATOM      1  CA  LYS A 131      29.867  25.555  16.977  1.00 20.52     0.186 C 
ENDROOT
BRANCH   1   2
ATOM      2  CB  LYS A 131      28.345  25.722  17.026  1.00 20.94     0.034 C 
BRANCH   2   3
ATOM      3  CG  LYS A 131      27.602  24.399  16.919  1.00 22.96     0.005 C 
BRANCH   3   4
ATOM      4  CD  LYS A 131      26.149  24.535  17.284  1.00 24.33     0.041 C 
BRANCH   4   5
ATOM      5  CE  LYS A 131      26.008  24.584  18.802  1.00 26.91     0.338 C 
ATOM      6  NZ  LYS A 131      25.517  23.285  19.319  1.00 27.40     0.618 N 
ENDBRANCH   4   5
ENDBRANCH   3   4
ENDBRANCH   2   3
ENDBRANCH   1   2
END_RES LYS A 131
BEGIN_RES LYS A 135
REMARK  4 active torsions:
REMARK  status: ('A' for Active; 'I' for Inactive)
REMARK    5  A    between atoms: CA   and  CB  
REMARK    6  A    between atoms: CB   and  CG  
REMARK    7  A    between atoms: CG   and  CD  
REMARK    8  A    between atoms: CD   and  CE  
ROOT
ATOM      7  CA  LYS A 135      33.193  34.663   9.290  1.00 25.02     0.186 C 
ENDROOT
BRANCH   7   8
ATOM      8  CB  LYS A 135      32.060  35.360  10.034  1.00 26.63     0.034 C 
BRANCH   8   9
ATOM      9  CG  LYS A 135      30.889  35.713   9.154  1.00 29.45     0.005 C 
BRANCH   9  10
ATOM     10  CD  LYS A 135      30.402  34.490   8.392  1.00 32.00     0.041 C 
BRANCH  10  11
ATOM     11  CE  LYS A 135      28.887  34.460   8.344  1.00 34.25     0.338 C 
ATOM     12  NZ  LYS A 135      28.328  33.710   9.504  1.00 35.99     0.618 N 
ENDBRANCH  10  11
ENDBRANCH   9  10
ENDBRANCH   8   9
ENDBRANCH   7   8
END_RES LYS A 135
