REMARK VINA RESULT:    -3.320      3.728      9.946
REMARK INTER + INTRA:         -22.227
REMARK INTER:                  -9.042
REMARK INTRA:                 -13.185
REMARK UNBOUND:               -13.473
REMARK SMILES CC(=O)N[C@@H]1[C@@H](O)C[C@](OC[C@H]2O[C@@H](O[C@H]3[C@H](O)[C@@H](O)[C@H](OCCN=[N+]=[N-])O[C@@H]3CO)[C@H](O)[C@@H](O)[C@H]2O)(C(=O)O)O[C@H]1C(O)[C@H](O)CNC(=O)OCc1cn(CCOC(C)=O)nn1
REMARK SMILES IDX 43 1 42 2 9 3 8 4 41 5 6 6 5 7 10 8 11 9 12 10 14 11 13 12
REMARK SMILES IDX 32 13 34 14 36 15 15 16 16 17 29 18 28 19 21 20 17 21 19 22
REMARK SMILES IDX 30 23 31 24 22 26 23 27 24 28 25 29 26 30 27 31 18 32 20 34
REMARK SMILES IDX 33 36 35 38 37 40 38 42 39 43 40 44 7 46 4 48 2 49 1 51 3 52
REMARK SMILES IDX 44 53 45 55 46 56 47 58 48 59 49 60 50 62 51 63 52 64 53 65
REMARK SMILES IDX 54 66 63 67 55 68 62 69 56 70 57 71 58 72 59 73 61 74 60 75
REMARK H PARENT 31 25 18 33 20 35 33 37 35 39 37 41 40 45 7 47 4 50 44 54
REMARK H PARENT 46 57 48 61
REMARK Flexibility Score: inf
ROOT
ATOM      1  C   UNL     1      30.922  33.640  16.366  1.00  0.00     0.176 C 
ENDROOT
BRANCH   1   2
ATOM      2  C   UNL     1      30.341  33.652  17.757  1.00  0.00     0.178 C 
ATOM      3  C   UNL     1      31.084  33.349  19.974  1.00  0.00     0.272 C 
ATOM      4  C   UNL     1      29.645  33.737  20.217  1.00  0.00     0.113 C 
ATOM      5  O   UNL     1      31.455  33.534  18.615  1.00  0.00    -0.332 OA
ATOM      6  C   UNL     1      28.684  32.987  19.366  1.00  0.00     0.145 C 
ATOM      7  C   UNL     1      29.453  32.499  18.105  1.00  0.00     0.142 C 
BRANCH   3   8
ATOM      8  O   UNL     1      31.447  32.131  20.291  1.00  0.00    -0.338 OA
BRANCH   8   9
ATOM      9  C   UNL     1      31.741  31.563  21.427  1.00  0.00     0.199 C 
BRANCH   9  10
ATOM     10  C   UNL     1      31.623  30.136  21.755  1.00  0.00     0.179 C 
ATOM     11  C   UNL     1      30.120  28.674  22.712  1.00  0.00     0.282 C 
ATOM     12  O   UNL     1      30.217  29.851  21.957  1.00  0.00    -0.341 OA
ATOM     13  C   UNL     1      31.059  27.614  22.312  1.00  0.00     0.202 C 
ATOM     14  C   UNL     1      31.860  27.828  21.076  1.00  0.00     0.179 C 
ATOM     15  C   UNL     1      31.906  29.220  20.549  1.00  0.00     0.177 C 
BRANCH  11  16
ATOM     16  O   UNL     1      28.778  28.332  22.743  1.00  0.00    -0.341 OA
BRANCH  16  17
ATOM     17  C   UNL     1      28.090  28.718  21.622  1.00  0.00     0.184 C 
ATOM     18  C   UNL     1      26.753  29.302  22.016  1.00  0.00     0.178 C 
ATOM     19  O   UNL     1      26.147  29.695  20.815  1.00  0.00    -0.341 OA
ATOM     20  C   UNL     1      25.656  28.600  20.170  1.00  0.00     0.281 C 
ATOM     21  C   UNL     1      27.881  27.562  20.657  1.00  0.00     0.180 C 
ATOM     22  C   UNL     1      26.436  27.321  20.369  1.00  0.00     0.202 C 
BRANCH  18  23
ATOM     23  C   UNL     1      26.959  30.536  22.876  1.00  0.00     0.191 C 
BRANCH  23  24
ATOM     24  O   UNL     1      26.382  31.634  22.266  1.00  0.00    -0.394 OA
ATOM     25  H   UNL     1      25.633  31.921  22.869  1.00  0.00     0.210 HD
ENDBRANCH  23  24
ENDBRANCH  18  23
BRANCH  20  26
ATOM     26  O   UNL     1      25.559  28.921  18.809  1.00  0.00    -0.350 OA
BRANCH  26  27
ATOM     27  C   UNL     1      25.202  27.811  18.051  1.00  0.00     0.169 C 
BRANCH  27  28
ATOM     28  C   UNL     1      24.013  28.264  17.197  1.00  0.00     0.119 C 
BRANCH  28  29
ATOM     29  N   UNL     1      22.795  27.805  17.843  1.00  0.00    -0.092 NA
ATOM     30  N   UNL     1      22.191  28.489  18.679  1.00  0.00     0.001 N 
ATOM     31  N   UNL     1      21.816  28.971  19.764  1.00  0.00    -0.003 NA
ENDBRANCH  28  29
ENDBRANCH  27  28
ENDBRANCH  26  27
ENDBRANCH  20  26
BRANCH  21  32
ATOM     32  O   UNL     1      28.613  27.694  19.483  1.00  0.00    -0.387 OA
ATOM     33  H   UNL     1      28.115  28.129  18.748  1.00  0.00     0.211 HD
ENDBRANCH  21  32
BRANCH  22  34
ATOM     34  O   UNL     1      25.877  26.480  21.311  1.00  0.00    -0.385 OA
ATOM     35  H   UNL     1      24.967  26.826  21.540  1.00  0.00     0.211 HD
ENDBRANCH  22  34
ENDBRANCH  16  17
ENDBRANCH  11  16
BRANCH  13  36
ATOM     36  O   UNL     1      31.885  27.207  23.393  1.00  0.00    -0.385 OA
ATOM     37  H   UNL     1      32.112  27.958  23.980  1.00  0.00     0.211 HD
ENDBRANCH  13  36
BRANCH  14  38
ATOM     38  O   UNL     1      31.437  26.990  20.033  1.00  0.00    -0.387 OA
ATOM     39  H   UNL     1      32.164  26.965  19.344  1.00  0.00     0.211 HD
ENDBRANCH  14  38
BRANCH  15  40
ATOM     40  O   UNL     1      30.809  29.356  19.655  1.00  0.00    -0.387 OA
ATOM     41  H   UNL     1      30.148  29.981  20.014  1.00  0.00     0.211 HD
ENDBRANCH  15  40
ENDBRANCH   9  10
ENDBRANCH   8   9
ENDBRANCH   3   8
BRANCH   3  42
ATOM     42  C   UNL     1      31.886  34.421  20.627  1.00  0.00     0.364 C 
ATOM     43  O   UNL     1      33.027  34.793  20.293  1.00  0.00    -0.246 OA
BRANCH  42  44
ATOM     44  O   UNL     1      31.353  35.114  21.735  1.00  0.00    -0.477 OA
ATOM     45  H   UNL     1      31.519  34.746  22.660  1.00  0.00     0.296 HD
ENDBRANCH  42  44
ENDBRANCH   3  42
BRANCH   6  46
ATOM     46  O   UNL     1      28.039  31.938  19.980  1.00  0.00    -0.391 OA
ATOM     47  H   UNL     1      27.650  32.173  20.860  1.00  0.00     0.211 HD
ENDBRANCH   6  46
BRANCH   7  48
ATOM     48  N   UNL     1      28.514  32.064  17.126  1.00  0.00    -0.348 N 
ATOM     49  C   UNL     1      28.099  30.711  17.026  1.00  0.00     0.217 C 
ATOM     50  H   UNL     1      28.100  32.754  16.480  1.00  0.00     0.163 HD
ATOM     51  C   UNL     1      27.113  30.262  15.995  1.00  0.00     0.114 C 
ATOM     52  O   UNL     1      28.544  29.817  17.809  1.00  0.00    -0.275 OA
ENDBRANCH   7  48
ENDBRANCH   1   2
BRANCH   1  53
ATOM     53  O   UNL     1      31.274  32.271  16.143  1.00  0.00    -0.388 OA
ATOM     54  H   UNL     1      31.310  31.790  16.995  1.00  0.00     0.211 HD
ENDBRANCH   1  53
BRANCH   1  55
ATOM     55  C   UNL     1      32.248  34.360  16.348  1.00  0.00     0.165 C 
BRANCH  55  56
ATOM     56  O   UNL     1      32.109  35.597  16.995  1.00  0.00    -0.388 OA
ATOM     57  H   UNL     1      32.023  36.292  16.311  1.00  0.00     0.211 HD
ENDBRANCH  55  56
BRANCH  55  58
ATOM     58  C   UNL     1      32.818  34.516  14.972  1.00  0.00     0.154 C 
BRANCH  58  59
ATOM     59  N   UNL     1      31.874  34.821  13.943  1.00  0.00    -0.319 N 
ATOM     60  C   UNL     1      31.421  36.124  13.662  1.00  0.00     0.407 C 
ATOM     61  H   UNL     1      31.458  34.059  13.322  1.00  0.00     0.167 HD
ATOM     62  O   UNL     1      31.819  37.128  14.288  1.00  0.00    -0.225 OA
BRANCH  60  63
ATOM     63  O   UNL     1      30.481  36.379  12.652  1.00  0.00    -0.443 OA
BRANCH  63  64
ATOM     64  C   UNL     1      29.161  36.752  12.927  1.00  0.00     0.294 C 
BRANCH  64  65
ATOM     65  C   UNL     1      28.524  35.847  13.923  1.00  0.00     0.120 A 
ATOM     66  C   UNL     1      27.921  36.289  15.088  1.00  0.00     0.138 A 
ATOM     67  N   UNL     1      28.387  34.525  13.926  1.00  0.00    -0.132 NA
ATOM     68  N   UNL     1      27.454  35.216  15.734  1.00  0.00    -0.249 N 
ATOM     69  N   UNL     1      27.748  34.153  15.008  1.00  0.00    -0.067 NA
BRANCH  68  70
ATOM     70  C   UNL     1      26.751  35.191  17.025  1.00  0.00     0.187 C 
BRANCH  70  71
ATOM     71  C   UNL     1      25.495  34.357  16.907  1.00  0.00     0.256 C 
BRANCH  71  72
ATOM     72  O   UNL     1      25.739  33.092  17.512  1.00  0.00    -0.464 OA
BRANCH  72  73
ATOM     73  C   UNL     1      24.878  32.597  18.487  1.00  0.00     0.302 C 
ATOM     74  O   UNL     1      25.187  32.773  19.689  1.00  0.00    -0.253 OA
ATOM     75  C   UNL     1      23.610  31.873  18.144  1.00  0.00     0.139 C 
ENDBRANCH  72  73
ENDBRANCH  71  72
ENDBRANCH  70  71
ENDBRANCH  68  70
ENDBRANCH  64  65
ENDBRANCH  63  64
ENDBRANCH  60  63
ENDBRANCH  58  59
ENDBRANCH  55  58
ENDBRANCH   1  55
TORSDOF 33
BEGIN_RES LYS A 131
REMARK  4 active torsions:
REMARK  status: ('A' for Active; 'I' for Inactive)
REMARK    1  A    between atoms: CA   and  CB  
REMARK    2  A    between atoms: CB   and  CG  
REMARK    3  A    between atoms: CG   and  CD  
REMARK    4  A    between atoms: CD   and  CE  
ROOT
ATOM      1  CA  LYS A 131      29.867  25.555  16.977  1.00 20.52     0.186 C 
ENDROOT
BRANCH   1   2
ATOM      2  CB  LYS A 131      28.345  25.722  17.026  1.00 20.94     0.034 C 
BRANCH   2   3
ATOM      3  CG  LYS A 131      27.601  24.402  16.895  1.00 22.96     0.005 C 
BRANCH   3   4
ATOM      4  CD  LYS A 131      26.159  24.521  17.304  1.00 24.33     0.041 C 
BRANCH   4   5
ATOM      5  CE  LYS A 131      25.971  23.914  18.690  1.00 26.91     0.338 C 
ATOM      6  NZ  LYS A 131      24.644  23.261  18.794  1.00 27.40     0.618 N 
ENDBRANCH   4   5
ENDBRANCH   3   4
ENDBRANCH   2   3
ENDBRANCH   1   2
END_RES LYS A 131
BEGIN_RES LYS A 135
REMARK  4 active torsions:
REMARK  status: ('A' for Active; 'I' for Inactive)
REMARK    5  A    between atoms: CA   and  CB  
REMARK    6  A    between atoms: CB   and  CG  
REMARK    7  A    between atoms: CG   and  CD  
REMARK    8  A    between atoms: CD   and  CE  
ROOT
ATOM      7  CA  LYS A 135      33.193  34.663   9.290  1.00 25.02     0.186 C 
ENDROOT
BRANCH   7   8
ATOM      8  CB  LYS A 135      32.060  35.360  10.034  1.00 26.63     0.034 C 
BRANCH   8   9
ATOM      9  CG  LYS A 135      30.733  34.658   9.905  1.00 29.45     0.005 C 
BRANCH   9  10
ATOM     10  CD  LYS A 135      30.349  34.500   8.442  1.00 32.00     0.041 C 
BRANCH  10  11
ATOM     11  CE  LYS A 135      28.841  34.498   8.284  1.00 34.25     0.338 C 
ATOM     12  NZ  LYS A 135      28.421  35.343   7.132  1.00 35.99     0.618 N 
ENDBRANCH  10  11
ENDBRANCH   9  10
ENDBRANCH   8   9
ENDBRANCH   7   8
END_RES LYS A 135
