REMARK VINA RESULT:    -5.673      3.154      8.211
REMARK INTER + INTRA:         -26.142
REMARK INTER:                 -14.425
REMARK INTRA:                 -11.716
REMARK UNBOUND:               -11.349
REMARK SMILES CC(=O)N[C@@H]1[C@@H](O)C[C@](OC[C@H]2O[C@@H](O[C@H]3[C@H](O)[C@@H](O)[C@H](OCCN=[N+]=[N-])O[C@@H]3CO)[C@H](O)[C@@H](O)[C@H]2O)(C(=O)O)O[C@H]1C(O)[C@H](O)CNC(=O)OCc1cn(-c2ccc(-c3c4ccc(=O)cc-4oc4cc(O)ccc34)c(C(=O)[O-])c2)nn1
REMARK SMILES IDX 9 1 8 2 6 3 5 4 42 5 41 6 10 7 11 8 12 9 14 10 13 11 32 12
REMARK SMILES IDX 34 13 36 14 15 15 16 16 29 17 28 18 21 19 17 20 19 21 30 22
REMARK SMILES IDX 31 23 22 25 23 26 24 27 25 28 26 29 27 30 18 31 20 33 33 35
REMARK SMILES IDX 35 37 37 39 38 41 39 42 40 43 7 45 43 47 44 48 45 50 46 51
REMARK SMILES IDX 47 53 48 54 49 55 50 57 51 58 52 59 53 60 54 61 82 62 55 63
REMARK SMILES IDX 81 64 56 65 80 66 57 67 76 68 58 69 59 70 77 71 78 72 79 73
REMARK SMILES IDX 60 74 75 75 61 76 74 77 69 78 67 79 62 80 73 81 70 82 68 83
REMARK SMILES IDX 66 84 63 85 71 86 64 87 65 88 72 89 4 91 2 92 1 94 3 95
REMARK H PARENT 31 24 18 32 20 34 33 36 35 38 37 40 40 44 7 46 44 49 46 52
REMARK H PARENT 48 56 72 90 4 93
REMARK Flexibility Score: inf
ROOT
ATOM      1  C   UNL     1      31.048  35.007  14.128  1.00  0.00     0.272 C 
ATOM      2  C   UNL     1      30.359  34.641  12.837  1.00  0.00     0.113 C 
ATOM      3  C   UNL     1      28.889  34.376  13.002  1.00  0.00     0.145 C 
ATOM      4  C   UNL     1      28.617  34.171  14.470  1.00  0.00     0.142 C 
ATOM      5  C   UNL     1      29.712  33.278  14.991  1.00  0.00     0.178 C 
ATOM      6  O   UNL     1      30.878  33.994  15.103  1.00  0.00    -0.332 OA
ENDROOT
BRANCH   1   7
ATOM      7  O   UNL     1      30.707  36.216  14.668  1.00  0.00    -0.338 OA
BRANCH   7   8
ATOM      8  C   UNL     1      31.361  37.275  14.147  1.00  0.00     0.199 C 
BRANCH   8   9
ATOM      9  C   UNL     1      30.402  38.424  13.803  1.00  0.00     0.179 C 
ATOM     10  C   UNL     1      28.863  39.088  12.219  1.00  0.00     0.282 C 
ATOM     11  O   UNL     1      30.020  38.420  12.511  1.00  0.00    -0.341 OA
ATOM     12  C   UNL     1      28.534  40.213  13.119  1.00  0.00     0.202 C 
ATOM     13  C   UNL     1      28.590  39.835  14.581  1.00  0.00     0.179 C 
ATOM     14  C   UNL     1      29.256  38.478  14.744  1.00  0.00     0.177 C 
BRANCH  10  15
ATOM     15  O   UNL     1      27.877  38.120  12.033  1.00  0.00    -0.341 OA
BRANCH  15  16
ATOM     16  C   UNL     1      27.034  38.387  11.004  1.00  0.00     0.184 C 
ATOM     17  C   UNL     1      25.600  38.121  11.344  1.00  0.00     0.178 C 
ATOM     18  O   UNL     1      24.758  38.798  10.450  1.00  0.00    -0.341 OA
ATOM     19  C   UNL     1      25.215  38.683   9.142  1.00  0.00     0.281 C 
ATOM     20  C   UNL     1      27.303  37.511   9.766  1.00  0.00     0.180 C 
ATOM     21  C   UNL     1      26.043  37.468   8.928  1.00  0.00     0.202 C 
BRANCH  17  22
ATOM     22  C   UNL     1      25.296  38.596  12.731  1.00  0.00     0.191 C 
BRANCH  22  23
ATOM     23  O   UNL     1      25.719  37.626  13.642  1.00  0.00    -0.394 OA
ATOM     24  H   UNL     1      26.210  38.096  14.351  1.00  0.00     0.210 HD
ENDBRANCH  22  23
ENDBRANCH  17  22
BRANCH  19  25
ATOM     25  O   UNL     1      25.865  39.829   8.737  1.00  0.00    -0.350 OA
BRANCH  25  26
ATOM     26  C   UNL     1      25.180  40.566   7.778  1.00  0.00     0.169 C 
BRANCH  26  27
ATOM     27  C   UNL     1      25.626  40.031   6.429  1.00  0.00     0.119 C 
BRANCH  27  28
ATOM     28  N   UNL     1      27.033  39.736   6.407  1.00  0.00    -0.092 NA
ATOM     29  N   UNL     1      27.427  38.770   5.741  1.00  0.00     0.001 N 
ATOM     30  N   UNL     1      28.049  38.040   4.968  1.00  0.00    -0.003 NA
ENDBRANCH  27  28
ENDBRANCH  26  27
ENDBRANCH  25  26
ENDBRANCH  19  25
BRANCH  20  31
ATOM     31  O   UNL     1      28.278  38.172   9.025  1.00  0.00    -0.387 OA
ATOM     32  H   UNL     1      29.180  37.799   9.131  1.00  0.00     0.211 HD
ENDBRANCH  20  31
BRANCH  21  33
ATOM     33  O   UNL     1      25.319  36.286   9.093  1.00  0.00    -0.385 OA
ATOM     34  H   UNL     1      25.978  35.547   8.911  1.00  0.00     0.211 HD
ENDBRANCH  21  33
ENDBRANCH  15  16
ENDBRANCH  10  15
BRANCH  12  35
ATOM     35  O   UNL     1      29.405  41.307  12.885  1.00  0.00    -0.385 OA
ATOM     36  H   UNL     1      28.846  42.132  12.760  1.00  0.00     0.211 HD
ENDBRANCH  12  35
BRANCH  13  37
ATOM     37  O   UNL     1      27.350  39.903  15.194  1.00  0.00    -0.387 OA
ATOM     38  H   UNL     1      27.391  40.608  15.881  1.00  0.00     0.211 HD
ENDBRANCH  13  37
BRANCH  14  39
ATOM     39  O   UNL     1      28.288  37.505  14.538  1.00  0.00    -0.387 OA
ATOM     40  H   UNL     1      28.698  36.647  14.853  1.00  0.00     0.211 HD
ENDBRANCH  14  39
ENDBRANCH   8   9
ENDBRANCH   7   8
ENDBRANCH   1   7
BRANCH   1  41
ATOM     41  C   UNL     1      32.528  34.911  13.811  1.00  0.00     0.364 C 
ATOM     42  O   UNL     1      33.415  34.844  14.681  1.00  0.00    -0.246 OA
BRANCH  41  43
ATOM     43  O   UNL     1      32.953  34.895  12.485  1.00  0.00    -0.477 OA
ATOM     44  H   UNL     1      33.785  34.392  12.211  1.00  0.00     0.296 HD
ENDBRANCH  41  43
ENDBRANCH   1  41
BRANCH   3  45
ATOM     45  O   UNL     1      28.169  35.406  12.429  1.00  0.00    -0.391 OA
ATOM     46  H   UNL     1      27.574  35.778  13.126  1.00  0.00     0.211 HD
ENDBRANCH   3  45
BRANCH   5  47
ATOM     47  C   UNL     1      29.380  32.786  16.403  1.00  0.00     0.176 C 
BRANCH  47  48
ATOM     48  O   UNL     1      29.292  33.924  17.242  1.00  0.00    -0.388 OA
ATOM     49  H   UNL     1      28.635  34.567  16.931  1.00  0.00     0.211 HD
ENDBRANCH  47  48
BRANCH  47  50
ATOM     50  C   UNL     1      30.491  31.957  16.956  1.00  0.00     0.165 C 
BRANCH  50  51
ATOM     51  O   UNL     1      30.674  30.818  16.169  1.00  0.00    -0.388 OA
ATOM     52  H   UNL     1      29.799  30.363  16.067  1.00  0.00     0.211 HD
ENDBRANCH  50  51
BRANCH  50  53
ATOM     53  C   UNL     1      30.376  31.600  18.397  1.00  0.00     0.154 C 
BRANCH  53  54
ATOM     54  N   UNL     1      29.615  30.388  18.600  1.00  0.00    -0.319 N 
ATOM     55  C   UNL     1      28.306  30.347  19.137  1.00  0.00     0.407 C 
ATOM     56  H   UNL     1      30.017  29.435  18.346  1.00  0.00     0.167 HD
ATOM     57  O   UNL     1      27.735  31.404  19.467  1.00  0.00    -0.225 OA
BRANCH  55  58
ATOM     58  O   UNL     1      27.606  29.161  19.321  1.00  0.00    -0.443 OA
BRANCH  58  59
ATOM     59  C   UNL     1      27.383  28.233  18.253  1.00  0.00     0.294 C 
BRANCH  59  60
ATOM     60  C   UNL     1      26.884  29.039  17.110  1.00  0.00     0.121 A 
ATOM     61  C   UNL     1      25.587  29.175  16.700  1.00  0.00     0.144 A 
ATOM     62  N   UNL     1      27.626  29.797  16.253  1.00  0.00    -0.131 NA
ATOM     63  N   UNL     1      25.546  29.992  15.626  1.00  0.00    -0.220 N 
ATOM     64  N   UNL     1      26.804  30.351  15.381  1.00  0.00    -0.062 NA
BRANCH  63  65
ATOM     65  C   UNL     1      24.376  30.375  14.920  1.00  0.00     0.067 A 
ATOM     66  C   UNL     1      23.194  30.656  15.563  1.00  0.00     0.039 A 
ATOM     67  C   UNL     1      24.433  30.474  13.552  1.00  0.00     0.029 A 
ATOM     68  C   UNL     1      22.089  31.029  14.833  1.00  0.00     0.007 A 
ATOM     69  C   UNL     1      23.324  30.848  12.824  1.00  0.00     0.012 A 
ATOM     70  C   UNL     1      22.130  31.133  13.445  1.00  0.00    -0.008 A 
BRANCH  68  71
ATOM     71  C   UNL     1      20.814  31.335  15.485  1.00  0.00     0.072 C 
ATOM     72  O   UNL     1      20.515  32.498  15.848  1.00  0.00    -0.545 OA
ATOM     73  O   UNL     1      19.914  30.322  15.709  1.00  0.00    -0.545 OA
ENDBRANCH  68  71
BRANCH  70  74
ATOM     74  C   UNL     1      20.958  31.530  12.687  1.00  0.00     0.004 A 
ATOM     75  C   UNL     1      20.101  30.560  12.230  1.00  0.00     0.026 A 
ATOM     76  C   UNL     1      20.679  32.844  12.409  1.00  0.00     0.026 A 
ATOM     77  C   UNL     1      20.302  29.219  12.461  1.00  0.00     0.016 A 
ATOM     78  C   UNL     1      18.985  30.957  11.503  1.00  0.00     0.139 A 
ATOM     79  C   UNL     1      19.477  33.217  11.631  1.00  0.00     0.139 A 
ATOM     80  C   UNL     1      21.487  33.868  12.831  1.00  0.00     0.016 A 
ATOM     81  C   UNL     1      19.432  28.249  11.997  1.00  0.00     0.047 A 
ATOM     82  C   UNL     1      18.126  29.988  11.045  1.00  0.00     0.093 A 
ATOM     83  O   UNL     1      18.724  32.222  11.240  1.00  0.00    -0.456 OA
ATOM     84  C   UNL     1      19.202  34.532  11.355  1.00  0.00     0.099 A 
ATOM     85  C   UNL     1      21.197  35.190  12.545  1.00  0.00     0.053 A 
ATOM     86  C   UNL     1      18.323  28.634  11.275  1.00  0.00     0.119 A 
ATOM     87  C   UNL     1      20.064  35.500  11.815  1.00  0.00     0.182 A 
ATOM     88  O   UNL     1      19.854  36.722  11.587  1.00  0.00    -0.290 OA
BRANCH  86  89
ATOM     89  O   UNL     1      17.456  27.655  10.814  1.00  0.00    -0.508 OA
ATOM     90  H   UNL     1      16.499  27.945  10.631  1.00  0.00     0.293 HD
ENDBRANCH  86  89
ENDBRANCH  70  74
ENDBRANCH  63  65
ENDBRANCH  59  60
ENDBRANCH  58  59
ENDBRANCH  55  58
ENDBRANCH  53  54
ENDBRANCH  50  53
ENDBRANCH  47  50
ENDBRANCH   5  47
BRANCH   4  91
ATOM     91  N   UNL     1      27.301  33.623  14.721  1.00  0.00    -0.348 N 
ATOM     92  C   UNL     1      26.322  34.456  15.296  1.00  0.00     0.217 C 
ATOM     93  H   UNL     1      27.040  32.638  14.497  1.00  0.00     0.163 HD
ATOM     94  C   UNL     1      24.942  34.001  15.597  1.00  0.00     0.114 C 
ATOM     95  O   UNL     1      26.579  35.674  15.594  1.00  0.00    -0.275 OA
ENDBRANCH   4  91
TORSDOF 33
BEGIN_RES LYS A 131
REMARK  4 active torsions:
REMARK  status: ('A' for Active; 'I' for Inactive)
REMARK    1  A    between atoms: CA   and  CB  
REMARK    2  A    between atoms: CB   and  CG  
REMARK    3  A    between atoms: CG   and  CD  
REMARK    4  A    between atoms: CD   and  CE  
ROOT
ATOM      1  CA  LYS A 131      29.867  25.555  16.977  1.00 20.52     0.186 C 
ENDROOT
BRANCH   1   2
ATOM      2  CB  LYS A 131      28.345  25.722  17.026  1.00 20.94     0.034 C 
BRANCH   2   3
ATOM      3  CG  LYS A 131      27.602  24.399  16.924  1.00 22.96     0.005 C 
BRANCH   3   4
ATOM      4  CD  LYS A 131      26.512  24.281  17.952  1.00 24.33     0.041 C 
BRANCH   4   5
ATOM      5  CE  LYS A 131      25.159  24.527  17.291  1.00 26.91     0.338 C 
ATOM      6  NZ  LYS A 131      24.589  25.818  17.742  1.00 27.40     0.618 N 
ENDBRANCH   4   5
ENDBRANCH   3   4
ENDBRANCH   2   3
ENDBRANCH   1   2
END_RES LYS A 131
BEGIN_RES LYS A 135
REMARK  4 active torsions:
REMARK  status: ('A' for Active; 'I' for Inactive)
REMARK    5  A    between atoms: CA   and  CB  
REMARK    6  A    between atoms: CB   and  CG  
REMARK    7  A    between atoms: CG   and  CD  
REMARK    8  A    between atoms: CD   and  CE  
ROOT
ATOM      7  CA  LYS A 135      33.193  34.663   9.290  1.00 25.02     0.186 C 
ENDROOT
BRANCH   7   8
ATOM      8  CB  LYS A 135      32.060  35.360  10.034  1.00 26.63     0.034 C 
BRANCH   8   9
ATOM      9  CG  LYS A 135      30.793  35.478   9.228  1.00 29.45     0.005 C 
BRANCH   9  10
ATOM     10  CD  LYS A 135      30.127  34.119   9.072  1.00 32.00     0.041 C 
BRANCH  10  11
ATOM     11  CE  LYS A 135      28.669  34.281   8.685  1.00 34.25     0.338 C 
ATOM     12  NZ  LYS A 135      28.529  35.106   7.453  1.00 35.99     0.618 N 
ENDBRANCH  10  11
ENDBRANCH   9  10
ENDBRANCH   8   9
ENDBRANCH   7   8
END_RES LYS A 135
