REMARK VINA RESULT:    -5.319      5.318     11.312
REMARK INTER + INTRA:         -24.487
REMARK INTER:                  -9.247
REMARK INTRA:                 -15.240
REMARK UNBOUND:               -10.617
REMARK SMILES CC(=O)N[C@@H]1[C@@H](O)C[C@](OC[C@H]2O[C@@H](O[C@H]3[C@H](O)[C@@H](O)[C@H](OCCN=[N+]=[N-])O[C@@H]3CO)[C@H](O)[C@@H](O)[C@H]2O)(C(=O)O)O[C@H]1C(O)[C@H](O)CNC(=O)OCc1cn(-c2ccc(S(=O)(=O)c3ccc(N)cc3)cc2)nn1
REMARK SMILES IDX 43 1 42 2 9 3 8 4 41 5 6 6 5 7 10 8 11 9 12 10 14 11 13 12
REMARK SMILES IDX 32 13 34 14 36 15 15 16 16 17 29 18 28 19 21 20 17 21 19 22
REMARK SMILES IDX 30 23 31 24 22 26 23 27 24 28 25 29 26 30 27 31 18 32 20 34
REMARK SMILES IDX 33 36 35 38 37 40 38 42 39 43 40 44 7 46 4 48 2 49 1 51 3 52
REMARK SMILES IDX 44 53 45 55 46 56 47 58 48 59 49 60 50 62 51 63 52 64 53 65
REMARK SMILES IDX 54 66 73 67 55 68 72 69 56 70 57 71 71 72 58 73 70 74 59 75
REMARK SMILES IDX 60 76 61 77 62 78 63 79 64 80 69 81 65 82 68 83 66 84 67 85
REMARK H PARENT 31 25 18 33 20 35 33 37 35 39 37 41 40 45 7 47 4 50 44 54
REMARK H PARENT 46 57 48 61 67 86 67 87
REMARK Flexibility Score: inf
ROOT
ATOM      1  C   UNL     1      25.533  28.957  23.685  1.00  0.00     0.176 C 
ENDROOT
BRANCH   1   2
ATOM      2  C   UNL     1      26.262  28.357  22.483  1.00  0.00     0.178 C 
ATOM      3  C   UNL     1      26.339  28.325  20.172  1.00  0.00     0.272 C 
ATOM      4  C   UNL     1      26.477  26.837  20.180  1.00  0.00     0.113 C 
ATOM      5  O   UNL     1      25.671  28.769  21.327  1.00  0.00    -0.332 OA
ATOM      6  C   UNL     1      25.680  26.285  21.351  1.00  0.00     0.145 C 
ATOM      7  C   UNL     1      26.258  26.825  22.615  1.00  0.00     0.142 C 
BRANCH   3   8
ATOM      8  O   UNL     1      25.576  28.840  19.121  1.00  0.00    -0.338 OA
BRANCH   8   9
ATOM      9  C   UNL     1      25.913  28.427  17.867  1.00  0.00     0.199 C 
BRANCH   9  10
ATOM     10  C   UNL     1      26.054  29.629  16.961  1.00  0.00     0.179 C 
ATOM     11  C   UNL     1      25.885  31.905  16.879  1.00  0.00     0.282 C 
ATOM     12  O   UNL     1      25.910  30.780  17.745  1.00  0.00    -0.341 OA
ATOM     13  C   UNL     1      27.298  32.062  16.393  1.00  0.00     0.202 C 
ATOM     14  C   UNL     1      27.644  30.885  15.509  1.00  0.00     0.179 C 
ATOM     15  C   UNL     1      27.369  29.595  16.263  1.00  0.00     0.177 C 
BRANCH  11  16
ATOM     16  O   UNL     1      25.382  32.965  17.587  1.00  0.00    -0.341 OA
BRANCH  16  17
ATOM     17  C   UNL     1      25.373  32.685  18.973  1.00  0.00     0.184 C 
ATOM     18  C   UNL     1      24.055  33.130  19.522  1.00  0.00     0.178 C 
ATOM     19  O   UNL     1      24.120  33.975  20.598  1.00  0.00    -0.341 OA
ATOM     20  C   UNL     1      24.931  35.067  20.496  1.00  0.00     0.281 C 
ATOM     21  C   UNL     1      26.525  33.509  19.534  1.00  0.00     0.180 C 
ATOM     22  C   UNL     1      26.048  34.946  19.484  1.00  0.00     0.202 C 
BRANCH  18  23
ATOM     23  C   UNL     1      23.365  31.853  20.037  1.00  0.00     0.191 C 
BRANCH  23  24
ATOM     24  O   UNL     1      24.253  30.937  20.545  1.00  0.00    -0.394 OA
ATOM     25  H   UNL     1      24.937  31.315  21.152  1.00  0.00     0.210 HD
ENDBRANCH  23  24
ENDBRANCH  18  23
BRANCH  20  26
ATOM     26  O   UNL     1      25.535  35.260  21.734  1.00  0.00    -0.350 OA
BRANCH  26  27
ATOM     27  C   UNL     1      26.300  36.389  21.844  1.00  0.00     0.169 C 
BRANCH  27  28
ATOM     28  C   UNL     1      27.457  36.169  22.760  1.00  0.00     0.119 C 
BRANCH  28  29
ATOM     29  N   UNL     1      27.449  34.776  23.237  1.00  0.00    -0.092 NA
ATOM     30  N   UNL     1      28.430  34.293  23.801  1.00  0.00     0.001 N 
ATOM     31  N   UNL     1      29.185  33.941  24.724  1.00  0.00    -0.003 NA
ENDBRANCH  28  29
ENDBRANCH  27  28
ENDBRANCH  26  27
ENDBRANCH  20  26
BRANCH  21  32
ATOM     32  O   UNL     1      26.769  33.161  20.842  1.00  0.00    -0.387 OA
ATOM     33  H   UNL     1      26.300  32.313  21.072  1.00  0.00     0.211 HD
ENDBRANCH  21  32
BRANCH  22  34
ATOM     34  O   UNL     1      25.688  35.344  18.218  1.00  0.00    -0.385 OA
ATOM     35  H   UNL     1      26.427  35.259  17.560  1.00  0.00     0.211 HD
ENDBRANCH  22  34
ENDBRANCH  16  17
ENDBRANCH  11  16
BRANCH  13  36
ATOM     36  O   UNL     1      27.509  33.274  15.740  1.00  0.00    -0.385 OA
ATOM     37  H   UNL     1      27.901  33.045  14.838  1.00  0.00     0.211 HD
ENDBRANCH  13  36
BRANCH  14  38
ATOM     38  O   UNL     1      29.027  30.899  15.278  1.00  0.00    -0.387 OA
ATOM     39  H   UNL     1      29.477  30.279  15.882  1.00  0.00     0.211 HD
ENDBRANCH  14  38
BRANCH  15  40
ATOM     40  O   UNL     1      28.412  29.296  17.128  1.00  0.00    -0.387 OA
ATOM     41  H   UNL     1      28.618  28.334  17.095  1.00  0.00     0.211 HD
ENDBRANCH  15  40
ENDBRANCH   9  10
ENDBRANCH   8   9
ENDBRANCH   3   8
BRANCH   3  42
ATOM     42  C   UNL     1      27.642  29.042  20.125  1.00  0.00     0.364 C 
ATOM     43  O   UNL     1      28.771  28.498  20.125  1.00  0.00    -0.246 OA
BRANCH  42  44
ATOM     44  O   UNL     1      27.642  30.426  20.077  1.00  0.00    -0.477 OA
ATOM     45  H   UNL     1      26.779  30.961  19.887  1.00  0.00     0.296 HD
ENDBRANCH  42  44
ENDBRANCH   3  42
BRANCH   6  46
ATOM     46  O   UNL     1      24.390  26.809  21.217  1.00  0.00    -0.391 OA
ATOM     47  H   UNL     1      24.366  27.572  20.578  1.00  0.00     0.211 HD
ENDBRANCH   6  46
BRANCH   7  48
ATOM     48  N   UNL     1      27.568  26.360  22.943  1.00  0.00    -0.348 N 
ATOM     49  C   UNL     1      27.885  25.602  24.106  1.00  0.00     0.217 C 
ATOM     50  H   UNL     1      28.362  26.579  22.293  1.00  0.00     0.163 HD
ATOM     51  C   UNL     1      29.287  25.175  24.336  1.00  0.00     0.114 C 
ATOM     52  O   UNL     1      26.964  25.326  24.886  1.00  0.00    -0.275 OA
ENDBRANCH   7  48
ENDBRANCH   1   2
BRANCH   1  53
ATOM     53  O   UNL     1      25.725  28.186  24.820  1.00  0.00    -0.388 OA
ATOM     54  H   UNL     1      25.765  27.214  24.575  1.00  0.00     0.211 HD
ENDBRANCH   1  53
BRANCH   1  55
ATOM     55  C   UNL     1      25.820  30.397  23.868  1.00  0.00     0.165 C 
BRANCH  55  56
ATOM     56  O   UNL     1      26.442  30.934  22.738  1.00  0.00    -0.388 OA
ATOM     57  H   UNL     1      26.453  31.904  22.713  1.00  0.00     0.211 HD
ENDBRANCH  55  56
BRANCH  55  58
ATOM     58  C   UNL     1      26.784  30.624  25.013  1.00  0.00     0.154 C 
BRANCH  58  59
ATOM     59  N   UNL     1      28.124  30.916  24.589  1.00  0.00    -0.319 N 
ATOM     60  C   UNL     1      29.088  29.876  24.613  1.00  0.00     0.407 C 
ATOM     61  H   UNL     1      28.400  31.857  24.268  1.00  0.00     0.167 HD
ATOM     62  O   UNL     1      28.728  28.726  24.998  1.00  0.00    -0.225 OA
BRANCH  60  63
ATOM     63  O   UNL     1      30.406  30.024  24.246  1.00  0.00    -0.443 OA
BRANCH  63  64
ATOM     64  C   UNL     1      30.930  29.655  22.989  1.00  0.00     0.294 C 
BRANCH  64  65
ATOM     65  C   UNL     1      30.645  30.743  22.021  1.00  0.00     0.121 A 
ATOM     66  C   UNL     1      31.379  31.196  20.944  1.00  0.00     0.144 A 
ATOM     67  N   UNL     1      29.518  31.524  22.020  1.00  0.00    -0.131 NA
ATOM     68  N   UNL     1      30.694  32.212  20.334  1.00  0.00    -0.220 N 
ATOM     69  N   UNL     1      29.587  32.369  21.016  1.00  0.00    -0.062 NA
BRANCH  68  70
ATOM     70  C   UNL     1      31.069  32.949  19.190  1.00  0.00     0.066 A 
ATOM     71  C   UNL     1      30.741  32.489  17.910  1.00  0.00     0.030 A 
ATOM     72  C   UNL     1      31.761  34.131  19.250  1.00  0.00     0.030 A 
ATOM     73  C   UNL     1      31.082  33.167  16.767  1.00  0.00     0.023 A 
ATOM     74  C   UNL     1      32.111  34.826  18.092  1.00  0.00     0.023 A 
ATOM     75  C   UNL     1      31.777  34.354  16.842  1.00  0.00     0.072 A 
BRANCH  75  76
ATOM     76  S   UNL     1      32.214  35.230  15.390  1.00  0.00     0.206 S 
ATOM     77  O   UNL     1      33.171  34.368  14.583  1.00  0.00    -0.219 OA
ATOM     78  O   UNL     1      32.792  36.576  15.671  1.00  0.00    -0.219 OA
BRANCH  76  79
ATOM     79  C   UNL     1      30.777  35.403  14.382  1.00  0.00     0.072 A 
ATOM     80  C   UNL     1      30.146  36.612  14.279  1.00  0.00     0.023 A 
ATOM     81  C   UNL     1      30.272  34.327  13.689  1.00  0.00     0.023 A 
ATOM     82  C   UNL     1      29.033  36.734  13.497  1.00  0.00     0.027 A 
ATOM     83  C   UNL     1      29.153  34.464  12.908  1.00  0.00     0.027 A 
ATOM     84  C   UNL     1      28.502  35.659  12.786  1.00  0.00     0.031 A 
BRANCH  84  85
ATOM     85  N   UNL     1      27.348  35.828  11.991  1.00  0.00    -0.399 N 
ATOM     86  H   UNL     1      26.798  36.698  12.026  1.00  0.00     0.156 HD
ATOM     87  H   UNL     1      27.046  35.066  11.360  1.00  0.00     0.156 HD
ENDBRANCH  84  85
ENDBRANCH  76  79
ENDBRANCH  75  76
ENDBRANCH  68  70
ENDBRANCH  64  65
ENDBRANCH  63  64
ENDBRANCH  60  63
ENDBRANCH  58  59
ENDBRANCH  55  58
ENDBRANCH   1  55
TORSDOF 33
BEGIN_RES LYS A 131
REMARK  4 active torsions:
REMARK  status: ('A' for Active; 'I' for Inactive)
REMARK    1  A    between atoms: CA   and  CB  
REMARK    2  A    between atoms: CB   and  CG  
REMARK    3  A    between atoms: CG   and  CD  
REMARK    4  A    between atoms: CD   and  CE  
ROOT
ATOM      1  CA  LYS A 131      29.867  25.555  16.977  1.00 20.52     0.186 C 
ENDROOT
BRANCH   1   2
ATOM      2  CB  LYS A 131      28.345  25.722  17.026  1.00 20.94     0.034 C 
BRANCH   2   3
ATOM      3  CG  LYS A 131      27.599  24.443  16.677  1.00 22.96     0.005 C 
BRANCH   3   4
ATOM      4  CD  LYS A 131      26.211  24.422  17.256  1.00 24.33     0.041 C 
BRANCH   4   5
ATOM      5  CE  LYS A 131      26.203  23.578  18.526  1.00 26.91     0.338 C 
ATOM      6  NZ  LYS A 131      24.840  23.528  19.107  1.00 27.40     0.618 N 
ENDBRANCH   4   5
ENDBRANCH   3   4
ENDBRANCH   2   3
ENDBRANCH   1   2
END_RES LYS A 131
BEGIN_RES LYS A 135
REMARK  4 active torsions:
REMARK  status: ('A' for Active; 'I' for Inactive)
REMARK    5  A    between atoms: CA   and  CB  
REMARK    6  A    between atoms: CB   and  CG  
REMARK    7  A    between atoms: CG   and  CD  
REMARK    8  A    between atoms: CD   and  CE  
ROOT
ATOM      7  CA  LYS A 135      33.193  34.663   9.290  1.00 25.02     0.186 C 
ENDROOT
BRANCH   7   8
ATOM      8  CB  LYS A 135      32.060  35.360  10.034  1.00 26.63     0.034 C 
BRANCH   8   9
ATOM      9  CG  LYS A 135      30.707  34.746   9.783  1.00 29.45     0.005 C 
BRANCH   9  10
ATOM     10  CD  LYS A 135      30.491  34.513   8.296  1.00 32.00     0.041 C 
BRANCH  10  11
ATOM     11  CE  LYS A 135      29.062  34.841   7.907  1.00 34.25     0.338 C 
ATOM     12  NZ  LYS A 135      28.094  34.230   8.859  1.00 35.99     0.618 N 
ENDBRANCH  10  11
ENDBRANCH   9  10
ENDBRANCH   8   9
ENDBRANCH   7   8
END_RES LYS A 135
