REMARK VINA RESULT:    -4.709      5.752     11.593
REMARK INTER + INTRA:         -23.312
REMARK INTER:                 -10.319
REMARK INTRA:                 -12.994
REMARK UNBOUND:               -10.207
REMARK SMILES CC(=O)N[C@@H]1[C@@H](O)C[C@](OC[C@H]2O[C@@H](O[C@H]3[C@H](O)[C@@H](O)[C@H](OCCN=[N+]=[N-])O[C@@H]3CO)[C@H](O)[C@@H](O)[C@H]2O)(C(=O)O)O[C@H]1C(O)[C@H](O)CNC(=O)OCc1cn(C[C@H](CC(=O)O)CC(C)C)nn1
REMARK SMILES IDX 43 1 42 2 9 3 8 4 41 5 6 6 5 7 10 8 11 9 12 10 14 11 13 12
REMARK SMILES IDX 32 13 34 14 36 15 15 16 16 17 29 18 28 19 21 20 17 21 19 22
REMARK SMILES IDX 30 23 31 24 22 26 23 27 24 28 25 29 26 30 27 31 18 32 20 34
REMARK SMILES IDX 33 36 35 38 37 40 38 42 39 43 40 44 7 46 4 48 2 49 1 51 3 52
REMARK SMILES IDX 44 53 45 55 46 56 47 58 48 59 49 60 50 62 51 63 52 64 53 65
REMARK SMILES IDX 54 66 67 67 55 68 66 69 56 70 57 71 58 72 59 73 60 74 61 75
REMARK SMILES IDX 62 77 63 78 64 79 65 80
REMARK H PARENT 31 25 18 33 20 35 33 37 35 39 37 41 40 45 7 47 4 50 44 54
REMARK H PARENT 46 57 48 61 61 76
REMARK Flexibility Score: inf
ROOT
ATOM      1  C   UNL     1      21.737  38.610   9.858  1.00  0.00     0.176 C 
ENDROOT
BRANCH   1   2
ATOM      2  C   UNL     1      22.490  37.557  10.622  1.00  0.00     0.178 C 
ATOM      3  C   UNL     1      24.635  36.815   9.811  1.00  0.00     0.272 C 
ATOM      4  C   UNL     1      24.012  35.617   9.191  1.00  0.00     0.113 C 
ATOM      5  O   UNL     1      23.795  37.714  10.280  1.00  0.00    -0.332 OA
ATOM      6  C   UNL     1      22.540  35.573   9.113  1.00  0.00     0.145 C 
ATOM      7  C   UNL     1      21.867  36.239  10.315  1.00  0.00     0.142 C 
BRANCH   3   8
ATOM      8  O   UNL     1      25.489  37.443   8.863  1.00  0.00    -0.338 OA
BRANCH   8   9
ATOM      9  C   UNL     1      25.698  36.729   7.724  1.00  0.00     0.199 C 
BRANCH   9  10
ATOM     10  C   UNL     1      26.542  37.554   6.727  1.00  0.00     0.179 C 
ATOM     11  C   UNL     1      26.730  39.685   5.826  1.00  0.00     0.282 C 
ATOM     12  O   UNL     1      26.319  38.906   6.897  1.00  0.00    -0.341 OA
ATOM     13  C   UNL     1      27.992  39.017   5.258  1.00  0.00     0.202 C 
ATOM     14  C   UNL     1      28.804  38.400   6.377  1.00  0.00     0.179 C 
ATOM     15  C   UNL     1      28.027  37.305   7.027  1.00  0.00     0.177 C 
BRANCH  11  16
ATOM     16  O   UNL     1      27.153  40.901   6.302  1.00  0.00    -0.341 OA
BRANCH  16  17
ATOM     17  C   UNL     1      26.199  41.876   6.427  1.00  0.00     0.184 C 
ATOM     18  C   UNL     1      24.948  41.634   5.635  1.00  0.00     0.178 C 
ATOM     19  O   UNL     1      24.699  42.535   4.643  1.00  0.00    -0.341 OA
ATOM     20  C   UNL     1      24.649  43.857   5.039  1.00  0.00     0.281 C 
ATOM     21  C   UNL     1      26.810  43.170   5.932  1.00  0.00     0.180 C 
ATOM     22  C   UNL     1      25.722  44.252   5.992  1.00  0.00     0.202 C 
BRANCH  18  23
ATOM     23  C   UNL     1      23.799  41.494   6.618  1.00  0.00     0.191 C 
BRANCH  23  24
ATOM     24  O   UNL     1      24.246  41.053   7.860  1.00  0.00    -0.394 OA
ATOM     25  H   UNL     1      24.836  41.719   8.307  1.00  0.00     0.210 HD
ENDBRANCH  23  24
ENDBRANCH  18  23
BRANCH  20  26
ATOM     26  O   UNL     1      23.361  44.116   5.483  1.00  0.00    -0.350 OA
BRANCH  26  27
ATOM     27  C   UNL     1      23.242  45.332   6.135  1.00  0.00     0.169 C 
BRANCH  27  28
ATOM     28  C   UNL     1      22.135  45.172   7.168  1.00  0.00     0.119 C 
BRANCH  28  29
ATOM     29  N   UNL     1      22.790  45.253   8.466  1.00  0.00    -0.092 NA
ATOM     30  N   UNL     1      23.263  44.247   8.940  1.00  0.00     0.001 N 
ATOM     31  N   UNL     1      23.685  43.375   9.712  1.00  0.00    -0.003 NA
ENDBRANCH  28  29
ENDBRANCH  27  28
ENDBRANCH  26  27
ENDBRANCH  20  26
BRANCH  21  32
ATOM     32  O   UNL     1      27.908  43.507   6.701  1.00  0.00    -0.387 OA
ATOM     33  H   UNL     1      28.595  42.782   6.560  1.00  0.00     0.211 HD
ENDBRANCH  21  32
BRANCH  22  34
ATOM     34  O   UNL     1      26.379  45.441   5.614  1.00  0.00    -0.385 OA
ATOM     35  H   UNL     1      26.773  45.285   4.730  1.00  0.00     0.211 HD
ENDBRANCH  22  34
ENDBRANCH  16  17
ENDBRANCH  11  16
BRANCH  13  36
ATOM     36  O   UNL     1      27.722  38.158   4.222  1.00  0.00    -0.385 OA
ATOM     37  H   UNL     1      27.702  37.217   4.466  1.00  0.00     0.211 HD
ENDBRANCH  13  36
BRANCH  14  38
ATOM     38  O   UNL     1      29.002  39.435   7.313  1.00  0.00    -0.387 OA
ATOM     39  H   UNL     1      29.555  39.158   8.060  1.00  0.00     0.211 HD
ENDBRANCH  14  38
BRANCH  15  40
ATOM     40  O   UNL     1      28.248  37.398   8.417  1.00  0.00    -0.387 OA
ATOM     41  H   UNL     1      28.577  36.558   8.775  1.00  0.00     0.211 HD
ENDBRANCH  15  40
ENDBRANCH   9  10
ENDBRANCH   8   9
ENDBRANCH   3   8
BRANCH   3  42
ATOM     42  C   UNL     1      25.615  36.376  10.883  1.00  0.00     0.364 C 
ATOM     43  O   UNL     1      25.325  35.457  11.658  1.00  0.00    -0.246 OA
BRANCH  42  44
ATOM     44  O   UNL     1      26.828  36.991  11.005  1.00  0.00    -0.477 OA
ATOM     45  H   UNL     1      27.383  36.966  11.859  1.00  0.00     0.296 HD
ENDBRANCH  42  44
ENDBRANCH   3  42
BRANCH   6  46
ATOM     46  O   UNL     1      21.962  36.036   7.951  1.00  0.00    -0.391 OA
ATOM     47  H   UNL     1      21.040  35.676   7.927  1.00  0.00     0.211 HD
ENDBRANCH   6  46
BRANCH   7  48
ATOM     48  N   UNL     1      21.906  35.259  11.367  1.00  0.00    -0.348 N 
ATOM     49  C   UNL     1      20.748  34.415  11.554  1.00  0.00     0.217 C 
ATOM     50  H   UNL     1      22.699  35.096  12.025  1.00  0.00     0.163 HD
ATOM     51  C   UNL     1      20.794  33.387  12.651  1.00  0.00     0.114 C 
ATOM     52  O   UNL     1      19.721  34.516  10.838  1.00  0.00    -0.275 OA
ENDBRANCH   7  48
ENDBRANCH   1   2
BRANCH   1  53
ATOM     53  O   UNL     1      22.507  38.967   8.711  1.00  0.00    -0.388 OA
ATOM     54  H   UNL     1      22.289  39.899   8.452  1.00  0.00     0.211 HD
ENDBRANCH   1  53
BRANCH   1  55
ATOM     55  C   UNL     1      21.508  39.933  10.553  1.00  0.00     0.165 C 
BRANCH  55  56
ATOM     56  O   UNL     1      21.826  40.866   9.473  1.00  0.00    -0.388 OA
ATOM     57  H   UNL     1      20.901  41.139   9.171  1.00  0.00     0.211 HD
ENDBRANCH  55  56
BRANCH  55  58
ATOM     58  C   UNL     1      22.555  40.247  11.566  1.00  0.00     0.154 C 
BRANCH  58  59
ATOM     59  N   UNL     1      23.740  40.767  10.983  1.00  0.00    -0.319 N 
ATOM     60  C   UNL     1      24.979  40.424  11.642  1.00  0.00     0.407 C 
ATOM     61  H   UNL     1      23.836  41.369  10.146  1.00  0.00     0.167 HD
ATOM     62  O   UNL     1      24.957  39.693  12.673  1.00  0.00    -0.225 OA
BRANCH  60  63
ATOM     63  O   UNL     1      26.213  40.857  11.210  1.00  0.00    -0.443 OA
BRANCH  63  64
ATOM     64  C   UNL     1      27.370  40.976  12.011  1.00  0.00     0.294 C 
BRANCH  64  65
ATOM     65  C   UNL     1      28.437  40.001  11.646  1.00  0.00     0.120 A 
ATOM     66  C   UNL     1      29.410  39.451  12.448  1.00  0.00     0.138 A 
ATOM     67  N   UNL     1      28.608  39.489  10.424  1.00  0.00    -0.132 NA
ATOM     68  N   UNL     1      30.165  38.605  11.682  1.00  0.00    -0.252 N 
ATOM     69  N   UNL     1      29.641  38.667  10.481  1.00  0.00    -0.067 NA
BRANCH  68  70
ATOM     70  C   UNL     1      31.289  37.848  12.093  1.00  0.00     0.150 C 
BRANCH  70  71
ATOM     71  C   UNL     1      31.046  36.864  13.158  1.00  0.00     0.022 C 
BRANCH  71  72
ATOM     72  C   UNL     1      32.181  36.538  14.055  1.00  0.00     0.128 C 
BRANCH  72  73
ATOM     73  C   UNL     1      32.850  35.247  13.845  1.00  0.00     0.303 C 
ATOM     74  O   UNL     1      32.789  34.369  14.745  1.00  0.00    -0.252 OA
BRANCH  73  75
ATOM     75  O   UNL     1      33.559  34.927  12.695  1.00  0.00    -0.481 OA
ATOM     76  H   UNL     1      34.395  34.363  12.753  1.00  0.00     0.296 HD
ENDBRANCH  73  75
ENDBRANCH  72  73
ENDBRANCH  71  72
BRANCH  71  77
ATOM     77  C   UNL     1      30.268  35.651  12.730  1.00  0.00     0.009 C 
BRANCH  77  78
ATOM     78  C   UNL     1      29.077  35.256  13.478  1.00  0.00    -0.017 C 
ATOM     79  C   UNL     1      29.147  34.071  14.374  1.00  0.00     0.007 C 
ATOM     80  C   UNL     1      28.413  36.384  14.244  1.00  0.00     0.007 C 
ENDBRANCH  77  78
ENDBRANCH  71  77
ENDBRANCH  70  71
ENDBRANCH  68  70
ENDBRANCH  64  65
ENDBRANCH  63  64
ENDBRANCH  60  63
ENDBRANCH  58  59
ENDBRANCH  55  58
ENDBRANCH   1  55
TORSDOF 36
BEGIN_RES LYS A 131
REMARK  4 active torsions:
REMARK  status: ('A' for Active; 'I' for Inactive)
REMARK    1  A    between atoms: CA   and  CB  
REMARK    2  A    between atoms: CB   and  CG  
REMARK    3  A    between atoms: CG   and  CD  
REMARK    4  A    between atoms: CD   and  CE  
ROOT
ATOM      1  CA  LYS A 131      29.867  25.555  16.977  1.00 20.52     0.186 C 
ENDROOT
BRANCH   1   2
ATOM      2  CB  LYS A 131      28.345  25.722  17.026  1.00 20.94     0.034 C 
BRANCH   2   3
ATOM      3  CG  LYS A 131      27.600  24.409  16.838  1.00 22.96     0.005 C 
BRANCH   3   4
ATOM      4  CD  LYS A 131      26.606  24.159  17.938  1.00 24.33     0.041 C 
BRANCH   4   5
ATOM      5  CE  LYS A 131      25.674  23.022  17.533  1.00 26.91     0.338 C 
ATOM      6  NZ  LYS A 131      24.339  23.552  17.166  1.00 27.40     0.618 N 
ENDBRANCH   4   5
ENDBRANCH   3   4
ENDBRANCH   2   3
ENDBRANCH   1   2
END_RES LYS A 131
BEGIN_RES LYS A 135
REMARK  4 active torsions:
REMARK  status: ('A' for Active; 'I' for Inactive)
REMARK    5  A    between atoms: CA   and  CB  
REMARK    6  A    between atoms: CB   and  CG  
REMARK    7  A    between atoms: CG   and  CD  
REMARK    8  A    between atoms: CD   and  CE  
ROOT
ATOM      7  CA  LYS A 135      33.193  34.663   9.290  1.00 25.02     0.186 C 
ENDROOT
BRANCH   7   8
ATOM      8  CB  LYS A 135      32.060  35.360  10.034  1.00 26.63     0.034 C 
BRANCH   8   9
ATOM      9  CG  LYS A 135      30.793  35.478   9.228  1.00 29.45     0.005 C 
BRANCH   9  10
ATOM     10  CD  LYS A 135      30.123  34.121   9.078  1.00 32.00     0.041 C 
BRANCH  10  11
ATOM     11  CE  LYS A 135      28.787  34.103   9.795  1.00 34.25     0.338 C 
ATOM     12  NZ  LYS A 135      27.658  34.094   8.824  1.00 35.99     0.618 N 
ENDBRANCH  10  11
ENDBRANCH   9  10
ENDBRANCH   8   9
ENDBRANCH   7   8
END_RES LYS A 135
