REMARK VINA RESULT:    -2.998      3.523      7.305
REMARK INTER + INTRA:         -22.161
REMARK INTER:                 -10.466
REMARK INTRA:                 -11.695
REMARK UNBOUND:               -13.729
REMARK SMILES CCOC(CCn1cc(COC(=O)NC[C@@H](O)C(O)[C@@H]2O[C@@](OC[C@H]3O[C@@H](O[C@H]4[C@H](O)[C@@H](O)[C@H](OCCN=[N+]=[N-])O[C@@H]4CO)[C@H](O)[C@@H](O)[C@H]3O)(C(=O)O)C[C@H](O)[C@H]2NC(C)=O)nn1)OCC
REMARK SMILES IDX 18 1 20 2 22 3 54 4 21 5 55 6 57 7 23 8 24 9 25 10 27 11
REMARK SMILES IDX 26 12 45 13 47 14 49 15 28 16 29 17 42 18 41 19 34 20 30 21
REMARK SMILES IDX 32 22 43 23 44 24 35 26 36 27 37 28 38 29 39 30 40 31 31 32
REMARK SMILES IDX 33 34 46 36 48 38 50 40 51 42 52 43 53 44 56 46 58 48 59 49
REMARK SMILES IDX 60 51 61 52 19 53 16 55 17 56 15 58 14 59 12 60 13 62 11 63
REMARK SMILES IDX 10 64 9 65 8 66 62 67 7 68 63 69 6 70 5 71 4 72 3 73 2 74
REMARK SMILES IDX 1 75 64 76 65 77 66 78
REMARK H PARENT 44 25 31 33 33 35 46 37 48 39 50 41 53 45 56 47 58 50 19 54
REMARK H PARENT 17 57 14 61
REMARK Flexibility Score: inf
ROOT
ATOM      1  C   UNL     1      30.179  33.515  16.403  1.00  0.00     0.176 C 
ENDROOT
BRANCH   1   2
ATOM      2  C   UNL     1      29.026  32.727  16.950  1.00  0.00     0.178 C 
ATOM      3  C   UNL     1      27.358  31.220  16.405  1.00  0.00     0.272 C 
ATOM      4  C   UNL     1      27.176  31.301  17.879  1.00  0.00     0.113 C 
ATOM      5  O   UNL     1      28.397  32.045  15.920  1.00  0.00    -0.332 OA
ATOM      6  C   UNL     1      27.181  32.669  18.468  1.00  0.00     0.145 C 
ATOM      7  C   UNL     1      27.939  33.629  17.542  1.00  0.00     0.142 C 
BRANCH   3   8
ATOM      8  O   UNL     1      26.293  31.396  15.617  1.00  0.00    -0.338 OA
BRANCH   8   9
ATOM      9  C   UNL     1      25.035  31.306  16.084  1.00  0.00     0.199 C 
BRANCH   9  10
ATOM     10  C   UNL     1      24.030  31.735  15.038  1.00  0.00     0.179 C 
ATOM     11  C   UNL     1      23.288  33.386  13.708  1.00  0.00     0.282 C 
ATOM     12  O   UNL     1      24.457  32.790  14.254  1.00  0.00    -0.341 OA
ATOM     13  C   UNL     1      22.734  32.460  12.691  1.00  0.00     0.202 C 
ATOM     14  C   UNL     1      22.454  31.117  13.323  1.00  0.00     0.179 C 
ATOM     15  C   UNL     1      23.592  30.577  14.147  1.00  0.00     0.177 C 
BRANCH  11  16
ATOM     16  O   UNL     1      23.613  34.663  13.239  1.00  0.00    -0.341 OA
BRANCH  16  17
ATOM     17  C   UNL     1      24.826  35.022  13.734  1.00  0.00     0.184 C 
ATOM     18  C   UNL     1      24.949  36.302  14.468  1.00  0.00     0.178 C 
ATOM     19  O   UNL     1      26.143  36.267  15.201  1.00  0.00    -0.341 OA
ATOM     20  C   UNL     1      27.247  36.288  14.335  1.00  0.00     0.281 C 
ATOM     21  C   UNL     1      25.873  35.142  12.581  1.00  0.00     0.180 C 
ATOM     22  C   UNL     1      27.213  35.156  13.331  1.00  0.00     0.202 C 
BRANCH  18  23
ATOM     23  C   UNL     1      23.816  36.495  15.430  1.00  0.00     0.191 C 
BRANCH  23  24
ATOM     24  O   UNL     1      24.170  37.304  16.511  1.00  0.00    -0.394 OA
ATOM     25  H   UNL     1      25.132  37.418  16.602  1.00  0.00     0.210 HD
ENDBRANCH  23  24
ENDBRANCH  18  23
BRANCH  20  26
ATOM     26  O   UNL     1      28.371  36.123  15.125  1.00  0.00    -0.350 OA
BRANCH  26  27
ATOM     27  C   UNL     1      29.011  37.257  15.523  1.00  0.00     0.169 C 
BRANCH  27  28
ATOM     28  C   UNL     1      29.349  38.114  14.331  1.00  0.00     0.119 C 
BRANCH  28  29
ATOM     29  N   UNL     1      30.763  38.478  14.389  1.00  0.00    -0.092 NA
ATOM     30  N   UNL     1      31.096  39.113  15.411  1.00  0.00     0.001 N 
ATOM     31  N   UNL     1      31.541  40.034  16.100  1.00  0.00    -0.003 NA
ENDBRANCH  28  29
ENDBRANCH  27  28
ENDBRANCH  26  27
ENDBRANCH  20  26
BRANCH  21  32
ATOM     32  O   UNL     1      25.803  34.069  11.734  1.00  0.00    -0.387 OA
ATOM     33  H   UNL     1      24.958  34.032  11.223  1.00  0.00     0.211 HD
ENDBRANCH  21  32
BRANCH  22  34
ATOM     34  O   UNL     1      28.264  35.290  12.465  1.00  0.00    -0.385 OA
ATOM     35  H   UNL     1      27.913  35.084  11.543  1.00  0.00     0.211 HD
ENDBRANCH  22  34
ENDBRANCH  16  17
ENDBRANCH  11  16
BRANCH  13  36
ATOM     36  O   UNL     1      21.499  32.915  12.203  1.00  0.00    -0.385 OA
ATOM     37  H   UNL     1      20.757  32.665  12.799  1.00  0.00     0.211 HD
ENDBRANCH  13  36
BRANCH  14  38
ATOM     38  O   UNL     1      21.986  30.193  12.395  1.00  0.00    -0.387 OA
ATOM     39  H   UNL     1      22.734  29.794  11.874  1.00  0.00     0.211 HD
ENDBRANCH  14  38
BRANCH  15  40
ATOM     40  O   UNL     1      24.665  30.163  13.371  1.00  0.00    -0.387 OA
ATOM     41  H   UNL     1      25.027  30.909  12.843  1.00  0.00     0.211 HD
ENDBRANCH  15  40
ENDBRANCH   9  10
ENDBRANCH   8   9
ENDBRANCH   3   8
BRANCH   3  42
ATOM     42  C   UNL     1      27.868  29.840  16.121  1.00  0.00     0.364 C 
ATOM     43  O   UNL     1      27.277  28.825  16.534  1.00  0.00    -0.246 OA
BRANCH  42  44
ATOM     44  O   UNL     1      29.028  29.636  15.380  1.00  0.00    -0.477 OA
ATOM     45  H   UNL     1      29.772  30.322  15.455  1.00  0.00     0.296 HD
ENDBRANCH  42  44
ENDBRANCH   3  42
BRANCH   6  46
ATOM     46  O   UNL     1      25.943  33.168  18.786  1.00  0.00    -0.391 OA
ATOM     47  H   UNL     1      25.193  32.554  18.592  1.00  0.00     0.211 HD
ENDBRANCH   6  46
BRANCH   7  48
ATOM     48  N   UNL     1      28.457  34.761  18.239  1.00  0.00    -0.348 N 
ATOM     49  C   UNL     1      27.579  35.850  18.502  1.00  0.00     0.217 C 
ATOM     50  H   UNL     1      29.441  34.831  18.565  1.00  0.00     0.163 HD
ATOM     51  C   UNL     1      28.089  37.044  19.225  1.00  0.00     0.114 C 
ATOM     52  O   UNL     1      26.358  35.822  18.129  1.00  0.00    -0.275 OA
ENDBRANCH   7  48
ENDBRANCH   1   2
BRANCH   1  53
ATOM     53  O   UNL     1      31.305  33.157  17.167  1.00  0.00    -0.388 OA
ATOM     54  H   UNL     1      31.306  33.649  18.038  1.00  0.00     0.211 HD
ENDBRANCH   1  53
BRANCH   1  55
ATOM     55  C   UNL     1      30.441  33.037  14.989  1.00  0.00     0.165 C 
BRANCH  55  56
ATOM     56  O   UNL     1      31.200  31.903  14.982  1.00  0.00    -0.388 OA
ATOM     57  H   UNL     1      31.562  31.652  14.096  1.00  0.00     0.211 HD
ENDBRANCH  55  56
BRANCH  55  58
ATOM     58  C   UNL     1      31.099  34.122  14.183  1.00  0.00     0.154 C 
BRANCH  58  59
ATOM     59  N   UNL     1      31.576  35.249  14.930  1.00  0.00    -0.319 N 
ATOM     60  C   UNL     1      32.926  35.578  15.125  1.00  0.00     0.407 C 
ATOM     61  H   UNL     1      30.820  35.867  15.358  1.00  0.00     0.167 HD
ATOM     62  O   UNL     1      33.864  34.913  14.653  1.00  0.00    -0.225 OA
BRANCH  60  63
ATOM     63  O   UNL     1      33.283  36.712  15.890  1.00  0.00    -0.443 OA
BRANCH  63  64
ATOM     64  C   UNL     1      34.005  36.522  17.115  1.00  0.00     0.294 C 
BRANCH  64  65
ATOM     65  C   UNL     1      33.072  35.970  18.131  1.00  0.00     0.120 A 
ATOM     66  C   UNL     1      33.389  35.217  19.236  1.00  0.00     0.138 A 
ATOM     67  N   UNL     1      31.744  36.110  18.134  1.00  0.00    -0.132 NA
ATOM     68  N   UNL     1      32.228  34.932  19.863  1.00  0.00    -0.252 N 
ATOM     69  N   UNL     1      31.252  35.489  19.169  1.00  0.00    -0.067 NA
BRANCH  68  70
ATOM     70  C   UNL     1      32.132  34.160  21.067  1.00  0.00     0.151 C 
BRANCH  70  71
ATOM     71  C   UNL     1      31.879  32.695  20.856  1.00  0.00     0.086 C 
BRANCH  71  72
ATOM     72  C   UNL     1      32.627  31.901  21.927  1.00  0.00     0.251 C 
BRANCH  72  73
ATOM     73  O   UNL     1      33.854  32.515  22.086  1.00  0.00    -0.353 OA
BRANCH  73  74
ATOM     74  C   UNL     1      34.911  31.683  21.741  1.00  0.00     0.160 C 
ATOM     75  C   UNL     1      36.247  32.299  22.110  1.00  0.00     0.035 C 
ENDBRANCH  73  74
ENDBRANCH  72  73
BRANCH  72  76
ATOM     76  O   UNL     1      32.655  30.566  21.653  1.00  0.00    -0.353 OA
BRANCH  76  77
ATOM     77  C   UNL     1      31.548  30.021  21.061  1.00  0.00     0.160 C 
ATOM     78  C   UNL     1      31.911  28.679  20.469  1.00  0.00     0.035 C 
ENDBRANCH  76  77
ENDBRANCH  72  76
ENDBRANCH  71  72
ENDBRANCH  70  71
ENDBRANCH  68  70
ENDBRANCH  64  65
ENDBRANCH  63  64
ENDBRANCH  60  63
ENDBRANCH  58  59
ENDBRANCH  55  58
ENDBRANCH   1  55
TORSDOF 36
BEGIN_RES LYS A 131
REMARK  4 active torsions:
REMARK  status: ('A' for Active; 'I' for Inactive)
REMARK    1  A    between atoms: CA   and  CB  
REMARK    2  A    between atoms: CB   and  CG  
REMARK    3  A    between atoms: CG   and  CD  
REMARK    4  A    between atoms: CD   and  CE  
ROOT
ATOM      1  CA  LYS A 131      29.867  25.555  16.977  1.00 20.52     0.186 C 
ENDROOT
BRANCH   1   2
ATOM      2  CB  LYS A 131      28.345  25.722  17.026  1.00 20.94     0.034 C 
BRANCH   2   3
ATOM      3  CG  LYS A 131      27.601  24.401  16.900  1.00 22.96     0.005 C 
BRANCH   3   4
ATOM      4  CD  LYS A 131      26.155  24.526  17.290  1.00 24.33     0.041 C 
BRANCH   4   5
ATOM      5  CE  LYS A 131      25.963  25.777  18.142  1.00 26.91     0.338 C 
ATOM      6  NZ  LYS A 131      25.728  25.410  19.558  1.00 27.40     0.618 N 
ENDBRANCH   4   5
ENDBRANCH   3   4
ENDBRANCH   2   3
ENDBRANCH   1   2
END_RES LYS A 131
BEGIN_RES LYS A 135
REMARK  4 active torsions:
REMARK  status: ('A' for Active; 'I' for Inactive)
REMARK    5  A    between atoms: CA   and  CB  
REMARK    6  A    between atoms: CB   and  CG  
REMARK    7  A    between atoms: CG   and  CD  
REMARK    8  A    between atoms: CD   and  CE  
ROOT
ATOM      7  CA  LYS A 135      33.193  34.663   9.290  1.00 25.02     0.186 C 
ENDROOT
BRANCH   7   8
ATOM      8  CB  LYS A 135      32.060  35.360  10.034  1.00 26.63     0.034 C 
BRANCH   8   9
ATOM      9  CG  LYS A 135      30.883  35.701   9.157  1.00 29.45     0.005 C 
BRANCH   9  10
ATOM     10  CD  LYS A 135      30.389  34.466   8.418  1.00 32.00     0.041 C 
BRANCH  10  11
ATOM     11  CE  LYS A 135      28.874  34.463   8.339  1.00 34.25     0.338 C 
ATOM     12  NZ  LYS A 135      28.279  33.715   9.481  1.00 35.99     0.618 N 
ENDBRANCH  10  11
ENDBRANCH   9  10
ENDBRANCH   8   9
ENDBRANCH   7   8
END_RES LYS A 135
