REMARK VINA RESULT:    -4.063      4.608      7.849
REMARK INTER + INTRA:         -21.178
REMARK INTER:                 -10.643
REMARK INTRA:                 -10.535
REMARK UNBOUND:               -10.939
REMARK SMILES CC(=O)N[C@@H]1[C@@H](O)C[C@](OC[C@H]2O[C@@H](O[C@H]3[C@H](O)[C@@H](O)[C@H](OCCN=[N+]=[N-])O[C@@H]3CO)[C@H](O)[C@@H](O)[C@H]2O)(C(=O)O)O[C@H]1C(O)[C@H](O)CNC(=O)OCc1cn(Cc2ccsc2)nn1
REMARK SMILES IDX 9 1 8 2 6 3 5 4 42 5 41 6 10 7 11 8 12 9 14 10 13 11 32 12
REMARK SMILES IDX 34 13 36 14 15 15 16 16 29 17 28 18 21 19 17 20 19 21 30 22
REMARK SMILES IDX 31 23 22 25 23 26 24 27 25 28 26 29 27 30 18 31 20 33 33 35
REMARK SMILES IDX 35 37 37 39 38 41 39 42 40 43 7 45 43 47 44 48 45 50 46 51
REMARK SMILES IDX 47 53 48 54 49 55 50 57 51 58 52 59 53 60 54 61 63 62 55 63
REMARK SMILES IDX 62 64 56 65 57 66 58 67 61 68 59 69 60 70 4 71 2 72 1 74
REMARK SMILES IDX 3 75
REMARK H PARENT 31 24 18 32 20 34 33 36 35 38 37 40 40 44 7 46 44 49 46 52
REMARK H PARENT 48 56 4 73
REMARK Flexibility Score: inf
ROOT
ATOM      1  C   UNL     1      29.879  31.217  21.264  1.00  0.00     0.272 C 
ATOM      2  C   UNL     1      31.041  32.130  21.515  1.00  0.00     0.113 C 
ATOM      3  C   UNL     1      32.054  31.609  22.499  1.00  0.00     0.145 C 
ATOM      4  C   UNL     1      32.367  30.175  22.310  1.00  0.00     0.142 C 
ATOM      5  C   UNL     1      31.246  29.357  21.698  1.00  0.00     0.178 C 
ATOM      6  O   UNL     1      30.479  29.987  20.785  1.00  0.00    -0.332 OA
ENDROOT
BRANCH   1   7
ATOM      7  O   UNL     1      29.202  31.628  20.170  1.00  0.00    -0.338 OA
BRANCH   7   8
ATOM      8  C   UNL     1      27.922  31.416  19.929  1.00  0.00     0.199 C 
BRANCH   8   9
ATOM      9  C   UNL     1      27.363  30.973  18.642  1.00  0.00     0.179 C 
ATOM     10  C   UNL     1      27.666  31.460  16.441  1.00  0.00     0.282 C 
ATOM     11  O   UNL     1      28.371  31.285  17.654  1.00  0.00    -0.341 OA
ATOM     12  C   UNL     1      26.722  30.344  16.154  1.00  0.00     0.202 C 
ATOM     13  C   UNL     1      26.769  29.179  17.076  1.00  0.00     0.179 C 
ATOM     14  C   UNL     1      27.234  29.469  18.474  1.00  0.00     0.177 C 
BRANCH  10  15
ATOM     15  O   UNL     1      28.588  31.673  15.448  1.00  0.00    -0.341 OA
BRANCH  15  16
ATOM     16  C   UNL     1      29.478  32.727  15.717  1.00  0.00     0.184 C 
ATOM     17  C   UNL     1      28.764  33.987  16.056  1.00  0.00     0.178 C 
ATOM     18  O   UNL     1      28.562  34.885  15.054  1.00  0.00    -0.341 OA
ATOM     19  C   UNL     1      28.979  34.458  13.781  1.00  0.00     0.281 C 
ATOM     20  C   UNL     1      30.541  32.844  14.671  1.00  0.00     0.180 C 
ATOM     21  C   UNL     1      30.450  34.175  13.913  1.00  0.00     0.202 C 
BRANCH  17  22
ATOM     22  C   UNL     1      29.395  34.717  17.232  1.00  0.00     0.191 C 
BRANCH  22  23
ATOM     23  O   UNL     1      29.871  33.739  18.103  1.00  0.00    -0.394 OA
ATOM     24  H   UNL     1      30.597  34.095  18.696  1.00  0.00     0.210 HD
ENDBRANCH  22  23
ENDBRANCH  17  22
BRANCH  19  25
ATOM     25  O   UNL     1      28.644  35.443  12.892  1.00  0.00    -0.350 OA
BRANCH  25  26
ATOM     26  C   UNL     1      28.929  36.721  13.329  1.00  0.00     0.169 C 
BRANCH  26  27
ATOM     27  C   UNL     1      28.844  37.796  12.295  1.00  0.00     0.119 C 
BRANCH  27  28
ATOM     28  N   UNL     1      30.148  38.142  11.797  1.00  0.00    -0.092 NA
ATOM     29  N   UNL     1      31.119  37.475  12.185  1.00  0.00     0.001 N 
ATOM     30  N   UNL     1      32.222  36.943  12.311  1.00  0.00    -0.003 NA
ENDBRANCH  27  28
ENDBRANCH  26  27
ENDBRANCH  25  26
ENDBRANCH  19  25
BRANCH  20  31
ATOM     31  O   UNL     1      31.822  32.628  15.134  1.00  0.00    -0.387 OA
ATOM     32  H   UNL     1      31.829  32.010  15.894  1.00  0.00     0.211 HD
ENDBRANCH  20  31
BRANCH  21  33
ATOM     33  O   UNL     1      31.094  34.138  12.703  1.00  0.00    -0.385 OA
ATOM     34  H   UNL     1      31.621  33.302  12.575  1.00  0.00     0.211 HD
ENDBRANCH  21  33
ENDBRANCH  15  16
ENDBRANCH  10  15
BRANCH  12  35
ATOM     35  O   UNL     1      25.395  30.819  15.981  1.00  0.00    -0.385 OA
ATOM     36  H   UNL     1      24.855  30.132  15.509  1.00  0.00     0.211 HD
ENDBRANCH  12  35
BRANCH  13  37
ATOM     37  O   UNL     1      27.652  28.217  16.544  1.00  0.00    -0.387 OA
ATOM     38  H   UNL     1      27.240  27.837  15.734  1.00  0.00     0.211 HD
ENDBRANCH  13  37
BRANCH  14  39
ATOM     39  O   UNL     1      28.547  28.973  18.670  1.00  0.00    -0.387 OA
ATOM     40  H   UNL     1      29.077  29.367  17.911  1.00  0.00     0.211 HD
ENDBRANCH  14  39
ENDBRANCH   8   9
ENDBRANCH   7   8
ENDBRANCH   1   7
BRANCH   1  41
ATOM     41  C   UNL     1      29.140  30.808  22.458  1.00  0.00     0.364 C 
ATOM     42  O   UNL     1      28.956  31.556  23.437  1.00  0.00    -0.246 OA
BRANCH  41  43
ATOM     43  O   UNL     1      28.582  29.522  22.586  1.00  0.00    -0.477 OA
ATOM     44  H   UNL     1      29.133  28.695  22.404  1.00  0.00     0.296 HD
ENDBRANCH  41  43
ENDBRANCH   1  41
BRANCH   3  45
ATOM     45  O   UNL     1      33.231  32.354  22.216  1.00  0.00    -0.391 OA
ATOM     46  H   UNL     1      34.023  31.747  22.209  1.00  0.00     0.211 HD
ENDBRANCH   3  45
BRANCH   5  47
ATOM     47  C   UNL     1      31.891  28.174  20.935  1.00  0.00     0.176 C 
BRANCH  47  48
ATOM     48  O   UNL     1      31.969  28.499  19.583  1.00  0.00    -0.388 OA
ATOM     49  H   UNL     1      32.143  27.689  19.051  1.00  0.00     0.211 HD
ENDBRANCH  47  48
BRANCH  47  50
ATOM     50  C   UNL     1      30.997  26.995  21.082  1.00  0.00     0.165 C 
BRANCH  50  51
ATOM     51  O   UNL     1      29.752  27.297  20.532  1.00  0.00    -0.388 OA
ATOM     52  H   UNL     1      29.708  28.242  20.249  1.00  0.00     0.211 HD
ENDBRANCH  50  51
BRANCH  50  53
ATOM     53  C   UNL     1      30.775  26.549  22.503  1.00  0.00     0.154 C 
BRANCH  53  54
ATOM     54  N   UNL     1      29.392  26.500  22.873  1.00  0.00    -0.319 N 
ATOM     55  C   UNL     1      28.886  25.934  24.050  1.00  0.00     0.407 C 
ATOM     56  H   UNL     1      28.692  26.929  22.196  1.00  0.00     0.167 HD
ATOM     57  O   UNL     1      29.678  25.421  24.869  1.00  0.00    -0.225 OA
BRANCH  55  58
ATOM     58  O   UNL     1      27.527  25.955  24.283  1.00  0.00    -0.443 OA
BRANCH  58  59
ATOM     59  C   UNL     1      26.561  25.608  23.334  1.00  0.00     0.294 C 
BRANCH  59  60
ATOM     60  C   UNL     1      26.062  26.833  22.678  1.00  0.00     0.120 A 
ATOM     61  C   UNL     1      24.918  27.508  22.971  1.00  0.00     0.138 A 
ATOM     62  N   UNL     1      26.676  27.476  21.675  1.00  0.00    -0.132 NA
ATOM     63  N   UNL     1      24.857  28.558  22.134  1.00  0.00    -0.248 N 
ATOM     64  N   UNL     1      25.920  28.531  21.357  1.00  0.00    -0.067 NA
BRANCH  63  65
ATOM     65  C   UNL     1      23.801  29.538  22.108  1.00  0.00     0.182 C 
BRANCH  65  66
ATOM     66  C   UNL     1      24.434  30.935  22.112  1.00  0.00    -0.016 A 
ATOM     67  C   UNL     1      24.323  31.792  21.117  1.00  0.00     0.017 A 
ATOM     68  C   UNL     1      25.166  31.299  23.241  1.00  0.00     0.070 A 
ATOM     69  C   UNL     1      24.914  33.040  21.174  1.00  0.00     0.065 A 
ATOM     70  S   UNL     1      25.710  32.966  22.822  1.00  0.00    -0.152 S 
ENDBRANCH  65  66
ENDBRANCH  63  65
ENDBRANCH  59  60
ENDBRANCH  58  59
ENDBRANCH  55  58
ENDBRANCH  53  54
ENDBRANCH  50  53
ENDBRANCH  47  50
ENDBRANCH   5  47
BRANCH   4  71
ATOM     71  N   UNL     1      32.801  29.494  23.493  1.00  0.00    -0.348 N 
ATOM     72  C   UNL     1      34.170  29.283  23.799  1.00  0.00     0.217 C 
ATOM     73  H   UNL     1      32.098  29.129  24.173  1.00  0.00     0.163 HD
ATOM     74  C   UNL     1      34.634  28.573  25.031  1.00  0.00     0.114 C 
ATOM     75  O   UNL     1      34.994  29.738  22.953  1.00  0.00    -0.275 OA
ENDBRANCH   4  71
TORSDOF 31
BEGIN_RES LYS A 131
REMARK  4 active torsions:
REMARK  status: ('A' for Active; 'I' for Inactive)
REMARK    1  A    between atoms: CA   and  CB  
REMARK    2  A    between atoms: CB   and  CG  
REMARK    3  A    between atoms: CG   and  CD  
REMARK    4  A    between atoms: CD   and  CE  
ROOT
ATOM      1  CA  LYS A 131      29.867  25.555  16.977  1.00 20.52     0.186 C 
ENDROOT
BRANCH   1   2
ATOM      2  CB  LYS A 131      28.345  25.722  17.026  1.00 20.94     0.034 C 
BRANCH   2   3
ATOM      3  CG  LYS A 131      27.602  24.397  16.943  1.00 22.96     0.005 C 
BRANCH   3   4
ATOM      4  CD  LYS A 131      26.640  24.215  18.083  1.00 24.33     0.041 C 
BRANCH   4   5
ATOM      5  CE  LYS A 131      26.215  25.580  18.614  1.00 26.91     0.338 C 
ATOM      6  NZ  LYS A 131      24.959  26.022  17.964  1.00 27.40     0.618 N 
ENDBRANCH   4   5
ENDBRANCH   3   4
ENDBRANCH   2   3
ENDBRANCH   1   2
END_RES LYS A 131
BEGIN_RES LYS A 135
REMARK  4 active torsions:
REMARK  status: ('A' for Active; 'I' for Inactive)
REMARK    5  A    between atoms: CA   and  CB  
REMARK    6  A    between atoms: CB   and  CG  
REMARK    7  A    between atoms: CG   and  CD  
REMARK    8  A    between atoms: CD   and  CE  
ROOT
ATOM      7  CA  LYS A 135      33.193  34.663   9.290  1.00 25.02     0.186 C 
ENDROOT
BRANCH   7   8
ATOM      8  CB  LYS A 135      32.060  35.360  10.034  1.00 26.63     0.034 C 
BRANCH   8   9
ATOM      9  CG  LYS A 135      30.802  35.505   9.217  1.00 29.45     0.005 C 
BRANCH   9  10
ATOM     10  CD  LYS A 135      30.137  34.153   9.011  1.00 32.00     0.041 C 
BRANCH  10  11
ATOM     11  CE  LYS A 135      28.677  34.328   8.640  1.00 34.25     0.338 C 
ATOM     12  NZ  LYS A 135      27.787  33.683   9.645  1.00 35.99     0.618 N 
ENDBRANCH  10  11
ENDBRANCH   9  10
ENDBRANCH   8   9
ENDBRANCH   7   8
END_RES LYS A 135
