REMARK VINA RESULT:    -4.642      2.770      8.054
REMARK INTER + INTRA:         -22.911
REMARK INTER:                 -13.236
REMARK INTRA:                  -9.675
REMARK UNBOUND:               -11.213
REMARK SMILES CC(=O)N[C@@H]1[C@@H](O)C[C@](OC[C@H]2O[C@@H](O[C@H]3[C@H](O)[C@@H](O)[C@H](OCCN=[N+]=[N-])O[C@@H]3CO)[C@H](O)[C@@H](O)[C@H]2O)(C(=O)O)O[C@H]1C(O)[C@H](O)CNC(=O)OCc1cn(CC2=CC[C@H]3C[C@@H]2C3(C)C)nn1
REMARK SMILES IDX 9 1 8 2 6 3 5 4 42 5 41 6 10 7 11 8 12 9 14 10 13 11 32 12
REMARK SMILES IDX 34 13 36 14 15 15 16 16 29 17 28 18 21 19 17 20 19 21 30 22
REMARK SMILES IDX 31 23 22 25 23 26 24 27 25 28 26 29 27 30 18 31 20 33 33 35
REMARK SMILES IDX 35 37 37 39 38 41 39 42 40 43 7 45 43 47 44 48 45 50 46 51
REMARK SMILES IDX 47 53 48 54 49 55 50 57 51 58 52 59 53 60 54 61 67 62 55 63
REMARK SMILES IDX 66 64 56 65 57 66 58 67 62 68 59 69 61 70 63 71 60 72 64 73
REMARK SMILES IDX 65 74 4 75 2 76 1 78 3 79
REMARK H PARENT 31 24 18 32 20 34 33 36 35 38 37 40 40 44 7 46 44 49 46 52
REMARK H PARENT 48 56 4 77
REMARK Flexibility Score: inf
ROOT
ATOM      1  C   UNL     1      25.600  38.346   8.436  1.00  0.00     0.272 C 
ATOM      2  C   UNL     1      25.344  39.817   8.455  1.00  0.00     0.113 C 
ATOM      3  C   UNL     1      24.837  40.284   7.080  1.00  0.00     0.145 C 
ATOM      4  C   UNL     1      25.866  40.048   6.035  1.00  0.00     0.142 C 
ATOM      5  C   UNL     1      26.890  39.104   6.629  1.00  0.00     0.178 C 
ATOM      6  O   UNL     1      26.318  38.041   7.230  1.00  0.00    -0.332 OA
ENDROOT
BRANCH   1   7
ATOM      7  O   UNL     1      24.544  37.548   8.393  1.00  0.00    -0.338 OA
BRANCH   7   8
ATOM      8  C   UNL     1      24.444  36.271   8.656  1.00  0.00     0.199 C 
BRANCH   8   9
ATOM      9  C   UNL     1      23.526  35.635   9.612  1.00  0.00     0.179 C 
ATOM     10  C   UNL     1      23.504  34.987  11.833  1.00  0.00     0.282 C 
ATOM     11  O   UNL     1      24.102  35.832  10.905  1.00  0.00    -0.341 OA
ATOM     12  C   UNL     1      22.051  34.855  11.733  1.00  0.00     0.202 C 
ATOM     13  C   UNL     1      21.337  35.485  10.603  1.00  0.00     0.179 C 
ATOM     14  C   UNL     1      22.203  36.408   9.783  1.00  0.00     0.177 C 
BRANCH  10  15
ATOM     15  O   UNL     1      23.844  35.547  13.079  1.00  0.00    -0.341 OA
BRANCH  15  16
ATOM     16  C   UNL     1      24.707  34.745  13.804  1.00  0.00     0.184 C 
ATOM     17  C   UNL     1      24.219  34.602  15.217  1.00  0.00     0.178 C 
ATOM     18  O   UNL     1      25.174  34.134  16.103  1.00  0.00    -0.341 OA
ATOM     19  C   UNL     1      26.331  33.665  15.555  1.00  0.00     0.281 C 
ATOM     20  C   UNL     1      26.043  35.492  13.880  1.00  0.00     0.180 C 
ATOM     21  C   UNL     1      27.020  34.655  14.649  1.00  0.00     0.202 C 
BRANCH  17  22
ATOM     22  C   UNL     1      23.035  33.627  15.209  1.00  0.00     0.191 C 
BRANCH  22  23
ATOM     23  O   UNL     1      21.869  34.374  15.130  1.00  0.00    -0.394 OA
ATOM     24  H   UNL     1      22.078  35.219  14.627  1.00  0.00     0.210 HD
ENDBRANCH  22  23
ENDBRANCH  17  22
BRANCH  19  25
ATOM     25  O   UNL     1      26.131  32.472  14.848  1.00  0.00    -0.350 OA
BRANCH  25  26
ATOM     26  C   UNL     1      26.230  31.353  15.676  1.00  0.00     0.169 C 
BRANCH  26  27
ATOM     27  C   UNL     1      25.129  30.399  15.208  1.00  0.00     0.119 C 
BRANCH  27  28
ATOM     28  N   UNL     1      24.774  30.712  13.840  1.00  0.00    -0.092 NA
ATOM     29  N   UNL     1      24.035  30.004  13.180  1.00  0.00     0.001 N 
ATOM     30  N   UNL     1      23.397  29.189  12.503  1.00  0.00    -0.003 NA
ENDBRANCH  27  28
ENDBRANCH  26  27
ENDBRANCH  25  26
ENDBRANCH  19  25
BRANCH  20  31
ATOM     31  O   UNL     1      26.552  35.682  12.583  1.00  0.00    -0.387 OA
ATOM     32  H   UNL     1      27.247  36.376  12.587  1.00  0.00     0.211 HD
ENDBRANCH  20  31
BRANCH  21  33
ATOM     33  O   UNL     1      27.932  35.423  15.371  1.00  0.00    -0.385 OA
ATOM     34  H   UNL     1      27.460  36.247  15.684  1.00  0.00     0.211 HD
ENDBRANCH  21  33
ENDBRANCH  15  16
ENDBRANCH  10  15
BRANCH  12  35
ATOM     35  O   UNL     1      21.755  33.466  11.702  1.00  0.00    -0.385 OA
ATOM     36  H   UNL     1      21.391  33.156  12.570  1.00  0.00     0.211 HD
ENDBRANCH  12  35
BRANCH  13  37
ATOM     37  O   UNL     1      20.142  36.093  11.005  1.00  0.00    -0.387 OA
ATOM     38  H   UNL     1      19.387  35.760  10.449  1.00  0.00     0.211 HD
ENDBRANCH  13  37
BRANCH  14  39
ATOM     39  O   UNL     1      22.488  37.536  10.580  1.00  0.00    -0.387 OA
ATOM     40  H   UNL     1      22.105  38.348  10.166  1.00  0.00     0.211 HD
ENDBRANCH  14  39
ENDBRANCH   8   9
ENDBRANCH   7   8
ENDBRANCH   1   7
BRANCH   1  41
ATOM     41  C   UNL     1      26.611  37.987   9.464  1.00  0.00     0.364 C 
ATOM     42  O   UNL     1      26.329  38.113  10.708  1.00  0.00    -0.246 OA
BRANCH  41  43
ATOM     43  O   UNL     1      27.851  37.527   9.172  1.00  0.00    -0.477 OA
ATOM     44  H   UNL     1      28.378  36.814   9.649  1.00  0.00     0.296 HD
ENDBRANCH  41  43
ENDBRANCH   1  41
BRANCH   3  45
ATOM     45  O   UNL     1      23.769  39.415   6.809  1.00  0.00    -0.391 OA
ATOM     46  H   UNL     1      22.935  39.944   6.842  1.00  0.00     0.211 HD
ENDBRANCH   3  45
BRANCH   5  47
ATOM     47  C   UNL     1      27.823  38.572   5.538  1.00  0.00     0.176 C 
BRANCH  47  48
ATOM     48  O   UNL     1      27.397  37.347   5.094  1.00  0.00    -0.388 OA
ATOM     49  H   UNL     1      26.628  36.963   5.601  1.00  0.00     0.211 HD
ENDBRANCH  47  48
BRANCH  47  50
ATOM     50  C   UNL     1      29.238  38.513   6.032  1.00  0.00     0.165 C 
BRANCH  50  51
ATOM     51  O   UNL     1      29.301  37.356   6.860  1.00  0.00    -0.388 OA
ATOM     52  H   UNL     1      28.330  37.166   7.054  1.00  0.00     0.211 HD
ENDBRANCH  50  51
BRANCH  50  53
ATOM     53  C   UNL     1      29.573  39.668   6.921  1.00  0.00     0.154 C 
BRANCH  53  54
ATOM     54  N   UNL     1      30.191  39.320   8.159  1.00  0.00    -0.319 N 
ATOM     55  C   UNL     1      31.427  39.901   8.529  1.00  0.00     0.407 C 
ATOM     56  H   UNL     1      29.713  38.634   8.795  1.00  0.00     0.167 HD
ATOM     57  O   UNL     1      31.983  40.716   7.780  1.00  0.00    -0.225 OA
BRANCH  55  58
ATOM     58  O   UNL     1      32.034  39.574   9.727  1.00  0.00    -0.443 OA
BRANCH  58  59
ATOM     59  C   UNL     1      31.519  39.767  11.001  1.00  0.00     0.294 C 
BRANCH  59  60
ATOM     60  C   UNL     1      30.779  38.597  11.556  1.00  0.00     0.120 A 
ATOM     61  C   UNL     1      31.293  37.404  12.004  1.00  0.00     0.138 A 
ATOM     62  N   UNL     1      29.431  38.505  11.730  1.00  0.00    -0.132 NA
ATOM     63  N   UNL     1      30.286  36.635  12.427  1.00  0.00    -0.248 N 
ATOM     64  N   UNL     1      29.175  37.323  12.250  1.00  0.00    -0.067 NA
BRANCH  63  65
ATOM     65  C   UNL     1      30.382  35.276  12.991  1.00  0.00     0.177 C 
BRANCH  65  66
ATOM     66  C   UNL     1      31.543  35.328  13.941  1.00  0.00    -0.049 C 
ATOM     67  C   UNL     1      32.771  34.934  13.547  1.00  0.00    -0.025 C 
ATOM     68  C   UNL     1      31.410  35.805  15.325  1.00  0.00     0.023 C 
ATOM     69  C   UNL     1      33.853  34.851  14.552  1.00  0.00     0.031 C 
ATOM     70  C   UNL     1      32.626  36.702  15.596  1.00  0.00     0.013 C 
ATOM     71  C   UNL     1      32.022  34.807  16.260  1.00  0.00    -0.026 C 
ATOM     72  C   UNL     1      33.385  35.397  15.871  1.00  0.00    -0.000 C 
ATOM     73  C   UNL     1      31.766  35.075  17.724  1.00  0.00     0.012 C 
ATOM     74  C   UNL     1      31.842  33.362  15.940  1.00  0.00     0.012 C 
ENDBRANCH  65  66
ENDBRANCH  63  65
ENDBRANCH  59  60
ENDBRANCH  58  59
ENDBRANCH  55  58
ENDBRANCH  53  54
ENDBRANCH  50  53
ENDBRANCH  47  50
ENDBRANCH   5  47
BRANCH   4  75
ATOM     75  N   UNL     1      26.558  41.186   5.539  1.00  0.00    -0.348 N 
ATOM     76  C   UNL     1      26.397  41.787   4.283  1.00  0.00     0.217 C 
ATOM     77  H   UNL     1      27.268  41.615   6.202  1.00  0.00     0.163 HD
ATOM     78  C   UNL     1      27.190  42.981   3.892  1.00  0.00     0.114 C 
ATOM     79  O   UNL     1      25.563  41.275   3.516  1.00  0.00    -0.275 OA
ENDBRANCH   4  75
TORSDOF 31
BEGIN_RES LYS A 131
REMARK  4 active torsions:
REMARK  status: ('A' for Active; 'I' for Inactive)
REMARK    1  A    between atoms: CA   and  CB  
REMARK    2  A    between atoms: CB   and  CG  
REMARK    3  A    between atoms: CG   and  CD  
REMARK    4  A    between atoms: CD   and  CE  
ROOT
ATOM      1  CA  LYS A 131      29.867  25.555  16.977  1.00 20.52     0.186 C 
ENDROOT
BRANCH   1   2
ATOM      2  CB  LYS A 131      28.345  25.722  17.026  1.00 20.94     0.034 C 
BRANCH   2   3
ATOM      3  CG  LYS A 131      27.599  24.481  16.561  1.00 22.96     0.005 C 
BRANCH   3   4
ATOM      4  CD  LYS A 131      26.851  23.816  17.683  1.00 24.33     0.041 C 
BRANCH   4   5
ATOM      5  CE  LYS A 131      25.369  23.737  17.330  1.00 26.91     0.338 C 
ATOM      6  NZ  LYS A 131      24.807  22.429  17.743  1.00 27.40     0.618 N 
ENDBRANCH   4   5
ENDBRANCH   3   4
ENDBRANCH   2   3
ENDBRANCH   1   2
END_RES LYS A 131
BEGIN_RES LYS A 135
REMARK  4 active torsions:
REMARK  status: ('A' for Active; 'I' for Inactive)
REMARK    5  A    between atoms: CA   and  CB  
REMARK    6  A    between atoms: CB   and  CG  
REMARK    7  A    between atoms: CG   and  CD  
REMARK    8  A    between atoms: CD   and  CE  
ROOT
ATOM      7  CA  LYS A 135      33.193  34.663   9.290  1.00 25.02     0.186 C 
ENDROOT
BRANCH   7   8
ATOM      8  CB  LYS A 135      32.060  35.360  10.034  1.00 26.63     0.034 C 
BRANCH   8   9
ATOM      9  CG  LYS A 135      30.792  35.476   9.228  1.00 29.45     0.005 C 
BRANCH   9  10
ATOM     10  CD  LYS A 135      30.063  34.143   9.179  1.00 32.00     0.041 C 
BRANCH  10  11
ATOM     11  CE  LYS A 135      28.721  34.243   9.880  1.00 34.25     0.338 C 
ATOM     12  NZ  LYS A 135      27.599  34.160   8.904  1.00 35.99     0.618 N 
ENDBRANCH  10  11
ENDBRANCH   9  10
ENDBRANCH   8   9
ENDBRANCH   7   8
END_RES LYS A 135
