REMARK VINA RESULT:    -3.748      4.834      9.564
REMARK INTER + INTRA:         -22.178
REMARK INTER:                  -9.693
REMARK INTRA:                 -12.485
REMARK UNBOUND:               -11.857
REMARK SMILES CC[N+](C)(CC)CCCn1cc(COC(=O)NC[C@@H](O)C(O)[C@@H]2O[C@@](OC[C@H]3O[C@@H](O[C@H]4[C@H](O)[C@@H](O)[C@H](OCCN=[N+]=[N-])O[C@@H]4CO)[C@H](O)[C@@H](O)[C@H]3O)(C(=O)O)C[C@H](O)[C@H]2NC(C)=O)nn1
REMARK SMILES IDX 21 1 23 2 25 3 57 4 24 5 58 6 60 7 26 8 27 9 28 10 30 11
REMARK SMILES IDX 29 12 48 13 50 14 52 15 31 16 32 17 45 18 44 19 37 20 33 21
REMARK SMILES IDX 35 22 46 23 47 24 38 26 39 27 40 28 41 29 42 30 43 31 34 32
REMARK SMILES IDX 36 34 49 36 51 38 53 40 54 42 55 43 56 44 59 46 61 48 62 49
REMARK SMILES IDX 63 51 64 52 22 53 19 55 20 56 18 58 17 59 15 60 16 62 14 63
REMARK SMILES IDX 13 64 12 65 11 66 65 67 10 68 66 69 9 70 8 71 7 72 3 73 4 74
REMARK SMILES IDX 2 75 1 76 5 77 6 78
REMARK H PARENT 47 25 34 33 36 35 49 37 51 39 53 41 56 45 59 47 61 50 22 54
REMARK H PARENT 20 57 17 61
REMARK Flexibility Score: inf
ROOT
ATOM      1  C   UNL     1      27.370  36.386  14.398  1.00  0.00     0.176 C 
ENDROOT
BRANCH   1   2
ATOM      2  C   UNL     1      25.983  35.755  14.487  1.00  0.00     0.178 C 
ATOM      3  C   UNL     1      24.154  35.233  13.092  1.00  0.00     0.272 C 
ATOM      4  C   UNL     1      23.351  35.499  14.322  1.00  0.00     0.113 C 
ATOM      5  O   UNL     1      25.371  35.948  13.269  1.00  0.00    -0.332 OA
ATOM      6  C   UNL     1      23.843  36.701  15.086  1.00  0.00     0.145 C 
ATOM      7  C   UNL     1      25.234  36.377  15.622  1.00  0.00     0.142 C 
BRANCH   3   8
ATOM      8  O   UNL     1      23.632  35.795  11.946  1.00  0.00    -0.338 OA
BRANCH   8   9
ATOM      9  C   UNL     1      24.434  36.417  11.067  1.00  0.00     0.199 C 
BRANCH   9  10
ATOM     10  C   UNL     1      23.987  37.886  10.848  1.00  0.00     0.179 C 
ATOM     11  C   UNL     1      25.223  38.491   8.933  1.00  0.00     0.282 C 
ATOM     12  O   UNL     1      24.930  38.650  10.281  1.00  0.00    -0.341 OA
ATOM     13  C   UNL     1      24.062  38.088   8.106  1.00  0.00     0.202 C 
ATOM     14  C   UNL     1      22.836  38.706   8.813  1.00  0.00     0.179 C 
ATOM     15  C   UNL     1      22.672  37.877  10.067  1.00  0.00     0.177 C 
BRANCH  11  16
ATOM     16  O   UNL     1      26.391  37.731   8.774  1.00  0.00    -0.341 OA
BRANCH  16  17
ATOM     17  C   UNL     1      27.491  38.498   8.527  1.00  0.00     0.184 C 
ATOM     18  C   UNL     1      28.267  38.304   7.298  1.00  0.00     0.178 C 
ATOM     19  O   UNL     1      29.144  39.361   7.133  1.00  0.00    -0.341 OA
ATOM     20  C   UNL     1      29.483  40.117   8.197  1.00  0.00     0.281 C 
ATOM     21  C   UNL     1      28.512  38.358   9.681  1.00  0.00     0.180 C 
ATOM     22  C   UNL     1      29.554  39.436   9.540  1.00  0.00     0.202 C 
BRANCH  18  23
ATOM     23  C   UNL     1      27.473  38.167   6.013  1.00  0.00     0.191 C 
BRANCH  23  24
ATOM     24  O   UNL     1      26.642  37.054   5.994  1.00  0.00    -0.394 OA
ATOM     25  H   UNL     1      26.076  37.144   5.161  1.00  0.00     0.210 HD
ENDBRANCH  23  24
ENDBRANCH  18  23
BRANCH  20  26
ATOM     26  O   UNL     1      28.751  41.290   8.235  1.00  0.00    -0.350 OA
BRANCH  26  27
ATOM     27  C   UNL     1      28.563  41.836   9.462  1.00  0.00     0.169 C 
BRANCH  27  28
ATOM     28  C   UNL     1      27.109  42.084   9.806  1.00  0.00     0.119 C 
BRANCH  28  29
ATOM     29  N   UNL     1      26.442  42.699   8.670  1.00  0.00    -0.092 NA
ATOM     30  N   UNL     1      25.516  42.163   8.067  1.00  0.00     0.001 N 
ATOM     31  N   UNL     1      24.570  41.653   7.462  1.00  0.00    -0.003 NA
ENDBRANCH  28  29
ENDBRANCH  27  28
ENDBRANCH  26  27
ENDBRANCH  20  26
BRANCH  21  32
ATOM     32  O   UNL     1      27.791  38.384  10.852  1.00  0.00    -0.387 OA
ATOM     33  H   UNL     1      26.889  38.734  10.785  1.00  0.00     0.211 HD
ENDBRANCH  21  32
BRANCH  22  34
ATOM     34  O   UNL     1      30.800  38.890   9.806  1.00  0.00    -0.385 OA
ATOM     35  H   UNL     1      30.770  37.938  10.087  1.00  0.00     0.211 HD
ENDBRANCH  22  34
ENDBRANCH  16  17
ENDBRANCH  11  16
BRANCH  13  36
ATOM     36  O   UNL     1      24.070  38.637   6.814  1.00  0.00    -0.385 OA
ATOM     37  H   UNL     1      23.930  37.895   6.186  1.00  0.00     0.211 HD
ENDBRANCH  13  36
BRANCH  14  38
ATOM     38  O   UNL     1      21.716  38.580   7.993  1.00  0.00    -0.387 OA
ATOM     39  H   UNL     1      21.897  39.100   7.183  1.00  0.00     0.211 HD
ENDBRANCH  14  38
BRANCH  15  40
ATOM     40  O   UNL     1      22.468  36.568   9.637  1.00  0.00    -0.387 OA
ATOM     41  H   UNL     1      23.012  35.896  10.074  1.00  0.00     0.211 HD
ENDBRANCH  15  40
ENDBRANCH   9  10
ENDBRANCH   8   9
ENDBRANCH   3   8
BRANCH   3  42
ATOM     42  C   UNL     1      24.460  33.813  12.852  1.00  0.00     0.364 C 
ATOM     43  O   UNL     1      25.479  33.455  12.220  1.00  0.00    -0.246 OA
BRANCH  42  44
ATOM     44  O   UNL     1      23.630  32.822  13.317  1.00  0.00    -0.477 OA
ATOM     45  H   UNL     1      22.941  32.968  14.052  1.00  0.00     0.296 HD
ENDBRANCH  42  44
ENDBRANCH   3  42
BRANCH   6  46
ATOM     46  O   UNL     1      23.899  37.847  14.330  1.00  0.00    -0.391 OA
ATOM     47  H   UNL     1      24.817  38.258  14.338  1.00  0.00     0.211 HD
ENDBRANCH   6  46
BRANCH   7  48
ATOM     48  N   UNL     1      25.005  35.352  16.654  1.00  0.00    -0.348 N 
ATOM     49  C   UNL     1      25.823  35.271  17.814  1.00  0.00     0.217 C 
ATOM     50  H   UNL     1      24.250  34.639  16.591  1.00  0.00     0.163 HD
ATOM     51  C   UNL     1      25.626  34.257  18.880  1.00  0.00     0.114 C 
ATOM     52  O   UNL     1      26.746  36.094  17.941  1.00  0.00    -0.275 OA
ENDBRANCH   7  48
ENDBRANCH   1   2
BRANCH   1  53
ATOM     53  O   UNL     1      28.241  35.680  15.297  1.00  0.00    -0.388 OA
ATOM     54  H   UNL     1      27.930  34.737  15.298  1.00  0.00     0.211 HD
ENDBRANCH   1  53
BRANCH   1  55
ATOM     55  C   UNL     1      27.345  37.804  14.868  1.00  0.00     0.165 C 
BRANCH  55  56
ATOM     56  O   UNL     1      26.976  38.536  13.664  1.00  0.00    -0.388 OA
ATOM     57  H   UNL     1      26.392  39.300  13.960  1.00  0.00     0.211 HD
ENDBRANCH  55  56
BRANCH  55  58
ATOM     58  C   UNL     1      28.613  38.390  15.368  1.00  0.00     0.154 C 
BRANCH  58  59
ATOM     59  N   UNL     1      29.866  37.940  14.959  1.00  0.00    -0.319 N 
ATOM     60  C   UNL     1      30.506  38.127  13.711  1.00  0.00     0.407 C 
ATOM     61  H   UNL     1      30.450  37.358  15.690  1.00  0.00     0.167 HD
ATOM     62  O   UNL     1      30.004  38.754  12.766  1.00  0.00    -0.225 OA
BRANCH  60  63
ATOM     63  O   UNL     1      31.790  37.572  13.489  1.00  0.00    -0.443 OA
BRANCH  63  64
ATOM     64  C   UNL     1      31.884  36.542  12.486  1.00  0.00     0.294 C 
BRANCH  64  65
ATOM     65  C   UNL     1      31.402  35.313  13.220  1.00  0.00     0.120 A 
ATOM     66  C   UNL     1      32.041  34.667  14.251  1.00  0.00     0.138 A 
ATOM     67  N   UNL     1      30.256  34.644  13.057  1.00  0.00    -0.132 NA
ATOM     68  N   UNL     1      31.253  33.628  14.678  1.00  0.00    -0.252 N 
ATOM     69  N   UNL     1      30.173  33.651  13.918  1.00  0.00    -0.067 NA
BRANCH  68  70
ATOM     70  C   UNL     1      31.555  32.733  15.781  1.00  0.00     0.152 C 
BRANCH  70  71
ATOM     71  C   UNL     1      30.586  32.833  16.878  1.00  0.00     0.085 C 
BRANCH  71  72
ATOM     72  C   UNL     1      29.877  31.638  17.365  1.00  0.00     0.265 C 
BRANCH  72  73
ATOM     73  N   UNL     1      28.591  31.333  16.833  1.00  0.00    -0.326 N 
ATOM     74  C   UNL     1      28.711  30.415  15.733  1.00  0.00     0.334 C 
BRANCH  73  75
ATOM     75  C   UNL     1      27.779  32.462  16.478  1.00  0.00     0.260 C 
ATOM     76  C   UNL     1      26.627  32.101  15.571  1.00  0.00     0.071 C 
ENDBRANCH  73  75
BRANCH  73  77
ATOM     77  C   UNL     1      27.886  30.582  17.886  1.00  0.00     0.260 C 
ATOM     78  C   UNL     1      28.435  30.797  19.252  1.00  0.00     0.071 C 
ENDBRANCH  73  77
ENDBRANCH  72  73
ENDBRANCH  71  72
ENDBRANCH  70  71
ENDBRANCH  68  70
ENDBRANCH  64  65
ENDBRANCH  63  64
ENDBRANCH  60  63
ENDBRANCH  58  59
ENDBRANCH  55  58
ENDBRANCH   1  55
TORSDOF 35
BEGIN_RES LYS A 131
REMARK  4 active torsions:
REMARK  status: ('A' for Active; 'I' for Inactive)
REMARK    1  A    between atoms: CA   and  CB  
REMARK    2  A    between atoms: CB   and  CG  
REMARK    3  A    between atoms: CG   and  CD  
REMARK    4  A    between atoms: CD   and  CE  
ROOT
ATOM      1  CA  LYS A 131      29.867  25.555  16.977  1.00 20.52     0.186 C 
ENDROOT
BRANCH   1   2
ATOM      2  CB  LYS A 131      28.345  25.722  17.026  1.00 20.94     0.034 C 
BRANCH   2   3
ATOM      3  CG  LYS A 131      27.601  24.405  16.869  1.00 22.96     0.005 C 
BRANCH   3   4
ATOM      4  CD  LYS A 131      26.167  24.509  17.309  1.00 24.33     0.041 C 
BRANCH   4   5
ATOM      5  CE  LYS A 131      26.076  25.403  18.541  1.00 26.91     0.338 C 
ATOM      6  NZ  LYS A 131      25.513  24.652  19.688  1.00 27.40     0.618 N 
ENDBRANCH   4   5
ENDBRANCH   3   4
ENDBRANCH   2   3
ENDBRANCH   1   2
END_RES LYS A 131
BEGIN_RES LYS A 135
REMARK  4 active torsions:
REMARK  status: ('A' for Active; 'I' for Inactive)
REMARK    5  A    between atoms: CA   and  CB  
REMARK    6  A    between atoms: CB   and  CG  
REMARK    7  A    between atoms: CG   and  CD  
REMARK    8  A    between atoms: CD   and  CE  
ROOT
ATOM      7  CA  LYS A 135      33.193  34.663   9.290  1.00 25.02     0.186 C 
ENDROOT
BRANCH   7   8
ATOM      8  CB  LYS A 135      32.060  35.360  10.034  1.00 26.63     0.034 C 
BRANCH   8   9
ATOM      9  CG  LYS A 135      30.776  35.430   9.248  1.00 29.45     0.005 C 
BRANCH   9  10
ATOM     10  CD  LYS A 135      30.187  34.041   9.057  1.00 32.00     0.041 C 
BRANCH  10  11
ATOM     11  CE  LYS A 135      28.715  34.032   9.423  1.00 34.25     0.338 C 
ATOM     12  NZ  LYS A 135      27.891  34.642   8.343  1.00 35.99     0.618 N 
ENDBRANCH  10  11
ENDBRANCH   9  10
ENDBRANCH   8   9
ENDBRANCH   7   8
END_RES LYS A 135
