REMARK VINA RESULT:    -4.893      4.450      9.929
REMARK INTER + INTRA:         -21.731
REMARK INTER:                 -13.058
REMARK INTRA:                  -8.673
REMARK UNBOUND:                -9.116
REMARK SMILES CC(=O)N[C@@H]1[C@@H](O)C[C@](OC[C@H]2O[C@@H](O[C@H]3[C@H](O)[C@@H](O)[C@H](OCCN=[N+]=[N-])O[C@@H]3CO)[C@H](O)[C@@H](O)[C@H]2O)(C(=O)O)O[C@H]1C(O)[C@H](O)CNC(=O)OCc1cn(CCC2OCCO2)nn1
REMARK SMILES IDX 9 1 8 2 6 3 5 4 42 5 41 6 10 7 11 8 12 9 14 10 13 11 32 12
REMARK SMILES IDX 34 13 36 14 15 15 16 16 29 17 28 18 21 19 17 20 19 21 30 22
REMARK SMILES IDX 31 23 22 25 23 26 24 27 25 28 26 29 27 30 18 31 20 33 33 35
REMARK SMILES IDX 35 37 37 39 38 41 39 42 40 43 7 45 43 47 44 48 45 50 46 51
REMARK SMILES IDX 47 53 48 54 49 55 50 57 51 58 52 59 53 60 54 61 64 62 55 63
REMARK SMILES IDX 63 64 56 65 57 66 58 67 59 68 62 69 60 70 61 71 4 72 2 73
REMARK SMILES IDX 1 75 3 76
REMARK H PARENT 31 24 18 32 20 34 33 36 35 38 37 40 40 44 7 46 44 49 46 52
REMARK H PARENT 48 56 4 74
REMARK Flexibility Score: inf
ROOT
ATOM      1  C   UNL     1      26.882  37.775   8.337  1.00  0.00     0.272 C 
ATOM      2  C   UNL     1      26.624  37.633   6.792  1.00  0.00     0.113 C 
ATOM      3  C   UNL     1      27.651  38.340   6.014  1.00  0.00     0.145 C 
ATOM      4  C   UNL     1      29.021  37.787   6.353  1.00  0.00     0.142 C 
ATOM      5  C   UNL     1      29.050  37.122   7.687  1.00  0.00     0.178 C 
ATOM      6  O   UNL     1      28.208  37.583   8.636  1.00  0.00    -0.332 OA
ENDROOT
BRANCH   1   7
ATOM      7  O   UNL     1      26.138  36.792   8.844  1.00  0.00    -0.338 OA
BRANCH   7   8
ATOM      8  C   UNL     1      24.977  36.331   8.438  1.00  0.00     0.199 C 
BRANCH   8   9
ATOM      9  C   UNL     1      23.683  36.842   8.987  1.00  0.00     0.179 C 
ATOM     10  C   UNL     1      21.391  36.368   8.962  1.00  0.00     0.282 C 
ATOM     11  O   UNL     1      22.619  36.252   8.344  1.00  0.00    -0.341 OA
ATOM     12  C   UNL     1      21.313  37.351  10.071  1.00  0.00     0.202 C 
ATOM     13  C   UNL     1      22.454  37.262  11.047  1.00  0.00     0.179 C 
ATOM     14  C   UNL     1      23.535  36.411  10.468  1.00  0.00     0.177 C 
BRANCH  10  15
ATOM     15  O   UNL     1      20.927  35.086   9.259  1.00  0.00    -0.341 OA
BRANCH  15  16
ATOM     16  C   UNL     1      19.544  34.990   9.308  1.00  0.00     0.184 C 
ATOM     17  C   UNL     1      19.022  34.138  10.423  1.00  0.00     0.178 C 
ATOM     18  O   UNL     1      17.627  34.204  10.394  1.00  0.00    -0.341 OA
ATOM     19  C   UNL     1      17.070  33.598   9.277  1.00  0.00     0.281 C 
ATOM     20  C   UNL     1      19.043  34.295   8.009  1.00  0.00     0.180 C 
ATOM     21  C   UNL     1      17.526  34.418   8.074  1.00  0.00     0.202 C 
BRANCH  17  22
ATOM     22  C   UNL     1      19.431  34.744  11.754  1.00  0.00     0.191 C 
BRANCH  22  23
ATOM     23  O   UNL     1      20.734  34.246  12.004  1.00  0.00    -0.394 OA
ATOM     24  H   UNL     1      20.955  33.472  11.444  1.00  0.00     0.210 HD
ENDBRANCH  22  23
ENDBRANCH  17  22
BRANCH  19  25
ATOM     25  O   UNL     1      15.709  33.615   9.398  1.00  0.00    -0.350 OA
BRANCH  25  26
ATOM     26  C   UNL     1      15.099  32.400   9.525  1.00  0.00     0.169 C 
BRANCH  26  27
ATOM     27  C   UNL     1      14.313  31.952   8.312  1.00  0.00     0.119 C 
BRANCH  27  28
ATOM     28  N   UNL     1      14.957  30.809   7.692  1.00  0.00    -0.092 NA
ATOM     29  N   UNL     1      16.126  30.824   7.315  1.00  0.00     0.001 N 
ATOM     30  N   UNL     1      17.321  30.699   7.062  1.00  0.00    -0.003 NA
ENDBRANCH  27  28
ENDBRANCH  26  27
ENDBRANCH  25  26
ENDBRANCH  19  25
BRANCH  20  31
ATOM     31  O   UNL     1      19.531  34.987   6.928  1.00  0.00    -0.387 OA
ATOM     32  H   UNL     1      18.796  35.103   6.266  1.00  0.00     0.211 HD
ENDBRANCH  20  31
BRANCH  21  33
ATOM     33  O   UNL     1      17.022  33.927   6.888  1.00  0.00    -0.385 OA
ATOM     34  H   UNL     1      16.477  33.125   7.091  1.00  0.00     0.211 HD
ENDBRANCH  21  33
ENDBRANCH  15  16
ENDBRANCH  10  15
BRANCH  12  35
ATOM     35  O   UNL     1      21.216  38.657   9.529  1.00  0.00    -0.385 OA
ATOM     36  H   UNL     1      20.908  39.224  10.285  1.00  0.00     0.211 HD
ENDBRANCH  12  35
BRANCH  13  37
ATOM     37  O   UNL     1      22.034  36.824  12.303  1.00  0.00    -0.387 OA
ATOM     38  H   UNL     1      22.640  37.227  12.979  1.00  0.00     0.211 HD
ENDBRANCH  13  37
BRANCH  14  39
ATOM     39  O   UNL     1      23.277  35.057  10.511  1.00  0.00    -0.387 OA
ATOM     40  H   UNL     1      22.588  34.757   9.867  1.00  0.00     0.211 HD
ENDBRANCH  14  39
ENDBRANCH   8   9
ENDBRANCH   7   8
ENDBRANCH   1   7
BRANCH   1  41
ATOM     41  C   UNL     1      26.562  39.179   8.593  1.00  0.00     0.364 C 
ATOM     42  O   UNL     1      27.123  39.783   9.598  1.00  0.00    -0.246 OA
BRANCH  41  43
ATOM     43  O   UNL     1      25.716  40.007   7.891  1.00  0.00    -0.477 OA
ATOM     44  H   UNL     1      24.716  39.928   8.015  1.00  0.00     0.296 HD
ENDBRANCH  41  43
ENDBRANCH   1  41
BRANCH   3  45
ATOM     45  O   UNL     1      27.358  38.085   4.642  1.00  0.00    -0.391 OA
ATOM     46  H   UNL     1      28.054  37.428   4.332  1.00  0.00     0.211 HD
ENDBRANCH   3  45
BRANCH   5  47
ATOM     47  C   UNL     1      29.063  35.632   7.521  1.00  0.00     0.176 C 
BRANCH  47  48
ATOM     48  O   UNL     1      29.604  35.222   6.293  1.00  0.00    -0.388 OA
ATOM     49  H   UNL     1      29.611  34.222   6.224  1.00  0.00     0.211 HD
ENDBRANCH  47  48
BRANCH  47  50
ATOM     50  C   UNL     1      30.035  34.998   8.557  1.00  0.00     0.165 C 
BRANCH  50  51
ATOM     51  O   UNL     1      31.111  34.476   7.878  1.00  0.00    -0.388 OA
ATOM     52  H   UNL     1      31.591  33.780   8.363  1.00  0.00     0.211 HD
ENDBRANCH  50  51
BRANCH  50  53
ATOM     53  C   UNL     1      29.260  34.086   9.417  1.00  0.00     0.154 C 
BRANCH  53  54
ATOM     54  N   UNL     1      28.138  34.733  10.022  1.00  0.00    -0.319 N 
ATOM     55  C   UNL     1      28.057  35.087  11.368  1.00  0.00     0.407 C 
ATOM     56  H   UNL     1      27.325  34.950   9.393  1.00  0.00     0.167 HD
ATOM     57  O   UNL     1      28.983  34.844  12.157  1.00  0.00    -0.225 OA
BRANCH  55  58
ATOM     58  O   UNL     1      26.943  35.732  11.926  1.00  0.00    -0.443 OA
BRANCH  58  59
ATOM     59  C   UNL     1      26.524  35.449  13.249  1.00  0.00     0.294 C 
BRANCH  59  60
ATOM     60  C   UNL     1      25.258  34.681  13.297  1.00  0.00     0.120 A 
ATOM     61  C   UNL     1      25.135  33.320  13.001  1.00  0.00     0.138 A 
ATOM     62  N   UNL     1      24.014  35.076  13.610  1.00  0.00    -0.132 NA
ATOM     63  N   UNL     1      23.834  32.950  13.146  1.00  0.00    -0.252 N 
ATOM     64  N   UNL     1      23.184  34.029  13.513  1.00  0.00    -0.067 NA
BRANCH  63  65
ATOM     65  C   UNL     1      23.376  31.587  12.917  1.00  0.00     0.151 C 
BRANCH  65  66
ATOM     66  C   UNL     1      22.455  31.139  14.044  1.00  0.00     0.086 C 
BRANCH  66  67
ATOM     67  C   UNL     1      21.199  30.512  13.511  1.00  0.00     0.251 C 
ATOM     68  O   UNL     1      20.438  31.484  12.861  1.00  0.00    -0.350 OA
ATOM     69  O   UNL     1      21.430  29.530  12.568  1.00  0.00    -0.350 OA
ATOM     70  C   UNL     1      19.556  30.765  12.062  1.00  0.00     0.192 C 
ATOM     71  C   UNL     1      20.123  29.356  12.057  1.00  0.00     0.192 C 
ENDBRANCH  66  67
ENDBRANCH  65  66
ENDBRANCH  63  65
ENDBRANCH  59  60
ENDBRANCH  58  59
ENDBRANCH  55  58
ENDBRANCH  53  54
ENDBRANCH  50  53
ENDBRANCH  47  50
ENDBRANCH   5  47
BRANCH   4  72
ATOM     72  N   UNL     1      30.043  38.820   6.206  1.00  0.00    -0.348 N 
ATOM     73  C   UNL     1      29.794  40.184   6.390  1.00  0.00     0.217 C 
ATOM     74  H   UNL     1      31.016  38.484   5.946  1.00  0.00     0.163 HD
ATOM     75  C   UNL     1      30.898  41.184   6.221  1.00  0.00     0.114 C 
ATOM     76  O   UNL     1      28.621  40.528   6.698  1.00  0.00    -0.275 OA
ENDBRANCH   4  72
TORSDOF 32
BEGIN_RES LYS A 131
REMARK  4 active torsions:
REMARK  status: ('A' for Active; 'I' for Inactive)
REMARK    1  A    between atoms: CA   and  CB  
REMARK    2  A    between atoms: CB   and  CG  
REMARK    3  A    between atoms: CG   and  CD  
REMARK    4  A    between atoms: CD   and  CE  
ROOT
ATOM      1  CA  LYS A 131      29.867  25.555  16.977  1.00 20.52     0.186 C 
ENDROOT
BRANCH   1   2
ATOM      2  CB  LYS A 131      28.345  25.722  17.026  1.00 20.94     0.034 C 
BRANCH   2   3
ATOM      3  CG  LYS A 131      27.599  24.440  16.688  1.00 22.96     0.005 C 
BRANCH   3   4
ATOM      4  CD  LYS A 131      27.006  23.792  17.908  1.00 24.33     0.041 C 
BRANCH   4   5
ATOM      5  CE  LYS A 131      25.617  23.256  17.575  1.00 26.91     0.338 C 
ATOM      6  NZ  LYS A 131      24.795  24.307  16.931  1.00 27.40     0.618 N 
ENDBRANCH   4   5
ENDBRANCH   3   4
ENDBRANCH   2   3
ENDBRANCH   1   2
END_RES LYS A 131
BEGIN_RES LYS A 135
REMARK  4 active torsions:
REMARK  status: ('A' for Active; 'I' for Inactive)
REMARK    5  A    between atoms: CA   and  CB  
REMARK    6  A    between atoms: CB   and  CG  
REMARK    7  A    between atoms: CG   and  CD  
REMARK    8  A    between atoms: CD   and  CE  
ROOT
ATOM      7  CA  LYS A 135      33.193  34.663   9.290  1.00 25.02     0.186 C 
ENDROOT
BRANCH   7   8
ATOM      8  CB  LYS A 135      32.060  35.360  10.034  1.00 26.63     0.034 C 
BRANCH   8   9
ATOM      9  CG  LYS A 135      32.374  35.645  11.480  1.00 29.45     0.005 C 
BRANCH   9  10
ATOM     10  CD  LYS A 135      32.105  37.105  11.810  1.00 32.00     0.041 C 
BRANCH  10  11
ATOM     11  CE  LYS A 135      31.774  37.883  10.551  1.00 34.25     0.338 C 
ATOM     12  NZ  LYS A 135      31.274  39.247  10.879  1.00 35.99     0.618 N 
ENDBRANCH  10  11
ENDBRANCH   9  10
ENDBRANCH   8   9
ENDBRANCH   7   8
END_RES LYS A 135
