REMARK VINA RESULT:    -5.152      2.108      4.020
REMARK INTER + INTRA:         -22.487
REMARK INTER:                 -12.925
REMARK INTRA:                  -9.561
REMARK UNBOUND:                -9.203
REMARK SMILES CC(=O)N[C@@H]1[C@@H](O)C[C@](OC[C@H]2O[C@@H](O[C@H]3[C@H](O)[C@@H](O)[C@H](OCCN=[N+]=[N-])O[C@@H]3CO)[C@H](O)[C@@H](O)[C@H]2O)(C(=O)O)O[C@H]1C(O)[C@H](O)CNC(=O)OCc1cn(Cc2ccc(C#N)cc2)nn1
REMARK SMILES IDX 9 1 8 2 6 3 5 4 42 5 41 6 10 7 11 8 12 9 14 10 13 11 32 12
REMARK SMILES IDX 34 13 36 14 15 15 16 16 29 17 28 18 21 19 17 20 19 21 30 22
REMARK SMILES IDX 31 23 22 25 23 26 24 27 25 28 26 29 27 30 18 31 20 33 33 35
REMARK SMILES IDX 35 37 37 39 38 41 39 42 40 43 7 45 43 47 44 48 45 50 46 51
REMARK SMILES IDX 47 53 48 54 49 55 50 57 51 58 52 59 53 60 54 61 66 62 55 63
REMARK SMILES IDX 65 64 56 65 57 66 58 67 64 68 59 69 63 70 60 71 61 72 62 73
REMARK SMILES IDX 4 74 2 75 1 77 3 78
REMARK H PARENT 31 24 18 32 20 34 33 36 35 38 37 40 40 44 7 46 44 49 46 52
REMARK H PARENT 48 56 4 76
REMARK Flexibility Score: inf
ROOT
ATOM      1  C   UNL     1      27.460  40.397  10.486  1.00  0.00     0.272 C 
ATOM      2  C   UNL     1      28.374  40.978  11.507  1.00  0.00     0.113 C 
ATOM      3  C   UNL     1      29.683  40.288  11.657  1.00  0.00     0.145 C 
ATOM      4  C   UNL     1      29.473  38.802  11.323  1.00  0.00     0.142 C 
ATOM      5  C   UNL     1      28.040  38.501  11.643  1.00  0.00     0.178 C 
ATOM      6  O   UNL     1      27.223  39.027  10.683  1.00  0.00    -0.332 OA
ENDROOT
BRANCH   1   7
ATOM      7  O   UNL     1      27.791  40.636   9.169  1.00  0.00    -0.338 OA
BRANCH   7   8
ATOM      8  C   UNL     1      26.740  40.823   8.337  1.00  0.00     0.199 C 
BRANCH   8   9
ATOM      9  C   UNL     1      26.918  40.079   7.002  1.00  0.00     0.179 C 
ATOM     10  C   UNL     1      28.604  39.190   5.700  1.00  0.00     0.282 C 
ATOM     11  O   UNL     1      28.294  40.018   6.779  1.00  0.00    -0.341 OA
ATOM     12  C   UNL     1      28.184  37.772   5.908  1.00  0.00     0.202 C 
ATOM     13  C   UNL     1      27.464  37.650   7.230  1.00  0.00     0.179 C 
ATOM     14  C   UNL     1      26.357  38.694   7.195  1.00  0.00     0.177 C 
BRANCH  10  15
ATOM     15  O   UNL     1      29.989  39.217   5.558  1.00  0.00    -0.341 OA
BRANCH  15  16
ATOM     16  C   UNL     1      30.567  40.399   6.014  1.00  0.00     0.184 C 
ATOM     17  C   UNL     1      31.398  40.998   4.936  1.00  0.00     0.178 C 
ATOM     18  O   UNL     1      32.735  40.727   4.978  1.00  0.00    -0.341 OA
ATOM     19  C   UNL     1      33.141  39.768   5.871  1.00  0.00     0.281 C 
ATOM     20  C   UNL     1      31.247  40.237   7.335  1.00  0.00     0.180 C 
ATOM     21  C   UNL     1      32.751  40.204   7.265  1.00  0.00     0.202 C 
BRANCH  17  22
ATOM     22  C   UNL     1      31.116  42.497   4.859  1.00  0.00     0.191 C 
BRANCH  22  23
ATOM     23  O   UNL     1      29.971  42.750   5.614  1.00  0.00    -0.394 OA
ATOM     24  H   UNL     1      29.138  42.566   5.081  1.00  0.00     0.210 HD
ENDBRANCH  22  23
ENDBRANCH  17  22
BRANCH  19  25
ATOM     25  O   UNL     1      34.550  39.745   5.811  1.00  0.00    -0.350 OA
BRANCH  25  26
ATOM     26  C   UNL     1      34.986  38.932   4.774  1.00  0.00     0.169 C 
BRANCH  26  27
ATOM     27  C   UNL     1      35.995  37.916   5.271  1.00  0.00     0.119 C 
BRANCH  27  28
ATOM     28  N   UNL     1      37.353  38.264   4.899  1.00  0.00    -0.092 NA
ATOM     29  N   UNL     1      37.991  37.537   4.155  1.00  0.00     0.001 N 
ATOM     30  N   UNL     1      38.616  37.187   3.142  1.00  0.00    -0.003 NA
ENDBRANCH  27  28
ENDBRANCH  26  27
ENDBRANCH  25  26
ENDBRANCH  19  25
BRANCH  20  31
ATOM     31  O   UNL     1      30.813  41.164   8.291  1.00  0.00    -0.387 OA
ATOM     32  H   UNL     1      31.424  41.148   9.084  1.00  0.00     0.211 HD
ENDBRANCH  20  31
BRANCH  21  33
ATOM     33  O   UNL     1      33.298  39.350   8.225  1.00  0.00    -0.385 OA
ATOM     34  H   UNL     1      34.280  39.349   8.076  1.00  0.00     0.211 HD
ENDBRANCH  21  33
ENDBRANCH  15  16
ENDBRANCH  10  15
BRANCH  12  35
ATOM     35  O   UNL     1      27.372  37.261   4.920  1.00  0.00    -0.385 OA
ATOM     36  H   UNL     1      26.804  37.990   4.541  1.00  0.00     0.211 HD
ENDBRANCH  12  35
BRANCH  13  37
ATOM     37  O   UNL     1      28.379  37.883   8.245  1.00  0.00    -0.387 OA
ATOM     38  H   UNL     1      28.752  37.074   8.658  1.00  0.00     0.211 HD
ENDBRANCH  13  37
BRANCH  14  39
ATOM     39  O   UNL     1      25.489  38.605   8.256  1.00  0.00    -0.387 OA
ATOM     40  H   UNL     1      24.628  38.242   7.955  1.00  0.00     0.211 HD
ENDBRANCH  14  39
ENDBRANCH   8   9
ENDBRANCH   7   8
ENDBRANCH   1   7
BRANCH   1  41
ATOM     41  C   UNL     1      26.111  41.008  10.732  1.00  0.00     0.364 C 
ATOM     42  O   UNL     1      26.001  42.229  10.887  1.00  0.00    -0.246 OA
BRANCH  41  43
ATOM     43  O   UNL     1      25.012  40.184  10.778  1.00  0.00    -0.477 OA
ATOM     44  H   UNL     1      24.306  40.222  11.503  1.00  0.00     0.296 HD
ENDBRANCH  41  43
ENDBRANCH   1  41
BRANCH   3  45
ATOM     45  O   UNL     1      30.743  40.837  10.994  1.00  0.00    -0.391 OA
ATOM     46  H   UNL     1      31.440  41.132  11.614  1.00  0.00     0.211 HD
ENDBRANCH   3  45
BRANCH   5  47
ATOM     47  C   UNL     1      27.770  37.005  11.848  1.00  0.00     0.176 C 
BRANCH  47  48
ATOM     48  O   UNL     1      28.073  36.774  13.211  1.00  0.00    -0.388 OA
ATOM     49  H   UNL     1      28.320  35.821  13.309  1.00  0.00     0.211 HD
ENDBRANCH  47  48
BRANCH  47  50
ATOM     50  C   UNL     1      26.369  36.662  11.604  1.00  0.00     0.165 C 
BRANCH  50  51
ATOM     51  O   UNL     1      25.494  37.549  12.302  1.00  0.00    -0.388 OA
ATOM     52  H   UNL     1      26.031  38.399  12.376  1.00  0.00     0.211 HD
ENDBRANCH  50  51
BRANCH  50  53
ATOM     53  C   UNL     1      25.949  35.267  11.852  1.00  0.00     0.154 C 
BRANCH  53  54
ATOM     54  N   UNL     1      25.588  34.800  13.118  1.00  0.00    -0.319 N 
ATOM     55  C   UNL     1      26.384  34.276  14.154  1.00  0.00     0.407 C 
ATOM     56  H   UNL     1      24.538  34.838  13.366  1.00  0.00     0.167 HD
ATOM     57  O   UNL     1      27.616  34.171  14.081  1.00  0.00    -0.225 OA
BRANCH  55  58
ATOM     58  O   UNL     1      25.806  33.836  15.355  1.00  0.00    -0.443 OA
BRANCH  58  59
ATOM     59  C   UNL     1      25.259  32.531  15.443  1.00  0.00     0.294 C 
BRANCH  59  60
ATOM     60  C   UNL     1      26.353  31.595  15.886  1.00  0.00     0.120 A 
ATOM     61  C   UNL     1      27.335  31.930  16.795  1.00  0.00     0.138 A 
ATOM     62  N   UNL     1      26.600  30.327  15.512  1.00  0.00    -0.132 NA
ATOM     63  N   UNL     1      28.149  30.853  16.944  1.00  0.00    -0.248 N 
ATOM     64  N   UNL     1      27.671  29.938  16.167  1.00  0.00    -0.067 NA
BRANCH  63  65
ATOM     65  C   UNL     1      29.309  30.867  17.821  1.00  0.00     0.181 C 
BRANCH  65  66
ATOM     66  C   UNL     1      30.236  31.891  17.214  1.00  0.00    -0.026 A 
ATOM     67  C   UNL     1      30.607  32.968  17.981  1.00  0.00     0.007 A 
ATOM     68  C   UNL     1      30.694  31.728  15.905  1.00  0.00     0.007 A 
ATOM     69  C   UNL     1      31.445  33.952  17.510  1.00  0.00     0.020 A 
ATOM     70  C   UNL     1      31.529  32.710  15.436  1.00  0.00     0.020 A 
ATOM     71  C   UNL     1      31.892  33.774  16.196  1.00  0.00     0.052 A 
BRANCH  71  72
ATOM     72  C   UNL     1      32.765  34.814  15.667  1.00  0.00     0.099 C 
ATOM     73  N   UNL     1      33.476  35.641  15.260  1.00  0.00    -0.192 NA
ENDBRANCH  71  72
ENDBRANCH  65  66
ENDBRANCH  63  65
ENDBRANCH  59  60
ENDBRANCH  58  59
ENDBRANCH  55  58
ENDBRANCH  53  54
ENDBRANCH  50  53
ENDBRANCH  47  50
ENDBRANCH   5  47
BRANCH   4  74
ATOM     74  N   UNL     1      30.433  37.995  12.033  1.00  0.00    -0.348 N 
ATOM     75  C   UNL     1      31.619  37.599  11.362  1.00  0.00     0.217 C 
ATOM     76  H   UNL     1      30.294  37.695  13.011  1.00  0.00     0.163 HD
ATOM     77  C   UNL     1      32.647  36.775  12.022  1.00  0.00     0.114 C 
ATOM     78  O   UNL     1      31.835  37.948  10.153  1.00  0.00    -0.275 OA
ENDBRANCH   4  74
TORSDOF 32
BEGIN_RES LYS A 131
REMARK  4 active torsions:
REMARK  status: ('A' for Active; 'I' for Inactive)
REMARK    1  A    between atoms: CA   and  CB  
REMARK    2  A    between atoms: CB   and  CG  
REMARK    3  A    between atoms: CG   and  CD  
REMARK    4  A    between atoms: CD   and  CE  
ROOT
ATOM      1  CA  LYS A 131      29.867  25.555  16.977  1.00 20.52     0.186 C 
ENDROOT
BRANCH   1   2
ATOM      2  CB  LYS A 131      28.345  25.722  17.026  1.00 20.94     0.034 C 
BRANCH   2   3
ATOM      3  CG  LYS A 131      27.602  24.398  16.929  1.00 22.96     0.005 C 
BRANCH   3   4
ATOM      4  CD  LYS A 131      26.652  24.197  18.076  1.00 24.33     0.041 C 
BRANCH   4   5
ATOM      5  CE  LYS A 131      25.477  23.338  17.619  1.00 26.91     0.338 C 
ATOM      6  NZ  LYS A 131      24.465  24.170  16.926  1.00 27.40     0.618 N 
ENDBRANCH   4   5
ENDBRANCH   3   4
ENDBRANCH   2   3
ENDBRANCH   1   2
END_RES LYS A 131
BEGIN_RES LYS A 135
REMARK  4 active torsions:
REMARK  status: ('A' for Active; 'I' for Inactive)
REMARK    5  A    between atoms: CA   and  CB  
REMARK    6  A    between atoms: CB   and  CG  
REMARK    7  A    between atoms: CG   and  CD  
REMARK    8  A    between atoms: CD   and  CE  
ROOT
ATOM      7  CA  LYS A 135      33.193  34.663   9.290  1.00 25.02     0.186 C 
ENDROOT
BRANCH   7   8
ATOM      8  CB  LYS A 135      32.060  35.360  10.034  1.00 26.63     0.034 C 
BRANCH   8   9
ATOM      9  CG  LYS A 135      30.875  34.468  10.300  1.00 29.45     0.005 C 
BRANCH   9  10
ATOM     10  CD  LYS A 135      30.014  34.334   9.053  1.00 32.00     0.041 C 
BRANCH  10  11
ATOM     11  CE  LYS A 135      28.563  34.106   9.430  1.00 34.25     0.338 C 
ATOM     12  NZ  LYS A 135      27.652  34.492   8.317  1.00 35.99     0.618 N 
ENDBRANCH  10  11
ENDBRANCH   9  10
ENDBRANCH   8   9
ENDBRANCH   7   8
END_RES LYS A 135
