REMARK VINA RESULT:    -5.343      2.280      4.659
REMARK INTER + INTRA:         -21.259
REMARK INTER:                 -10.375
REMARK INTRA:                 -10.884
REMARK UNBOUND:                -8.107
REMARK SMILES CC(=O)N[C@@H]1[C@@H](O)C[C@](OC[C@H]2O[C@@H](O[C@H]3[C@H](O)[C@@H](O)[C@H](OCCN=[N+]=[N-])O[C@@H]3CO)[C@H](O)[C@@H](O)[C@H]2O)(C(=O)O)O[C@H]1C(O)[C@H](O)CNC(=O)OCc1cn(C2CCN(C)CC2)nn1
REMARK SMILES IDX 9 1 8 2 6 3 5 4 42 5 41 6 10 7 11 8 12 9 14 10 13 11 32 12
REMARK SMILES IDX 34 13 36 14 15 15 16 16 29 17 28 18 21 19 17 20 19 21 30 22
REMARK SMILES IDX 31 23 22 25 23 26 24 27 25 28 26 29 27 30 18 31 20 33 33 35
REMARK SMILES IDX 35 37 37 39 38 41 39 42 40 43 7 45 43 47 44 48 45 50 46 51
REMARK SMILES IDX 47 53 48 54 49 55 50 57 51 58 52 59 53 60 54 61 64 62 55 63
REMARK SMILES IDX 63 64 56 65 57 66 62 67 58 68 61 69 59 70 60 71 4 72 2 73
REMARK SMILES IDX 1 75 3 76
REMARK H PARENT 31 24 18 32 20 34 33 36 35 38 37 40 40 44 7 46 44 49 46 52
REMARK H PARENT 48 56 4 74
REMARK Flexibility Score: inf
ROOT
ATOM      1  C   UNL     1      27.653  38.339   6.979  1.00  0.00     0.272 C 
ATOM      2  C   UNL     1      28.778  37.797   7.841  1.00  0.00     0.113 C 
ATOM      3  C   UNL     1      30.148  38.061   7.371  1.00  0.00     0.145 C 
ATOM      4  C   UNL     1      30.359  39.431   6.767  1.00  0.00     0.142 C 
ATOM      5  C   UNL     1      29.110  40.067   6.292  1.00  0.00     0.178 C 
ATOM      6  O   UNL     1      27.935  39.734   6.813  1.00  0.00    -0.332 OA
ENDROOT
BRANCH   1   7
ATOM      7  O   UNL     1      26.530  38.360   7.712  1.00  0.00    -0.338 OA
BRANCH   7   8
ATOM      8  C   UNL     1      25.752  37.438   8.171  1.00  0.00     0.199 C 
BRANCH   8   9
ATOM      9  C   UNL     1      24.982  37.543   9.451  1.00  0.00     0.179 C 
ATOM     10  C   UNL     1      22.794  38.345   8.930  1.00  0.00     0.282 C 
ATOM     11  O   UNL     1      24.083  38.560   9.285  1.00  0.00    -0.341 OA
ATOM     12  C   UNL     1      22.453  36.942   8.672  1.00  0.00     0.202 C 
ATOM     13  C   UNL     1      22.915  36.165   9.916  1.00  0.00     0.179 C 
ATOM     14  C   UNL     1      24.399  36.252   9.921  1.00  0.00     0.177 C 
BRANCH  10  15
ATOM     15  O   UNL     1      22.558  39.272   7.923  1.00  0.00    -0.341 OA
BRANCH  15  16
ATOM     16  C   UNL     1      22.832  40.552   8.180  1.00  0.00     0.184 C 
ATOM     17  C   UNL     1      21.602  41.391   8.145  1.00  0.00     0.178 C 
ATOM     18  O   UNL     1      21.862  42.591   8.817  1.00  0.00    -0.341 OA
ATOM     19  C   UNL     1      22.772  43.337   8.106  1.00  0.00     0.281 C 
ATOM     20  C   UNL     1      23.756  41.213   7.144  1.00  0.00     0.180 C 
ATOM     21  C   UNL     1      24.025  42.604   7.710  1.00  0.00     0.202 C 
BRANCH  17  22
ATOM     22  C   UNL     1      20.360  40.724   8.627  1.00  0.00     0.191 C 
BRANCH  22  23
ATOM     23  O   UNL     1      19.742  40.098   7.554  1.00  0.00    -0.394 OA
ATOM     24  H   UNL     1      18.878  40.525   7.321  1.00  0.00     0.210 HD
ENDBRANCH  22  23
ENDBRANCH  17  22
BRANCH  19  25
ATOM     25  O   UNL     1      23.186  44.372   8.957  1.00  0.00    -0.350 OA
BRANCH  25  26
ATOM     26  C   UNL     1      22.855  44.182  10.274  1.00  0.00     0.169 C 
BRANCH  26  27
ATOM     27  C   UNL     1      23.956  44.572  11.239  1.00  0.00     0.119 C 
BRANCH  27  28
ATOM     28  N   UNL     1      25.086  43.668  11.132  1.00  0.00    -0.092 NA
ATOM     29  N   UNL     1      26.197  43.991  11.550  1.00  0.00     0.001 N 
ATOM     30  N   UNL     1      27.382  44.326  11.487  1.00  0.00    -0.003 NA
ENDBRANCH  27  28
ENDBRANCH  26  27
ENDBRANCH  25  26
ENDBRANCH  19  25
BRANCH  20  31
ATOM     31  O   UNL     1      24.971  40.593   7.032  1.00  0.00    -0.387 OA
ATOM     32  H   UNL     1      25.640  41.248   6.737  1.00  0.00     0.211 HD
ENDBRANCH  20  31
BRANCH  21  33
ATOM     33  O   UNL     1      24.738  43.336   6.793  1.00  0.00    -0.385 OA
ATOM     34  H   UNL     1      24.982  42.827   6.004  1.00  0.00     0.211 HD
ENDBRANCH  21  33
ENDBRANCH  15  16
ENDBRANCH  10  15
BRANCH  12  35
ATOM     35  O   UNL     1      21.088  36.667   8.615  1.00  0.00    -0.385 OA
ATOM     36  H   UNL     1      20.579  37.355   9.112  1.00  0.00     0.211 HD
ENDBRANCH  12  35
BRANCH  13  37
ATOM     37  O   UNL     1      22.454  34.873   9.932  1.00  0.00    -0.387 OA
ATOM     38  H   UNL     1      22.804  34.417   9.125  1.00  0.00     0.211 HD
ENDBRANCH  13  37
BRANCH  14  39
ATOM     39  O   UNL     1      24.903  35.218   9.137  1.00  0.00    -0.387 OA
ATOM     40  H   UNL     1      25.765  34.870   9.461  1.00  0.00     0.211 HD
ENDBRANCH  14  39
ENDBRANCH   8   9
ENDBRANCH   7   8
ENDBRANCH   1   7
BRANCH   1  41
ATOM     41  C   UNL     1      27.706  37.701   5.672  1.00  0.00     0.364 C 
ATOM     42  O   UNL     1      27.929  36.423   5.653  1.00  0.00    -0.246 OA
BRANCH  41  43
ATOM     43  O   UNL     1      27.564  38.223   4.414  1.00  0.00    -0.477 OA
ATOM     44  H   UNL     1      27.866  39.158   4.141  1.00  0.00     0.296 HD
ENDBRANCH  41  43
ENDBRANCH   1  41
BRANCH   3  45
ATOM     45  O   UNL     1      31.045  37.911   8.471  1.00  0.00    -0.391 OA
ATOM     46  H   UNL     1      30.567  37.976   9.324  1.00  0.00     0.211 HD
ENDBRANCH   3  45
BRANCH   5  47
ATOM     47  C   UNL     1      29.217  41.615   6.368  1.00  0.00     0.176 C 
BRANCH  47  48
ATOM     48  O   UNL     1      30.348  41.955   7.099  1.00  0.00    -0.388 OA
ATOM     49  H   UNL     1      30.148  42.191   8.029  1.00  0.00     0.211 HD
ENDBRANCH  47  48
BRANCH  47  50
ATOM     50  C   UNL     1      28.003  42.190   6.939  1.00  0.00     0.165 C 
BRANCH  50  51
ATOM     51  O   UNL     1      27.671  43.328   6.105  1.00  0.00    -0.388 OA
ATOM     52  H   UNL     1      27.305  44.045   6.677  1.00  0.00     0.211 HD
ENDBRANCH  50  51
BRANCH  50  53
ATOM     53  C   UNL     1      27.968  42.654   8.331  1.00  0.00     0.154 C 
BRANCH  53  54
ATOM     54  N   UNL     1      28.297  41.840   9.424  1.00  0.00    -0.319 N 
ATOM     55  C   UNL     1      27.441  40.960  10.130  1.00  0.00     0.407 C 
ATOM     56  H   UNL     1      29.314  41.881   9.777  1.00  0.00     0.167 HD
ATOM     57  O   UNL     1      26.252  40.798   9.792  1.00  0.00    -0.225 OA
BRANCH  55  58
ATOM     58  O   UNL     1      27.965  40.261  11.241  1.00  0.00    -0.443 OA
BRANCH  58  59
ATOM     59  C   UNL     1      29.126  39.488  11.068  1.00  0.00     0.294 C 
BRANCH  59  60
ATOM     60  C   UNL     1      28.892  38.145  11.650  1.00  0.00     0.120 A 
ATOM     61  C   UNL     1      29.500  37.634  12.810  1.00  0.00     0.138 A 
ATOM     62  N   UNL     1      28.088  37.150  11.248  1.00  0.00    -0.132 NA
ATOM     63  N   UNL     1      29.048  36.391  13.049  1.00  0.00    -0.249 N 
ATOM     64  N   UNL     1      28.198  36.125  12.092  1.00  0.00    -0.067 NA
BRANCH  63  65
ATOM     65  C   UNL     1      29.432  35.535  14.147  1.00  0.00     0.111 C 
ATOM     66  C   UNL     1      30.200  34.377  13.575  1.00  0.00     0.043 C 
ATOM     67  C   UNL     1      30.289  36.251  15.155  1.00  0.00     0.043 C 
ATOM     68  C   UNL     1      31.676  34.585  13.826  1.00  0.00     0.086 C 
ATOM     69  C   UNL     1      31.079  35.316  16.031  1.00  0.00     0.086 C 
ATOM     70  N   UNL     1      31.909  34.413  15.260  1.00  0.00    -0.306 NA
ATOM     71  C   UNL     1      31.564  33.044  15.599  1.00  0.00     0.105 C 
ENDBRANCH  63  65
ENDBRANCH  59  60
ENDBRANCH  58  59
ENDBRANCH  55  58
ENDBRANCH  53  54
ENDBRANCH  50  53
ENDBRANCH  47  50
ENDBRANCH   5  47
BRANCH   4  72
ATOM     72  N   UNL     1      31.369  39.405   5.727  1.00  0.00    -0.348 N 
ATOM     73  C   UNL     1      32.693  39.788   6.039  1.00  0.00     0.217 C 
ATOM     74  H   UNL     1      31.153  39.111   4.743  1.00  0.00     0.163 HD
ATOM     75  C   UNL     1      33.774  39.781   5.000  1.00  0.00     0.114 C 
ATOM     76  O   UNL     1      32.987  40.147   7.225  1.00  0.00    -0.275 OA
ENDBRANCH   4  72
TORSDOF 30
BEGIN_RES LYS A 131
REMARK  4 active torsions:
REMARK  status: ('A' for Active; 'I' for Inactive)
REMARK    1  A    between atoms: CA   and  CB  
REMARK    2  A    between atoms: CB   and  CG  
REMARK    3  A    between atoms: CG   and  CD  
REMARK    4  A    between atoms: CD   and  CE  
ROOT
ATOM      1  CA  LYS A 131      29.867  25.555  16.977  1.00 20.52     0.186 C 
ENDROOT
BRANCH   1   2
ATOM      2  CB  LYS A 131      28.345  25.722  17.026  1.00 20.94     0.034 C 
BRANCH   2   3
ATOM      3  CG  LYS A 131      27.604  24.394  17.004  1.00 22.96     0.005 C 
BRANCH   3   4
ATOM      4  CD  LYS A 131      26.138  24.559  17.294  1.00 24.33     0.041 C 
BRANCH   4   5
ATOM      5  CE  LYS A 131      25.908  24.507  18.801  1.00 26.91     0.338 C 
ATOM      6  NZ  LYS A 131      25.516  23.140  19.220  1.00 27.40     0.618 N 
ENDBRANCH   4   5
ENDBRANCH   3   4
ENDBRANCH   2   3
ENDBRANCH   1   2
END_RES LYS A 131
BEGIN_RES LYS A 135
REMARK  4 active torsions:
REMARK  status: ('A' for Active; 'I' for Inactive)
REMARK    5  A    between atoms: CA   and  CB  
REMARK    6  A    between atoms: CB   and  CG  
REMARK    7  A    between atoms: CG   and  CD  
REMARK    8  A    between atoms: CD   and  CE  
ROOT
ATOM      7  CA  LYS A 135      33.193  34.663   9.290  1.00 25.02     0.186 C 
ENDROOT
BRANCH   7   8
ATOM      8  CB  LYS A 135      32.060  35.360  10.034  1.00 26.63     0.034 C 
BRANCH   8   9
ATOM      9  CG  LYS A 135      30.756  34.607   9.988  1.00 29.45     0.005 C 
BRANCH   9  10
ATOM     10  CD  LYS A 135      30.329  34.361   8.549  1.00 32.00     0.041 C 
BRANCH  10  11
ATOM     11  CE  LYS A 135      28.819  34.430   8.423  1.00 34.25     0.338 C 
ATOM     12  NZ  LYS A 135      28.153  33.706   9.540  1.00 35.99     0.618 N 
ENDBRANCH  10  11
ENDBRANCH   9  10
ENDBRANCH   8   9
ENDBRANCH   7   8
END_RES LYS A 135
