REMARK VINA RESULT:    -3.871      3.806     10.117
REMARK INTER + INTRA:         -22.687
REMARK INTER:                 -13.869
REMARK INTRA:                  -8.818
REMARK UNBOUND:               -13.046
REMARK SMILES CC(=O)N[C@@H]1[C@@H](O)C[C@](OC[C@H]2O[C@@H](O[C@H]3[C@H](O)[C@@H](O)[C@H](OCCN=[N+]=[N-])O[C@@H]3CO)[C@H](O)[C@@H](O)[C@H]2O)(C(=O)O)O[C@H]1C(O)[C@H](O)CNC(=O)OCc1cn(-c2nc(C)nc(N)n2)nn1
REMARK SMILES IDX 9 1 8 2 6 3 5 4 42 5 41 6 10 7 11 8 12 9 14 10 13 11 32 12
REMARK SMILES IDX 34 13 36 14 15 15 16 16 29 17 28 18 21 19 17 20 19 21 30 22
REMARK SMILES IDX 31 23 22 25 23 26 24 27 25 28 26 29 27 30 18 31 20 33 33 35
REMARK SMILES IDX 35 37 37 39 38 41 39 42 40 43 7 45 43 47 44 48 45 50 46 51
REMARK SMILES IDX 47 53 48 54 49 55 50 57 51 58 52 59 53 60 54 61 65 62 55 63
REMARK SMILES IDX 64 64 56 65 63 66 57 67 61 68 58 69 60 70 59 71 62 72 4 75
REMARK SMILES IDX 2 76 1 78 3 79
REMARK H PARENT 31 24 18 32 20 34 33 36 35 38 37 40 40 44 7 46 44 49 46 52
REMARK H PARENT 48 56 62 73 62 74 4 77
REMARK Flexibility Score: inf
ROOT
ATOM      1  C   UNL     1      29.685  34.480  15.510  1.00  0.00     0.272 C 
ATOM      2  C   UNL     1      31.074  34.325  16.028  1.00  0.00     0.113 C 
ATOM      3  C   UNL     1      31.443  32.882  16.188  1.00  0.00     0.145 C 
ATOM      4  C   UNL     1      30.431  32.224  17.089  1.00  0.00     0.142 C 
ATOM      5  C   UNL     1      29.006  32.583  16.741  1.00  0.00     0.178 C 
ATOM      6  O   UNL     1      28.806  33.879  16.451  1.00  0.00    -0.332 OA
ENDROOT
BRANCH   1   7
ATOM      7  O   UNL     1      29.428  34.194  14.282  1.00  0.00    -0.338 OA
BRANCH   7   8
ATOM      8  C   UNL     1      29.702  34.490  13.070  1.00  0.00     0.199 C 
BRANCH   8   9
ATOM      9  C   UNL     1      28.789  34.984  12.002  1.00  0.00     0.179 C 
ATOM     10  C   UNL     1      28.371  35.240   9.834  1.00  0.00     0.282 C 
ATOM     11  O   UNL     1      29.130  34.500  10.781  1.00  0.00    -0.341 OA
ATOM     12  C   UNL     1      27.010  34.594   9.879  1.00  0.00     0.202 C 
ATOM     13  C   UNL     1      26.388  34.847  11.231  1.00  0.00     0.179 C 
ATOM     14  C   UNL     1      27.337  35.057  12.345  1.00  0.00     0.177 C 
BRANCH  10  15
ATOM     15  O   UNL     1      28.922  35.164   8.583  1.00  0.00    -0.341 OA
BRANCH  15  16
ATOM     16  C   UNL     1      29.089  36.392   7.966  1.00  0.00     0.184 C 
ATOM     17  C   UNL     1      28.993  37.576   8.867  1.00  0.00     0.178 C 
ATOM     18  O   UNL     1      28.063  38.516   8.443  1.00  0.00    -0.341 OA
ATOM     19  C   UNL     1      28.212  38.910   7.119  1.00  0.00     0.281 C 
ATOM     20  C   UNL     1      27.956  36.470   6.924  1.00  0.00     0.180 C 
ATOM     21  C   UNL     1      28.156  37.758   6.161  1.00  0.00     0.202 C 
BRANCH  17  22
ATOM     22  C   UNL     1      30.310  38.222   9.205  1.00  0.00     0.191 C 
BRANCH  22  23
ATOM     23  O   UNL     1      31.255  37.719   8.284  1.00  0.00    -0.394 OA
ATOM     24  H   UNL     1      31.668  38.427   7.745  1.00  0.00     0.210 HD
ENDBRANCH  22  23
ENDBRANCH  17  22
BRANCH  19  25
ATOM     25  O   UNL     1      29.351  39.630   6.888  1.00  0.00    -0.350 OA
BRANCH  25  26
ATOM     26  C   UNL     1      29.911  39.543   5.648  1.00  0.00     0.169 C 
BRANCH  26  27
ATOM     27  C   UNL     1      31.349  39.979   5.603  1.00  0.00     0.119 C 
BRANCH  27  28
ATOM     28  N   UNL     1      31.670  40.620   6.886  1.00  0.00    -0.092 NA
ATOM     29  N   UNL     1      32.763  40.350   7.380  1.00  0.00     0.001 N 
ATOM     30  N   UNL     1      33.530  39.965   8.289  1.00  0.00    -0.003 NA
ENDBRANCH  27  28
ENDBRANCH  26  27
ENDBRANCH  25  26
ENDBRANCH  19  25
BRANCH  20  31
ATOM     31  O   UNL     1      27.987  35.354   6.116  1.00  0.00    -0.387 OA
ATOM     32  H   UNL     1      28.768  35.376   5.498  1.00  0.00     0.211 HD
ENDBRANCH  20  31
BRANCH  21  33
ATOM     33  O   UNL     1      27.091  37.873   5.267  1.00  0.00    -0.385 OA
ATOM     34  H   UNL     1      26.257  37.504   5.652  1.00  0.00     0.211 HD
ENDBRANCH  21  33
ENDBRANCH  15  16
ENDBRANCH  10  15
BRANCH  12  35
ATOM     35  O   UNL     1      26.170  35.028   8.856  1.00  0.00    -0.385 OA
ATOM     36  H   UNL     1      25.301  34.566   8.962  1.00  0.00     0.211 HD
ENDBRANCH  12  35
BRANCH  13  37
ATOM     37  O   UNL     1      25.473  33.815  11.455  1.00  0.00    -0.387 OA
ATOM     38  H   UNL     1      24.598  33.976  11.022  1.00  0.00     0.211 HD
ENDBRANCH  13  37
BRANCH  14  39
ATOM     39  O   UNL     1      26.951  34.301  13.447  1.00  0.00    -0.387 OA
ATOM     40  H   UNL     1      27.789  33.861  13.782  1.00  0.00     0.211 HD
ENDBRANCH  14  39
ENDBRANCH   8   9
ENDBRANCH   7   8
ENDBRANCH   1   7
BRANCH   1  41
ATOM     41  C   UNL     1      29.383  35.976  15.810  1.00  0.00     0.364 C 
ATOM     42  O   UNL     1      28.258  36.368  15.526  1.00  0.00    -0.246 OA
BRANCH  41  43
ATOM     43  O   UNL     1      30.338  36.773  16.357  1.00  0.00    -0.477 OA
ATOM     44  H   UNL     1      30.591  36.759  17.355  1.00  0.00     0.296 HD
ENDBRANCH  41  43
ENDBRANCH   1  41
BRANCH   3  45
ATOM     45  O   UNL     1      31.462  32.166  15.013  1.00  0.00    -0.391 OA
ATOM     46  H   UNL     1      30.615  32.196  14.535  1.00  0.00     0.211 HD
ENDBRANCH   3  45
BRANCH   5  47
ATOM     47  C   UNL     1      28.358  31.612  15.784  1.00  0.00     0.176 C 
BRANCH  47  48
ATOM     48  O   UNL     1      29.192  30.536  15.536  1.00  0.00    -0.388 OA
ATOM     49  H   UNL     1      30.061  30.759  15.158  1.00  0.00     0.211 HD
ENDBRANCH  47  48
BRANCH  47  50
ATOM     50  C   UNL     1      27.047  31.165  16.348  1.00  0.00     0.165 C 
BRANCH  50  51
ATOM     51  O   UNL     1      26.322  30.510  15.335  1.00  0.00    -0.388 OA
ATOM     52  H   UNL     1      26.679  30.786  14.474  1.00  0.00     0.211 HD
ENDBRANCH  50  51
BRANCH  50  53
ATOM     53  C   UNL     1      26.185  32.248  16.903  1.00  0.00     0.154 C 
BRANCH  53  54
ATOM     54  N   UNL     1      25.817  33.229  15.906  1.00  0.00    -0.319 N 
ATOM     55  C   UNL     1      25.284  34.498  16.200  1.00  0.00     0.407 C 
ATOM     56  H   UNL     1      25.945  33.010  14.874  1.00  0.00     0.167 HD
ATOM     57  O   UNL     1      25.101  34.846  17.370  1.00  0.00    -0.225 OA
BRANCH  55  58
ATOM     58  O   UNL     1      24.942  35.403  15.200  1.00  0.00    -0.443 OA
BRANCH  58  59
ATOM     59  C   UNL     1      23.622  35.780  14.901  1.00  0.00     0.294 C 
BRANCH  59  60
ATOM     60  C   UNL     1      23.230  35.374  13.518  1.00  0.00     0.121 A 
ATOM     61  C   UNL     1      23.137  36.202  12.418  1.00  0.00     0.148 A 
ATOM     62  N   UNL     1      22.897  34.140  13.092  1.00  0.00    -0.131 NA
ATOM     63  N   UNL     1      22.753  35.456  11.368  1.00  0.00    -0.185 N 
ATOM     64  N   UNL     1      22.617  34.220  11.803  1.00  0.00    -0.059 NA
BRANCH  63  65
ATOM     65  C   UNL     1      22.553  35.968  10.059  1.00  0.00     0.257 A 
ATOM     66  N   UNL     1      23.595  36.491   9.385  1.00  0.00    -0.175 NA
ATOM     67  N   UNL     1      21.366  35.967   9.426  1.00  0.00    -0.196 NA
ATOM     68  C   UNL     1      23.462  36.992   8.131  1.00  0.00     0.225 A 
ATOM     69  C   UNL     1      21.196  36.451   8.191  1.00  0.00     0.133 A 
ATOM     70  N   UNL     1      22.243  36.961   7.550  1.00  0.00    -0.198 NA
ATOM     71  C   UNL     1      19.849  36.429   7.521  1.00  0.00     0.090 C 
BRANCH  68  72
ATOM     72  N   UNL     1      24.590  37.529   7.469  1.00  0.00    -0.368 N 
ATOM     73  H   UNL     1      25.394  36.931   7.195  1.00  0.00     0.159 HD
ATOM     74  H   UNL     1      24.637  38.541   7.241  1.00  0.00     0.159 HD
ENDBRANCH  68  72
ENDBRANCH  63  65
ENDBRANCH  59  60
ENDBRANCH  58  59
ENDBRANCH  55  58
ENDBRANCH  53  54
ENDBRANCH  50  53
ENDBRANCH  47  50
ENDBRANCH   5  47
BRANCH   4  75
ATOM     75  N   UNL     1      30.718  32.595  18.458  1.00  0.00    -0.348 N 
ATOM     76  C   UNL     1      30.637  31.636  19.507  1.00  0.00     0.217 C 
ATOM     77  H   UNL     1      30.995  33.572  18.731  1.00  0.00     0.163 HD
ATOM     78  C   UNL     1      30.931  32.031  20.891  1.00  0.00     0.114 C 
ATOM     79  O   UNL     1      30.313  30.458  19.242  1.00  0.00    -0.275 OA
ENDBRANCH   4  75
TORSDOF 31
BEGIN_RES LYS A 131
REMARK  4 active torsions:
REMARK  status: ('A' for Active; 'I' for Inactive)
REMARK    1  A    between atoms: CA   and  CB  
REMARK    2  A    between atoms: CB   and  CG  
REMARK    3  A    between atoms: CG   and  CD  
REMARK    4  A    between atoms: CD   and  CE  
ROOT
ATOM      1  CA  LYS A 131      29.867  25.555  16.977  1.00 20.52     0.186 C 
ENDROOT
BRANCH   1   2
ATOM      2  CB  LYS A 131      28.345  25.722  17.026  1.00 20.94     0.034 C 
BRANCH   2   3
ATOM      3  CG  LYS A 131      27.602  24.397  16.940  1.00 22.96     0.005 C 
BRANCH   3   4
ATOM      4  CD  LYS A 131      26.497  24.301  17.956  1.00 24.33     0.041 C 
BRANCH   4   5
ATOM      5  CE  LYS A 131      25.287  23.618  17.327  1.00 26.91     0.338 C 
ATOM      6  NZ  LYS A 131      24.268  24.622  16.939  1.00 27.40     0.618 N 
ENDBRANCH   4   5
ENDBRANCH   3   4
ENDBRANCH   2   3
ENDBRANCH   1   2
END_RES LYS A 131
BEGIN_RES LYS A 135
REMARK  4 active torsions:
REMARK  status: ('A' for Active; 'I' for Inactive)
REMARK    5  A    between atoms: CA   and  CB  
REMARK    6  A    between atoms: CB   and  CG  
REMARK    7  A    between atoms: CG   and  CD  
REMARK    8  A    between atoms: CD   and  CE  
ROOT
ATOM      7  CA  LYS A 135      33.193  34.663   9.290  1.00 25.02     0.186 C 
ENDROOT
BRANCH   7   8
ATOM      8  CB  LYS A 135      32.060  35.360  10.034  1.00 26.63     0.034 C 
BRANCH   8   9
ATOM      9  CG  LYS A 135      32.535  36.372  11.044  1.00 29.45     0.005 C 
BRANCH   9  10
ATOM     10  CD  LYS A 135      32.642  35.743  12.425  1.00 32.00     0.041 C 
BRANCH  10  11
ATOM     11  CE  LYS A 135      32.264  36.746  13.498  1.00 34.25     0.338 C 
ATOM     12  NZ  LYS A 135      31.285  37.742  12.980  1.00 35.99     0.618 N 
ENDBRANCH  10  11
ENDBRANCH   9  10
ENDBRANCH   8   9
ENDBRANCH   7   8
END_RES LYS A 135
