REMARK VINA RESULT:    -4.062      3.999      8.091
REMARK INTER + INTRA:         -22.935
REMARK INTER:                 -12.130
REMARK INTRA:                 -10.805
REMARK UNBOUND:               -12.699
REMARK SMILES CC(=O)N[C@@H]1[C@@H](O)C[C@](OC[C@H]2O[C@@H](O[C@H]3[C@H](O)[C@@H](O)[C@H](OCCN=[N+]=[N-])O[C@@H]3CO)[C@H](O)[C@@H](O)[C@H]2O)(C(=O)O)O[C@H]1C(O)[C@H](O)CNC(=O)OCc1cn(Cc2ccc(Br)cc2)nn1
REMARK SMILES IDX 9 1 8 2 6 3 5 4 42 5 41 6 10 7 11 8 12 9 14 10 13 11 32 12
REMARK SMILES IDX 34 13 36 14 15 15 16 16 29 17 28 18 21 19 17 20 19 21 30 22
REMARK SMILES IDX 31 23 22 25 23 26 24 27 25 28 26 29 27 30 18 31 20 33 33 35
REMARK SMILES IDX 35 37 37 39 38 41 39 42 40 43 7 45 43 47 44 48 45 50 46 51
REMARK SMILES IDX 47 53 48 54 49 55 50 57 51 58 52 59 53 60 54 61 65 62 55 63
REMARK SMILES IDX 64 64 56 65 57 66 58 67 63 68 59 69 62 70 60 71 61 72 4 73
REMARK SMILES IDX 2 74 1 76 3 77
REMARK H PARENT 31 24 18 32 20 34 33 36 35 38 37 40 40 44 7 46 44 49 46 52
REMARK H PARENT 48 56 4 75
REMARK Flexibility Score: inf
ROOT
ATOM      1  C   UNL     1      32.493  35.313  14.970  1.00  0.00     0.272 C 
ATOM      2  C   UNL     1      33.297  36.343  15.676  1.00  0.00     0.113 C 
ATOM      3  C   UNL     1      32.641  37.606  16.073  1.00  0.00     0.145 C 
ATOM      4  C   UNL     1      31.337  37.911  15.288  1.00  0.00     0.142 C 
ATOM      5  C   UNL     1      31.597  37.243  13.966  1.00  0.00     0.178 C 
ATOM      6  O   UNL     1      31.405  35.866  14.271  1.00  0.00    -0.332 OA
ENDROOT
BRANCH   1   7
ATOM      7  O   UNL     1      32.208  34.154  15.553  1.00  0.00    -0.338 OA
BRANCH   7   8
ATOM      8  C   UNL     1      31.865  33.743  16.714  1.00  0.00     0.199 C 
BRANCH   8   9
ATOM      9  C   UNL     1      30.529  33.045  16.818  1.00  0.00     0.179 C 
ATOM     10  C   UNL     1      28.310  33.178  16.367  1.00  0.00     0.282 C 
ATOM     11  O   UNL     1      29.475  33.852  16.480  1.00  0.00    -0.341 OA
ATOM     12  C   UNL     1      28.287  31.761  16.911  1.00  0.00     0.202 C 
ATOM     13  C   UNL     1      29.459  30.950  16.405  1.00  0.00     0.179 C 
ATOM     14  C   UNL     1      30.517  31.875  15.821  1.00  0.00     0.177 C 
BRANCH  10  15
ATOM     15  O   UNL     1      27.708  33.147  15.153  1.00  0.00    -0.341 OA
BRANCH  15  16
ATOM     16  C   UNL     1      26.888  34.101  14.693  1.00  0.00     0.184 C 
ATOM     17  C   UNL     1      25.543  33.663  14.212  1.00  0.00     0.178 C 
ATOM     18  O   UNL     1      25.334  33.866  12.875  1.00  0.00    -0.341 OA
ATOM     19  C   UNL     1      25.396  35.193  12.477  1.00  0.00     0.281 C 
ATOM     20  C   UNL     1      27.579  34.864  13.582  1.00  0.00     0.180 C 
ATOM     21  C   UNL     1      26.611  35.893  13.054  1.00  0.00     0.202 C 
BRANCH  17  22
ATOM     22  C   UNL     1      24.474  34.316  15.057  1.00  0.00     0.191 C 
BRANCH  22  23
ATOM     23  O   UNL     1      25.024  35.288  15.919  1.00  0.00    -0.394 OA
ATOM     24  H   UNL     1      25.528  34.874  16.642  1.00  0.00     0.210 HD
ENDBRANCH  22  23
ENDBRANCH  17  22
BRANCH  19  25
ATOM     25  O   UNL     1      24.239  35.914  12.724  1.00  0.00    -0.350 OA
BRANCH  25  26
ATOM     26  C   UNL     1      23.520  36.277  11.617  1.00  0.00     0.169 C 
BRANCH  26  27
ATOM     27  C   UNL     1      22.867  35.127  10.907  1.00  0.00     0.119 C 
BRANCH  27  28
ATOM     28  N   UNL     1      23.082  35.241   9.469  1.00  0.00    -0.092 NA
ATOM     29  N   UNL     1      22.193  35.692   8.750  1.00  0.00     0.001 N 
ATOM     30  N   UNL     1      21.315  35.920   7.887  1.00  0.00    -0.003 NA
ENDBRANCH  27  28
ENDBRANCH  26  27
ENDBRANCH  25  26
ENDBRANCH  19  25
BRANCH  20  31
ATOM     31  O   UNL     1      28.642  35.568  14.181  1.00  0.00    -0.387 OA
ATOM     32  H   UNL     1      28.355  35.918  15.070  1.00  0.00     0.211 HD
ENDBRANCH  20  31
BRANCH  21  33
ATOM     33  O   UNL     1      27.203  36.749  12.132  1.00  0.00    -0.385 OA
ATOM     34  H   UNL     1      26.614  36.773  11.336  1.00  0.00     0.211 HD
ENDBRANCH  21  33
ENDBRANCH  15  16
ENDBRANCH  10  15
BRANCH  12  35
ATOM     35  O   UNL     1      28.252  31.697  18.293  1.00  0.00    -0.385 OA
ATOM     36  H   UNL     1      27.538  32.231  18.712  1.00  0.00     0.211 HD
ENDBRANCH  12  35
BRANCH  13  37
ATOM     37  O   UNL     1      29.093  29.976  15.484  1.00  0.00    -0.387 OA
ATOM     38  H   UNL     1      28.969  29.134  15.988  1.00  0.00     0.211 HD
ENDBRANCH  13  37
BRANCH  14  39
ATOM     39  O   UNL     1      30.106  32.415  14.597  1.00  0.00    -0.387 OA
ATOM     40  H   UNL     1      30.563  33.265  14.441  1.00  0.00     0.211 HD
ENDBRANCH  14  39
ENDBRANCH   8   9
ENDBRANCH   7   8
ENDBRANCH   1   7
BRANCH   1  41
ATOM     41  C   UNL     1      33.386  34.854  13.804  1.00  0.00     0.364 C 
ATOM     42  O   UNL     1      34.534  34.500  14.063  1.00  0.00    -0.246 OA
BRANCH  41  43
ATOM     43  O   UNL     1      32.950  34.827  12.506  1.00  0.00    -0.477 OA
ATOM     44  H   UNL     1      32.903  35.706  11.967  1.00  0.00     0.296 HD
ENDBRANCH  41  43
ENDBRANCH   1  41
BRANCH   3  45
ATOM     45  O   UNL     1      32.458  37.807  17.431  1.00  0.00    -0.391 OA
ATOM     46  H   UNL     1      32.036  37.006  17.810  1.00  0.00     0.211 HD
ENDBRANCH   3  45
BRANCH   5  47
ATOM     47  C   UNL     1      30.734  37.618  12.820  1.00  0.00     0.176 C 
BRANCH  47  48
ATOM     48  O   UNL     1      29.575  38.215  13.193  1.00  0.00    -0.388 OA
ATOM     49  H   UNL     1      28.791  37.712  12.945  1.00  0.00     0.211 HD
ENDBRANCH  47  48
BRANCH  47  50
ATOM     50  C   UNL     1      31.342  38.173  11.601  1.00  0.00     0.165 C 
BRANCH  50  51
ATOM     51  O   UNL     1      32.508  37.489  11.220  1.00  0.00    -0.388 OA
ATOM     52  H   UNL     1      33.223  38.054  10.893  1.00  0.00     0.211 HD
ENDBRANCH  50  51
BRANCH  50  53
ATOM     53  C   UNL     1      31.500  39.631  11.449  1.00  0.00     0.154 C 
BRANCH  53  54
ATOM     54  N   UNL     1      30.270  40.401  11.524  1.00  0.00    -0.319 N 
ATOM     55  C   UNL     1      30.103  41.452  12.463  1.00  0.00     0.407 C 
ATOM     56  H   UNL     1      29.450  40.223  10.892  1.00  0.00     0.167 HD
ATOM     57  O   UNL     1      31.052  41.748  13.258  1.00  0.00    -0.225 OA
BRANCH  55  58
ATOM     58  O   UNL     1      28.936  42.201  12.578  1.00  0.00    -0.443 OA
BRANCH  58  59
ATOM     59  C   UNL     1      27.843  41.714  13.379  1.00  0.00     0.294 C 
BRANCH  59  60
ATOM     60  C   UNL     1      26.953  40.816  12.625  1.00  0.00     0.120 A 
ATOM     61  C   UNL     1      26.607  40.969  11.296  1.00  0.00     0.138 A 
ATOM     62  N   UNL     1      26.324  39.725  13.064  1.00  0.00    -0.132 NA
ATOM     63  N   UNL     1      25.782  39.968  10.969  1.00  0.00    -0.248 N 
ATOM     64  N   UNL     1      25.629  39.236  12.053  1.00  0.00    -0.067 NA
BRANCH  63  65
ATOM     65  C   UNL     1      25.168  39.686   9.686  1.00  0.00     0.181 C 
BRANCH  65  66
ATOM     66  C   UNL     1      25.934  38.729   8.855  1.00  0.00    -0.026 A 
ATOM     67  C   UNL     1      26.924  39.242   8.011  1.00  0.00     0.007 A 
ATOM     68  C   UNL     1      25.748  37.376   8.869  1.00  0.00     0.007 A 
ATOM     69  C   UNL     1      27.679  38.388   7.224  1.00  0.00     0.016 A 
ATOM     70  C   UNL     1      26.502  36.505   8.082  1.00  0.00     0.016 A 
ATOM     71  C   UNL     1      27.468  37.021   7.261  1.00  0.00     0.017 A 
ATOM     72  Br  UNL     1      28.539  35.866   6.156  1.00  0.00    -0.051 Br
ENDBRANCH  65  66
ENDBRANCH  63  65
ENDBRANCH  59  60
ENDBRANCH  58  59
ENDBRANCH  55  58
ENDBRANCH  53  54
ENDBRANCH  50  53
ENDBRANCH  47  50
ENDBRANCH   5  47
BRANCH   4  73
ATOM     73  N   UNL     1      31.107  39.310  15.274  1.00  0.00    -0.348 N 
ATOM     74  C   UNL     1      30.264  39.911  16.241  1.00  0.00     0.217 C 
ATOM     75  H   UNL     1      31.565  39.910  14.568  1.00  0.00     0.163 HD
ATOM     76  C   UNL     1      29.962  41.341  16.326  1.00  0.00     0.114 C 
ATOM     77  O   UNL     1      29.720  39.150  17.119  1.00  0.00    -0.275 OA
ENDBRANCH   4  73
TORSDOF 31
BEGIN_RES LYS A 131
REMARK  4 active torsions:
REMARK  status: ('A' for Active; 'I' for Inactive)
REMARK    1  A    between atoms: CA   and  CB  
REMARK    2  A    between atoms: CB   and  CG  
REMARK    3  A    between atoms: CG   and  CD  
REMARK    4  A    between atoms: CD   and  CE  
ROOT
ATOM      1  CA  LYS A 131      29.867  25.555  16.977  1.00 20.52     0.186 C 
ENDROOT
BRANCH   1   2
ATOM      2  CB  LYS A 131      28.345  25.722  17.026  1.00 20.94     0.034 C 
BRANCH   2   3
ATOM      3  CG  LYS A 131      27.600  24.407  16.855  1.00 22.96     0.005 C 
BRANCH   3   4
ATOM      4  CD  LYS A 131      26.420  24.300  17.780  1.00 24.33     0.041 C 
BRANCH   4   5
ATOM      5  CE  LYS A 131      25.729  22.956  17.570  1.00 26.91     0.338 C 
ATOM      6  NZ  LYS A 131      24.339  23.156  17.095  1.00 27.40     0.618 N 
ENDBRANCH   4   5
ENDBRANCH   3   4
ENDBRANCH   2   3
ENDBRANCH   1   2
END_RES LYS A 131
BEGIN_RES LYS A 135
REMARK  4 active torsions:
REMARK  status: ('A' for Active; 'I' for Inactive)
REMARK    5  A    between atoms: CA   and  CB  
REMARK    6  A    between atoms: CB   and  CG  
REMARK    7  A    between atoms: CG   and  CD  
REMARK    8  A    between atoms: CD   and  CE  
ROOT
ATOM      7  CA  LYS A 135      33.193  34.663   9.290  1.00 25.02     0.186 C 
ENDROOT
BRANCH   7   8
ATOM      8  CB  LYS A 135      32.060  35.360  10.034  1.00 26.63     0.034 C 
BRANCH   8   9
ATOM      9  CG  LYS A 135      30.756  35.364   9.279  1.00 29.45     0.005 C 
BRANCH   9  10
ATOM     10  CD  LYS A 135      29.630  34.828  10.149  1.00 32.00     0.041 C 
BRANCH  10  11
ATOM     11  CE  LYS A 135      28.768  33.856   9.366  1.00 34.25     0.338 C 
ATOM     12  NZ  LYS A 135      27.412  33.734   9.970  1.00 35.99     0.618 N 
ENDBRANCH  10  11
ENDBRANCH   9  10
ENDBRANCH   8   9
ENDBRANCH   7   8
END_RES LYS A 135
