REMARK VINA RESULT:    -4.889      0.000      0.000
REMARK INTER + INTRA:         -23.669
REMARK INTER:                 -11.979
REMARK INTRA:                 -11.689
REMARK UNBOUND:               -11.064
REMARK SMILES CC(=O)N[C@@H]1[C@@H](O)C[C@](OC[C@H]2O[C@@H](O[C@H]3[C@H](O)[C@@H](O)[C@H](OCCN=[N+]=[N-])O[C@@H]3CO)[C@H](O)[C@@H](O)[C@H]2O)(C(=O)O)O[C@H]1C(O)[C@H](O)CNC(=O)OCc1cn(CC(=O)Nc2ncccn2)nn1
REMARK SMILES IDX 9 1 8 2 6 3 5 4 42 5 41 6 10 7 11 8 12 9 14 10 13 11 32 12
REMARK SMILES IDX 34 13 36 14 15 15 16 16 29 17 28 18 21 19 17 20 19 21 30 22
REMARK SMILES IDX 31 23 22 25 23 26 24 27 25 28 26 29 27 30 18 31 20 33 33 35
REMARK SMILES IDX 35 37 37 39 38 41 39 42 40 43 7 45 43 47 44 48 45 50 46 51
REMARK SMILES IDX 47 53 48 54 49 55 50 57 51 58 52 59 53 60 54 61 67 62 55 63
REMARK SMILES IDX 66 64 56 65 57 66 58 67 59 68 60 70 61 71 65 72 62 73 64 74
REMARK SMILES IDX 63 75 4 76 2 77 1 79 3 80
REMARK H PARENT 31 24 18 32 20 34 33 36 35 38 37 40 40 44 7 46 44 49 46 52
REMARK H PARENT 48 56 59 69 4 78
REMARK Flexibility Score: inf
ROOT
ATOM      1  C   UNL     1      25.289  35.811  12.899  1.00  0.00     0.272 C 
ATOM      2  C   UNL     1      24.960  36.096  14.355  1.00  0.00     0.113 C 
ATOM      3  C   UNL     1      26.191  36.281  15.146  1.00  0.00     0.145 C 
ATOM      4  C   UNL     1      27.251  37.170  14.516  1.00  0.00     0.142 C 
ATOM      5  C   UNL     1      27.206  37.191  13.055  1.00  0.00     0.178 C 
ATOM      6  O   UNL     1      25.918  37.066  12.552  1.00  0.00    -0.332 OA
ENDROOT
BRANCH   1   7
ATOM      7  O   UNL     1      24.159  35.764  12.205  1.00  0.00    -0.338 OA
BRANCH   7   8
ATOM      8  C   UNL     1      23.557  35.018  11.369  1.00  0.00     0.199 C 
BRANCH   8   9
ATOM      9  C   UNL     1      23.176  35.322   9.959  1.00  0.00     0.179 C 
ATOM     10  C   UNL     1      21.692  36.729   8.831  1.00  0.00     0.282 C 
ATOM     11  O   UNL     1      22.063  36.264  10.054  1.00  0.00    -0.341 OA
ATOM     12  C   UNL     1      22.689  37.844   8.376  1.00  0.00     0.202 C 
ATOM     13  C   UNL     1      23.892  37.578   9.259  1.00  0.00     0.179 C 
ATOM     14  C   UNL     1      24.150  36.061   9.117  1.00  0.00     0.177 C 
BRANCH  10  15
ATOM     15  O   UNL     1      20.430  37.330   8.922  1.00  0.00    -0.341 OA
BRANCH  15  16
ATOM     16  C   UNL     1      19.503  36.765   8.056  1.00  0.00     0.184 C 
ATOM     17  C   UNL     1      18.106  37.169   8.544  1.00  0.00     0.178 C 
ATOM     18  O   UNL     1      17.285  36.060   8.684  1.00  0.00    -0.341 OA
ATOM     19  C   UNL     1      17.775  35.189   9.668  1.00  0.00     0.281 C 
ATOM     20  C   UNL     1      19.671  35.293   8.007  1.00  0.00     0.180 C 
ATOM     21  C   UNL     1      18.970  34.503   9.070  1.00  0.00     0.202 C 
BRANCH  17  22
ATOM     22  C   UNL     1      17.450  38.079   7.519  1.00  0.00     0.191 C 
BRANCH  22  23
ATOM     23  O   UNL     1      18.073  37.961   6.276  1.00  0.00    -0.394 OA
ATOM     24  H   UNL     1      18.115  37.015   5.966  1.00  0.00     0.210 HD
ENDBRANCH  22  23
ENDBRANCH  17  22
BRANCH  19  25
ATOM     25  O   UNL     1      16.759  34.284   9.910  1.00  0.00    -0.350 OA
BRANCH  25  26
ATOM     26  C   UNL     1      16.679  33.272   8.976  1.00  0.00     0.169 C 
BRANCH  26  27
ATOM     27  C   UNL     1      16.421  31.903   9.568  1.00  0.00     0.119 C 
BRANCH  27  28
ATOM     28  N   UNL     1      17.287  30.892   8.984  1.00  0.00    -0.092 NA
ATOM     29  N   UNL     1      17.353  30.716   7.763  1.00  0.00     0.001 N 
ATOM     30  N   UNL     1      17.185  30.598   6.554  1.00  0.00    -0.003 NA
ENDBRANCH  27  28
ENDBRANCH  26  27
ENDBRANCH  25  26
ENDBRANCH  19  25
BRANCH  20  31
ATOM     31  O   UNL     1      19.151  34.813   6.774  1.00  0.00    -0.387 OA
ATOM     32  H   UNL     1      19.000  35.587   6.158  1.00  0.00     0.211 HD
ENDBRANCH  20  31
BRANCH  21  33
ATOM     33  O   UNL     1      19.882  34.197  10.075  1.00  0.00    -0.385 OA
ATOM     34  H   UNL     1      19.867  33.227  10.253  1.00  0.00     0.211 HD
ENDBRANCH  21  33
ENDBRANCH  15  16
ENDBRANCH  10  15
BRANCH  12  35
ATOM     35  O   UNL     1      23.100  37.540   7.073  1.00  0.00    -0.385 OA
ATOM     36  H   UNL     1      24.031  37.879   6.990  1.00  0.00     0.211 HD
ENDBRANCH  12  35
BRANCH  13  37
ATOM     37  O   UNL     1      23.722  37.973  10.558  1.00  0.00    -0.387 OA
ATOM     38  H   UNL     1      23.650  38.940  10.674  1.00  0.00     0.211 HD
ENDBRANCH  13  37
BRANCH  14  39
ATOM     39  O   UNL     1      25.477  35.849   9.247  1.00  0.00    -0.387 OA
ATOM     40  H   UNL     1      25.682  34.980   9.671  1.00  0.00     0.211 HD
ENDBRANCH  14  39
ENDBRANCH   8   9
ENDBRANCH   7   8
ENDBRANCH   1   7
BRANCH   1  41
ATOM     41  C   UNL     1      26.235  34.743  12.658  1.00  0.00     0.364 C 
ATOM     42  O   UNL     1      26.809  34.645  11.520  1.00  0.00    -0.246 OA
BRANCH  41  43
ATOM     43  O   UNL     1      26.594  33.773  13.563  1.00  0.00    -0.477 OA
ATOM     44  H   UNL     1      27.436  33.748  14.086  1.00  0.00     0.296 HD
ENDBRANCH  41  43
ENDBRANCH   1  41
BRANCH   3  45
ATOM     45  O   UNL     1      25.799  36.833  16.392  1.00  0.00    -0.391 OA
ATOM     46  H   UNL     1      24.885  36.485  16.623  1.00  0.00     0.211 HD
ENDBRANCH   3  45
BRANCH   5  47
ATOM     47  C   UNL     1      27.724  38.501  12.406  1.00  0.00     0.176 C 
BRANCH  47  48
ATOM     48  O   UNL     1      28.105  39.461  13.262  1.00  0.00    -0.388 OA
ATOM     49  H   UNL     1      28.060  40.394  12.911  1.00  0.00     0.211 HD
ENDBRANCH  47  48
BRANCH  47  50
ATOM     50  C   UNL     1      28.359  38.362  11.110  1.00  0.00     0.165 C 
BRANCH  50  51
ATOM     51  O   UNL     1      27.637  37.203  10.495  1.00  0.00    -0.388 OA
ATOM     52  H   UNL     1      26.748  37.171  10.881  1.00  0.00     0.211 HD
ENDBRANCH  50  51
BRANCH  50  53
ATOM     53  C   UNL     1      29.766  38.134  10.851  1.00  0.00     0.154 C 
BRANCH  53  54
ATOM     54  N   UNL     1      30.688  37.439  11.623  1.00  0.00    -0.319 N 
ATOM     55  C   UNL     1      31.331  37.676  12.855  1.00  0.00     0.407 C 
ATOM     56  H   UNL     1      30.994  36.467  11.161  1.00  0.00     0.167 HD
ATOM     57  O   UNL     1      31.118  38.717  13.503  1.00  0.00    -0.225 OA
BRANCH  55  58
ATOM     58  O   UNL     1      32.208  36.768  13.392  1.00  0.00    -0.443 OA
BRANCH  58  59
ATOM     59  C   UNL     1      32.260  35.420  13.259  1.00  0.00     0.294 C 
BRANCH  59  60
ATOM     60  C   UNL     1      31.156  34.697  13.931  1.00  0.00     0.120 A 
ATOM     61  C   UNL     1      31.255  33.930  15.100  1.00  0.00     0.138 A 
ATOM     62  N   UNL     1      29.853  34.548  13.564  1.00  0.00    -0.132 NA
ATOM     63  N   UNL     1      30.077  33.368  15.389  1.00  0.00    -0.243 N 
ATOM     64  N   UNL     1      29.255  33.767  14.435  1.00  0.00    -0.067 NA
BRANCH  63  65
ATOM     65  C   UNL     1      29.711  32.502  16.493  1.00  0.00     0.246 C 
BRANCH  65  66
ATOM     66  C   UNL     1      28.632  31.562  15.996  1.00  0.00     0.248 C 
ATOM     67  O   UNL     1      28.909  30.461  15.462  1.00  0.00    -0.272 OA
ATOM     68  N   UNL     1      27.267  31.919  16.129  1.00  0.00    -0.293 N 
ATOM     69  H   UNL     1      27.094  32.851  16.582  1.00  0.00     0.173 HD
BRANCH  68  70
ATOM     70  C   UNL     1      26.159  31.144  15.726  1.00  0.00     0.229 A 
ATOM     71  N   UNL     1      25.488  31.314  14.573  1.00  0.00    -0.221 NA
ATOM     72  N   UNL     1      25.735  30.169  16.556  1.00  0.00    -0.221 NA
ATOM     73  C   UNL     1      24.412  30.548  14.226  1.00  0.00     0.117 A 
ATOM     74  C   UNL     1      24.692  29.391  16.266  1.00  0.00     0.117 A 
ATOM     75  C   UNL     1      24.004  29.560  15.095  1.00  0.00     0.040 A 
ENDBRANCH  68  70
ENDBRANCH  65  66
ENDBRANCH  63  65
ENDBRANCH  59  60
ENDBRANCH  58  59
ENDBRANCH  55  58
ENDBRANCH  53  54
ENDBRANCH  50  53
ENDBRANCH  47  50
ENDBRANCH   5  47
BRANCH   4  76
ATOM     76  N   UNL     1      28.488  36.804  15.137  1.00  0.00    -0.348 N 
ATOM     77  C   UNL     1      29.175  37.707  16.033  1.00  0.00     0.217 C 
ATOM     78  H   UNL     1      28.944  35.869  14.970  1.00  0.00     0.163 HD
ATOM     79  C   UNL     1      30.445  37.263  16.645  1.00  0.00     0.114 C 
ATOM     80  O   UNL     1      28.697  38.835  16.273  1.00  0.00    -0.275 OA
ENDBRANCH   4  76
TORSDOF 32
BEGIN_RES LYS A 131
REMARK  4 active torsions:
REMARK  status: ('A' for Active; 'I' for Inactive)
REMARK    1  A    between atoms: CA   and  CB  
REMARK    2  A    between atoms: CB   and  CG  
REMARK    3  A    between atoms: CG   and  CD  
REMARK    4  A    between atoms: CD   and  CE  
ROOT
ATOM      1  CA  LYS A 131      29.867  25.555  16.977  1.00 20.52     0.186 C 
ENDROOT
BRANCH   1   2
ATOM      2  CB  LYS A 131      28.345  25.722  17.026  1.00 20.94     0.034 C 
BRANCH   2   3
ATOM      3  CG  LYS A 131      27.599  24.427  16.744  1.00 22.96     0.005 C 
BRANCH   3   4
ATOM      4  CD  LYS A 131      26.988  23.843  17.988  1.00 24.33     0.041 C 
BRANCH   4   5
ATOM      5  CE  LYS A 131      25.575  24.388  18.165  1.00 26.91     0.338 C 
ATOM      6  NZ  LYS A 131      24.817  24.288  16.895  1.00 27.40     0.618 N 
ENDBRANCH   4   5
ENDBRANCH   3   4
ENDBRANCH   2   3
ENDBRANCH   1   2
END_RES LYS A 131
BEGIN_RES LYS A 135
REMARK  4 active torsions:
REMARK  status: ('A' for Active; 'I' for Inactive)
REMARK    5  A    between atoms: CA   and  CB  
REMARK    6  A    between atoms: CB   and  CG  
REMARK    7  A    between atoms: CG   and  CD  
REMARK    8  A    between atoms: CD   and  CE  
ROOT
ATOM      7  CA  LYS A 135      33.193  34.663   9.290  1.00 25.02     0.186 C 
ENDROOT
BRANCH   7   8
ATOM      8  CB  LYS A 135      32.060  35.360  10.034  1.00 26.63     0.034 C 
BRANCH   8   9
ATOM      9  CG  LYS A 135      30.736  34.649   9.918  1.00 29.45     0.005 C 
BRANCH   9  10
ATOM     10  CD  LYS A 135      30.328  34.509   8.460  1.00 32.00     0.041 C 
BRANCH  10  11
ATOM     11  CE  LYS A 135      28.818  34.511   8.326  1.00 34.25     0.338 C 
ATOM     12  NZ  LYS A 135      28.380  35.378   7.197  1.00 35.99     0.618 N 
ENDBRANCH  10  11
ENDBRANCH   9  10
ENDBRANCH   8   9
ENDBRANCH   7   8
END_RES LYS A 135
