REMARK VINA RESULT:    -5.179      2.763      7.757
REMARK INTER + INTRA:         -24.855
REMARK INTER:                 -10.936
REMARK INTRA:                 -13.920
REMARK UNBOUND:               -11.349
REMARK SMILES CC(=O)N[C@@H]1[C@@H](O)C[C@](OC[C@H]2O[C@@H](O[C@H]3[C@H](O)[C@@H](O)[C@H](OCCN=[N+]=[N-])O[C@@H]3CO)[C@H](O)[C@@H](O)[C@H]2O)(C(=O)O)O[C@H]1C(O)[C@H](O)CNC(=O)OCc1cn(-c2ccc(-c3c4ccc(=O)cc-4oc4cc(O)ccc34)c(C(=O)[O-])c2)nn1
REMARK SMILES IDX 9 1 8 2 6 3 5 4 42 5 41 6 10 7 11 8 12 9 14 10 13 11 32 12
REMARK SMILES IDX 34 13 36 14 15 15 16 16 29 17 28 18 21 19 17 20 19 21 30 22
REMARK SMILES IDX 31 23 22 25 23 26 24 27 25 28 26 29 27 30 18 31 20 33 33 35
REMARK SMILES IDX 35 37 37 39 38 41 39 42 40 43 7 45 43 47 44 48 45 50 46 51
REMARK SMILES IDX 47 53 48 54 49 55 50 57 51 58 52 59 53 60 54 61 82 62 55 63
REMARK SMILES IDX 81 64 56 65 80 66 57 67 76 68 58 69 59 70 77 71 78 72 79 73
REMARK SMILES IDX 60 74 75 75 61 76 74 77 69 78 67 79 62 80 73 81 70 82 68 83
REMARK SMILES IDX 66 84 63 85 71 86 64 87 65 88 72 89 4 91 2 92 1 94 3 95
REMARK H PARENT 31 24 18 32 20 34 33 36 35 38 37 40 40 44 7 46 44 49 46 52
REMARK H PARENT 48 56 72 90 4 93
REMARK Flexibility Score: inf
ROOT
ATOM      1  C   UNL     1      28.235  39.013  14.147  1.00  0.00     0.272 C 
ATOM      2  C   UNL     1      26.748  38.764  14.088  1.00  0.00     0.113 C 
ATOM      3  C   UNL     1      26.355  37.762  13.040  1.00  0.00     0.145 C 
ATOM      4  C   UNL     1      27.519  37.598  12.095  1.00  0.00     0.142 C 
ATOM      5  C   UNL     1      28.038  38.982  11.806  1.00  0.00     0.178 C 
ATOM      6  O   UNL     1      28.729  39.453  12.894  1.00  0.00    -0.332 OA
ENDROOT
BRANCH   1   7
ATOM      7  O   UNL     1      29.000  37.973  14.596  1.00  0.00    -0.338 OA
BRANCH   7   8
ATOM      8  C   UNL     1      30.254  38.310  14.966  1.00  0.00     0.199 C 
BRANCH   8   9
ATOM      9  C   UNL     1      31.194  37.095  14.966  1.00  0.00     0.179 C 
ATOM     10  C   UNL     1      31.287  34.876  15.586  1.00  0.00     0.282 C 
ATOM     11  O   UNL     1      30.809  36.134  15.827  1.00  0.00    -0.341 OA
ATOM     12  C   UNL     1      32.589  34.813  14.888  1.00  0.00     0.202 C 
ATOM     13  C   UNL     1      32.629  35.662  13.639  1.00  0.00     0.179 C 
ATOM     14  C   UNL     1      31.420  36.582  13.592  1.00  0.00     0.177 C 
BRANCH  10  15
ATOM     15  O   UNL     1      30.238  34.148  15.027  1.00  0.00    -0.341 OA
BRANCH  15  16
ATOM     16  C   UNL     1      29.208  33.927  15.881  1.00  0.00     0.184 C 
ATOM     17  C   UNL     1      28.992  32.472  16.166  1.00  0.00     0.178 C 
ATOM     18  O   UNL     1      28.243  32.315  17.341  1.00  0.00    -0.341 OA
ATOM     19  C   UNL     1      27.186  33.217  17.389  1.00  0.00     0.281 C 
ATOM     20  C   UNL     1      27.855  34.413  15.329  1.00  0.00     0.180 C 
ATOM     21  C   UNL     1      26.749  33.663  16.040  1.00  0.00     0.202 C 
BRANCH  17  22
ATOM     22  C   UNL     1      30.305  31.774  16.346  1.00  0.00     0.191 C 
BRANCH  22  23
ATOM     23  O   UNL     1      30.885  32.209  17.539  1.00  0.00    -0.394 OA
ATOM     24  H   UNL     1      31.595  31.567  17.761  1.00  0.00     0.210 HD
ENDBRANCH  22  23
ENDBRANCH  17  22
BRANCH  19  25
ATOM     25  O   UNL     1      27.474  34.282  18.217  1.00  0.00    -0.350 OA
BRANCH  25  26
ATOM     26  C   UNL     1      26.366  34.824  18.855  1.00  0.00     0.169 C 
BRANCH  26  27
ATOM     27  C   UNL     1      26.571  36.328  18.864  1.00  0.00     0.119 C 
BRANCH  27  28
ATOM     28  N   UNL     1      26.117  36.940  17.644  1.00  0.00    -0.092 NA
ATOM     29  N   UNL     1      25.618  38.071  17.696  1.00  0.00     0.001 N 
ATOM     30  N   UNL     1      25.336  39.251  17.484  1.00  0.00    -0.003 NA
ENDBRANCH  27  28
ENDBRANCH  26  27
ENDBRANCH  25  26
ENDBRANCH  19  25
BRANCH  20  31
ATOM     31  O   UNL     1      27.748  35.755  15.686  1.00  0.00    -0.387 OA
ATOM     32  H   UNL     1      28.135  36.373  15.029  1.00  0.00     0.211 HD
ENDBRANCH  20  31
BRANCH  21  33
ATOM     33  O   UNL     1      26.217  32.624  15.275  1.00  0.00    -0.385 OA
ATOM     34  H   UNL     1      25.264  32.530  15.587  1.00  0.00     0.211 HD
ENDBRANCH  21  33
ENDBRANCH  15  16
ENDBRANCH  10  15
BRANCH  12  35
ATOM     35  O   UNL     1      33.637  35.210  15.758  1.00  0.00    -0.385 OA
ATOM     36  H   UNL     1      34.169  35.928  15.300  1.00  0.00     0.211 HD
ENDBRANCH  12  35
BRANCH  13  37
ATOM     37  O   UNL     1      32.773  34.904  12.489  1.00  0.00    -0.387 OA
ATOM     38  H   UNL     1      31.893  34.521  12.267  1.00  0.00     0.211 HD
ENDBRANCH  13  37
BRANCH  14  39
ATOM     39  O   UNL     1      30.361  35.860  13.058  1.00  0.00    -0.387 OA
ATOM     40  H   UNL     1      30.557  34.901  13.269  1.00  0.00     0.211 HD
ENDBRANCH  14  39
ENDBRANCH   8   9
ENDBRANCH   7   8
ENDBRANCH   1   7
BRANCH   1  41
ATOM     41  C   UNL     1      28.380  40.253  15.008  1.00  0.00     0.364 C 
ATOM     42  O   UNL     1      28.883  41.317  14.604  1.00  0.00    -0.246 OA
BRANCH  41  43
ATOM     43  O   UNL     1      27.936  40.235  16.328  1.00  0.00    -0.477 OA
ATOM     44  H   UNL     1      27.097  40.726  16.601  1.00  0.00     0.296 HD
ENDBRANCH  41  43
ENDBRANCH   1  41
BRANCH   3  45
ATOM     45  O   UNL     1      25.949  36.591  13.651  1.00  0.00    -0.391 OA
ATOM     46  H   UNL     1      25.642  36.822  14.563  1.00  0.00     0.211 HD
ENDBRANCH   3  45
BRANCH   5  47
ATOM     47  C   UNL     1      29.040  38.949  10.648  1.00  0.00     0.176 C 
BRANCH  47  48
ATOM     48  O   UNL     1      29.818  37.774  10.790  1.00  0.00    -0.388 OA
ATOM     49  H   UNL     1      30.432  37.641  10.051  1.00  0.00     0.211 HD
ENDBRANCH  47  48
BRANCH  47  50
ATOM     50  C   UNL     1      30.001  40.088  10.740  1.00  0.00     0.165 C 
BRANCH  50  51
ATOM     51  O   UNL     1      29.305  41.297  10.784  1.00  0.00    -0.388 OA
ATOM     52  H   UNL     1      29.848  41.955  11.289  1.00  0.00     0.211 HD
ENDBRANCH  50  51
BRANCH  50  53
ATOM     53  C   UNL     1      31.067  40.120   9.702  1.00  0.00     0.154 C 
BRANCH  53  54
ATOM     54  N   UNL     1      30.535  39.948   8.369  1.00  0.00    -0.319 N 
ATOM     55  C   UNL     1      30.072  41.005   7.550  1.00  0.00     0.407 C 
ATOM     56  H   UNL     1      30.466  38.983   7.922  1.00  0.00     0.167 HD
ATOM     57  O   UNL     1      30.108  42.178   7.969  1.00  0.00    -0.225 OA
BRANCH  55  58
ATOM     58  O   UNL     1      29.565  40.801   6.273  1.00  0.00    -0.443 OA
BRANCH  58  59
ATOM     59  C   UNL     1      28.897  39.590   5.901  1.00  0.00     0.294 C 
BRANCH  59  60
ATOM     60  C   UNL     1      27.596  39.606   6.617  1.00  0.00     0.121 A 
ATOM     61  C   UNL     1      26.964  38.545   7.204  1.00  0.00     0.144 A 
ATOM     62  N   UNL     1      26.785  40.682   6.825  1.00  0.00    -0.131 NA
ATOM     63  N   UNL     1      25.805  38.968   7.751  1.00  0.00    -0.220 N 
ATOM     64  N   UNL     1      25.728  40.273   7.501  1.00  0.00    -0.062 NA
BRANCH  63  65
ATOM     65  C   UNL     1      24.874  38.158   8.450  1.00  0.00     0.067 A 
ATOM     66  C   UNL     1      24.238  38.591   9.590  1.00  0.00     0.039 A 
ATOM     67  C   UNL     1      24.597  36.902   7.969  1.00  0.00     0.029 A 
ATOM     68  C   UNL     1      23.340  37.769  10.228  1.00  0.00     0.007 A 
ATOM     69  C   UNL     1      23.696  36.080   8.611  1.00  0.00     0.012 A 
ATOM     70  C   UNL     1      23.049  36.493   9.752  1.00  0.00    -0.008 A 
BRANCH  68  71
ATOM     71  C   UNL     1      22.645  38.200  11.444  1.00  0.00     0.072 C 
ATOM     72  O   UNL     1      21.579  38.861  11.402  1.00  0.00    -0.545 OA
ATOM     73  O   UNL     1      23.171  37.873  12.669  1.00  0.00    -0.545 OA
ENDBRANCH  68  71
BRANCH  70  74
ATOM     74  C   UNL     1      22.096  35.636  10.434  1.00  0.00     0.004 A 
ATOM     75  C   UNL     1      20.767  35.722  10.100  1.00  0.00     0.026 A 
ATOM     76  C   UNL     1      22.479  34.745  11.404  1.00  0.00     0.026 A 
ATOM     77  C   UNL     1      20.293  36.587   9.141  1.00  0.00     0.016 A 
ATOM     78  C   UNL     1      19.868  34.897  10.765  1.00  0.00     0.139 A 
ATOM     79  C   UNL     1      21.483  33.888  12.083  1.00  0.00     0.139 A 
ATOM     80  C   UNL     1      23.787  34.603  11.790  1.00  0.00     0.016 A 
ATOM     81  C   UNL     1      18.953  36.665   8.813  1.00  0.00     0.047 A 
ATOM     82  C   UNL     1      18.538  34.981  10.433  1.00  0.00     0.093 A 
ATOM     83  O   UNL     1      20.244  34.043  11.696  1.00  0.00    -0.456 OA
ATOM     84  C   UNL     1      21.870  32.998  13.052  1.00  0.00     0.099 A 
ATOM     85  C   UNL     1      24.163  33.700  12.770  1.00  0.00     0.053 A 
ATOM     86  C   UNL     1      18.054  35.851   9.466  1.00  0.00     0.119 A 
ATOM     87  C   UNL     1      23.202  32.916  13.382  1.00  0.00     0.182 A 
ATOM     88  O   UNL     1      23.608  32.114  14.266  1.00  0.00    -0.290 OA
BRANCH  86  89
ATOM     89  O   UNL     1      16.711  35.936   9.130  1.00  0.00    -0.508 OA
ATOM     90  H   UNL     1      16.047  35.913   9.900  1.00  0.00     0.293 HD
ENDBRANCH  86  89
ENDBRANCH  70  74
ENDBRANCH  63  65
ENDBRANCH  59  60
ENDBRANCH  58  59
ENDBRANCH  55  58
ENDBRANCH  53  54
ENDBRANCH  50  53
ENDBRANCH  47  50
ENDBRANCH   5  47
BRANCH   4  91
ATOM     91  N   UNL     1      27.159  36.887  10.888  1.00  0.00    -0.348 N 
ATOM     92  C   UNL     1      27.276  35.483  10.870  1.00  0.00     0.217 C 
ATOM     93  H   UNL     1      26.815  37.362  10.024  1.00  0.00     0.163 HD
ATOM     94  C   UNL     1      26.937  34.653   9.688  1.00  0.00     0.114 C 
ATOM     95  O   UNL     1      27.691  34.840  11.896  1.00  0.00    -0.275 OA
ENDBRANCH   4  91
TORSDOF 33
BEGIN_RES LYS A 131
REMARK  4 active torsions:
REMARK  status: ('A' for Active; 'I' for Inactive)
REMARK    1  A    between atoms: CA   and  CB  
REMARK    2  A    between atoms: CB   and  CG  
REMARK    3  A    between atoms: CG   and  CD  
REMARK    4  A    between atoms: CD   and  CE  
ROOT
ATOM      1  CA  LYS A 131      29.867  25.555  16.977  1.00 20.52     0.186 C 
ENDROOT
BRANCH   1   2
ATOM      2  CB  LYS A 131      28.345  25.722  17.026  1.00 20.94     0.034 C 
BRANCH   2   3
ATOM      3  CG  LYS A 131      27.602  24.399  16.922  1.00 22.96     0.005 C 
BRANCH   3   4
ATOM      4  CD  LYS A 131      26.166  24.521  17.350  1.00 24.33     0.041 C 
BRANCH   4   5
ATOM      5  CE  LYS A 131      25.911  23.607  18.544  1.00 26.91     0.338 C 
ATOM      6  NZ  LYS A 131      24.581  22.964  18.431  1.00 27.40     0.618 N 
ENDBRANCH   4   5
ENDBRANCH   3   4
ENDBRANCH   2   3
ENDBRANCH   1   2
END_RES LYS A 131
BEGIN_RES LYS A 135
REMARK  4 active torsions:
REMARK  status: ('A' for Active; 'I' for Inactive)
REMARK    5  A    between atoms: CA   and  CB  
REMARK    6  A    between atoms: CB   and  CG  
REMARK    7  A    between atoms: CG   and  CD  
REMARK    8  A    between atoms: CD   and  CE  
ROOT
ATOM      7  CA  LYS A 135      33.193  34.663   9.290  1.00 25.02     0.186 C 
ENDROOT
BRANCH   7   8
ATOM      8  CB  LYS A 135      32.060  35.360  10.034  1.00 26.63     0.034 C 
BRANCH   8   9
ATOM      9  CG  LYS A 135      30.707  34.748   9.781  1.00 29.45     0.005 C 
BRANCH   9  10
ATOM     10  CD  LYS A 135      30.425  34.665   8.289  1.00 32.00     0.041 C 
BRANCH  10  11
ATOM     11  CE  LYS A 135      29.630  35.872   7.829  1.00 34.25     0.338 C 
ATOM     12  NZ  LYS A 135      28.864  35.570   6.589  1.00 35.99     0.618 N 
ENDBRANCH  10  11
ENDBRANCH   9  10
ENDBRANCH   8   9
ENDBRANCH   7   8
END_RES LYS A 135
