REMARK VINA RESULT:    -5.013      0.000      0.000
REMARK INTER + INTRA:         -25.260
REMARK INTER:                 -14.602
REMARK INTRA:                 -10.658
REMARK UNBOUND:               -11.748
REMARK SMILES CC(=O)N[C@@H]1[C@@H](O)C[C@](OC[C@H]2O[C@@H](O[C@H]3[C@H](O)[C@@H](O)[C@H](OCCN=[N+]=[N-])O[C@@H]3CO)[C@H](O)[C@@H](O)[C@H]2O)(C(=O)O)O[C@H]1C(O)[C@H](O)CNC(=O)OCc1cn([C@@H](C)C(=O)OCc2ccccc2)nn1
REMARK SMILES IDX 43 1 42 2 9 3 8 4 41 5 6 6 5 7 10 8 11 9 12 10 14 11 13 12
REMARK SMILES IDX 32 13 34 14 36 15 15 16 16 17 29 18 28 19 21 20 17 21 19 22
REMARK SMILES IDX 30 23 31 24 22 26 23 27 24 28 25 29 26 30 27 31 18 32 20 34
REMARK SMILES IDX 33 36 35 38 37 40 38 42 39 43 40 44 7 46 4 48 2 49 1 51 3 52
REMARK SMILES IDX 44 53 45 55 46 56 47 58 48 59 49 60 50 62 51 63 52 64 53 65
REMARK SMILES IDX 54 66 69 67 55 68 68 69 56 70 57 71 58 72 59 73 60 74 61 75
REMARK SMILES IDX 62 76 63 77 67 78 64 79 66 80 65 81
REMARK H PARENT 31 25 18 33 20 35 33 37 35 39 37 41 40 45 7 47 4 50 44 54
REMARK H PARENT 46 57 48 61
REMARK Flexibility Score: inf
ROOT
ATOM      1  C   UNL     1      30.418  31.715  20.778  1.00  0.00     0.176 C 
ENDROOT
BRANCH   1   2
ATOM      2  C   UNL     1      31.761  31.100  20.837  1.00  0.00     0.178 C 
ATOM      3  C   UNL     1      31.314  28.960  21.656  1.00  0.00     0.272 C 
ATOM      4  C   UNL     1      32.045  29.310  22.895  1.00  0.00     0.113 C 
ATOM      5  O   UNL     1      31.827  29.758  20.572  1.00  0.00    -0.332 OA
ATOM      6  C   UNL     1      31.989  30.779  23.242  1.00  0.00     0.145 C 
ATOM      7  C   UNL     1      32.505  31.553  22.067  1.00  0.00     0.142 C 
BRANCH   3   8
ATOM      8  O   UNL     1      30.013  29.067  21.573  1.00  0.00    -0.338 OA
BRANCH   8   9
ATOM      9  C   UNL     1      29.027  28.455  22.162  1.00  0.00     0.199 C 
BRANCH   9  10
ATOM     10  C   UNL     1      27.662  28.305  21.551  1.00  0.00     0.179 C 
ATOM     11  C   UNL     1      26.196  29.534  20.226  1.00  0.00     0.282 C 
ATOM     12  O   UNL     1      27.188  29.536  21.204  1.00  0.00    -0.341 OA
ATOM     13  C   UNL     1      25.484  28.233  20.131  1.00  0.00     0.202 C 
ATOM     14  C   UNL     1      26.423  27.131  19.725  1.00  0.00     0.179 C 
ATOM     15  C   UNL     1      27.762  27.378  20.321  1.00  0.00     0.177 C 
BRANCH  11  16
ATOM     16  O   UNL     1      26.764  30.020  19.080  1.00  0.00    -0.341 OA
BRANCH  16  17
ATOM     17  C   UNL     1      25.913  30.642  18.215  1.00  0.00     0.184 C 
ATOM     18  C   UNL     1      26.613  30.860  16.898  1.00  0.00     0.178 C 
ATOM     19  O   UNL     1      25.808  31.633  16.053  1.00  0.00    -0.341 OA
ATOM     20  C   UNL     1      26.063  32.973  16.442  1.00  0.00     0.281 C 
ATOM     21  C   UNL     1      25.462  32.007  18.708  1.00  0.00     0.180 C 
ATOM     22  C   UNL     1      25.973  33.157  17.924  1.00  0.00     0.202 C 
BRANCH  18  23
ATOM     23  C   UNL     1      27.080  29.603  16.228  1.00  0.00     0.191 C 
BRANCH  23  24
ATOM     24  O   UNL     1      28.191  29.155  16.948  1.00  0.00    -0.394 OA
ATOM     25  H   UNL     1      28.049  28.273  17.367  1.00  0.00     0.210 HD
ENDBRANCH  23  24
ENDBRANCH  18  23
BRANCH  20  26
ATOM     26  O   UNL     1      25.240  33.776  15.718  1.00  0.00    -0.350 OA
BRANCH  26  27
ATOM     27  C   UNL     1      23.999  33.335  15.398  1.00  0.00     0.169 C 
BRANCH  27  28
ATOM     28  C   UNL     1      23.498  33.595  14.023  1.00  0.00     0.119 C 
BRANCH  28  29
ATOM     29  N   UNL     1      24.015  32.791  12.975  1.00  0.00    -0.092 NA
ATOM     30  N   UNL     1      24.261  31.599  13.121  1.00  0.00     0.001 N 
ATOM     31  N   UNL     1      24.369  30.359  13.153  1.00  0.00    -0.003 NA
ENDBRANCH  28  29
ENDBRANCH  27  28
ENDBRANCH  26  27
ENDBRANCH  20  26
BRANCH  21  32
ATOM     32  O   UNL     1      24.068  32.089  18.773  1.00  0.00    -0.387 OA
ATOM     33  H   UNL     1      23.622  31.232  18.589  1.00  0.00     0.211 HD
ENDBRANCH  21  32
BRANCH  22  34
ATOM     34  O   UNL     1      27.169  33.610  18.491  1.00  0.00    -0.385 OA
ATOM     35  H   UNL     1      27.421  32.947  19.189  1.00  0.00     0.211 HD
ENDBRANCH  22  34
ENDBRANCH  16  17
ENDBRANCH  11  16
BRANCH  13  36
ATOM     36  O   UNL     1      24.897  27.958  21.389  1.00  0.00    -0.385 OA
ATOM     37  H   UNL     1      24.048  27.467  21.165  1.00  0.00     0.211 HD
ENDBRANCH  13  36
BRANCH  14  38
ATOM     38  O   UNL     1      26.434  27.041  18.348  1.00  0.00    -0.387 OA
ATOM     39  H   UNL     1      26.205  27.905  17.909  1.00  0.00     0.211 HD
ENDBRANCH  14  38
BRANCH  15  40
ATOM     40  O   UNL     1      28.681  27.858  19.398  1.00  0.00    -0.387 OA
ATOM     41  H   UNL     1      29.433  27.195  19.307  1.00  0.00     0.211 HD
ENDBRANCH  15  40
ENDBRANCH   9  10
ENDBRANCH   8   9
ENDBRANCH   3   8
BRANCH   3  42
ATOM     42  C   UNL     1      31.821  27.606  21.200  1.00  0.00     0.364 C 
ATOM     43  O   UNL     1      32.276  26.780  22.003  1.00  0.00    -0.246 OA
BRANCH  42  44
ATOM     44  O   UNL     1      31.788  27.252  19.853  1.00  0.00    -0.477 OA
ATOM     45  H   UNL     1      31.401  26.379  19.508  1.00  0.00     0.296 HD
ENDBRANCH  42  44
ENDBRANCH   3  42
BRANCH   6  46
ATOM     46  O   UNL     1      30.723  31.193  23.645  1.00  0.00    -0.391 OA
ATOM     47  H   UNL     1      30.100  30.942  22.925  1.00  0.00     0.211 HD
ENDBRANCH   6  46
BRANCH   7  48
ATOM     48  N   UNL     1      33.937  31.311  21.943  1.00  0.00    -0.348 N 
ATOM     49  C   UNL     1      34.801  32.433  21.740  1.00  0.00     0.217 C 
ATOM     50  H   UNL     1      34.371  30.368  21.992  1.00  0.00     0.163 HD
ATOM     51  C   UNL     1      36.268  32.186  21.612  1.00  0.00     0.114 C 
ATOM     52  O   UNL     1      34.324  33.598  21.672  1.00  0.00    -0.275 OA
ENDBRANCH   7  48
ENDBRANCH   1   2
BRANCH   1  53
ATOM     53  O   UNL     1      30.543  33.098  21.053  1.00  0.00    -0.388 OA
ATOM     54  H   UNL     1      31.487  33.320  21.281  1.00  0.00     0.211 HD
ENDBRANCH   1  53
BRANCH   1  55
ATOM     55  C   UNL     1      29.787  31.683  19.377  1.00  0.00     0.165 C 
BRANCH  55  56
ATOM     56  O   UNL     1      29.479  30.422  18.972  1.00  0.00    -0.388 OA
ATOM     57  H   UNL     1      29.838  30.237  18.073  1.00  0.00     0.211 HD
ENDBRANCH  55  56
BRANCH  55  58
ATOM     58  C   UNL     1      30.585  32.502  18.414  1.00  0.00     0.154 C 
BRANCH  58  59
ATOM     59  N   UNL     1      29.832  32.762  17.218  1.00  0.00    -0.319 N 
ATOM     60  C   UNL     1      30.093  33.785  16.277  1.00  0.00     0.407 C 
ATOM     61  H   UNL     1      28.988  32.153  16.973  1.00  0.00     0.167 HD
ATOM     62  O   UNL     1      31.024  34.578  16.436  1.00  0.00    -0.225 OA
BRANCH  60  63
ATOM     63  O   UNL     1      29.298  33.933  15.129  1.00  0.00    -0.443 OA
BRANCH  63  64
ATOM     64  C   UNL     1      29.731  34.663  14.009  1.00  0.00     0.294 C 
BRANCH  64  65
ATOM     65  C   UNL     1      28.528  35.100  13.265  1.00  0.00     0.120 A 
ATOM     66  C   UNL     1      28.384  36.200  12.450  1.00  0.00     0.139 A 
ATOM     67  N   UNL     1      27.345  34.475  13.272  1.00  0.00    -0.132 NA
ATOM     68  N   UNL     1      27.107  36.221  11.977  1.00  0.00    -0.238 N 
ATOM     69  N   UNL     1      26.503  35.166  12.490  1.00  0.00    -0.066 NA
BRANCH  68  70
ATOM     70  C   UNL     1      26.630  37.260  11.098  1.00  0.00     0.215 C 
ATOM     71  C   UNL     1      27.762  37.848  10.276  1.00  0.00     0.046 C 
BRANCH  70  72
ATOM     72  C   UNL     1      25.567  36.722  10.176  1.00  0.00     0.331 C 
ATOM     73  O   UNL     1      24.376  36.793  10.522  1.00  0.00    -0.250 OA
BRANCH  72  74
ATOM     74  O   UNL     1      25.890  36.157   8.964  1.00  0.00    -0.459 OA
BRANCH  74  75
ATOM     75  C   UNL     1      26.316  34.830   8.778  1.00  0.00     0.268 C 
BRANCH  75  76
ATOM     76  C   UNL     1      27.777  34.694   8.606  1.00  0.00    -0.011 A 
ATOM     77  C   UNL     1      28.566  34.037   9.514  1.00  0.00     0.007 A 
ATOM     78  C   UNL     1      28.392  35.239   7.506  1.00  0.00     0.007 A 
ATOM     79  C   UNL     1      29.928  33.912   9.359  1.00  0.00     0.000 A 
ATOM     80  C   UNL     1      29.749  35.138   7.309  1.00  0.00     0.000 A 
ATOM     81  C   UNL     1      30.517  34.465   8.251  1.00  0.00     0.000 A 
ENDBRANCH  75  76
ENDBRANCH  74  75
ENDBRANCH  72  74
ENDBRANCH  70  72
ENDBRANCH  68  70
ENDBRANCH  64  65
ENDBRANCH  63  64
ENDBRANCH  60  63
ENDBRANCH  58  59
ENDBRANCH  55  58
ENDBRANCH   1  55
TORSDOF 34
BEGIN_RES LYS A 131
REMARK  4 active torsions:
REMARK  status: ('A' for Active; 'I' for Inactive)
REMARK    1  A    between atoms: CA   and  CB  
REMARK    2  A    between atoms: CB   and  CG  
REMARK    3  A    between atoms: CG   and  CD  
REMARK    4  A    between atoms: CD   and  CE  
ROOT
ATOM      1  CA  LYS A 131      29.867  25.555  16.977  1.00 20.52     0.186 C 
ENDROOT
BRANCH   1   2
ATOM      2  CB  LYS A 131      28.345  25.722  17.026  1.00 20.94     0.034 C 
BRANCH   2   3
ATOM      3  CG  LYS A 131      27.599  24.479  16.565  1.00 22.96     0.005 C 
BRANCH   3   4
ATOM      4  CD  LYS A 131      27.369  23.507  17.689  1.00 24.33     0.041 C 
BRANCH   4   5
ATOM      5  CE  LYS A 131      25.932  23.632  18.184  1.00 26.91     0.338 C 
ATOM      6  NZ  LYS A 131      25.110  22.507  17.680  1.00 27.40     0.618 N 
ENDBRANCH   4   5
ENDBRANCH   3   4
ENDBRANCH   2   3
ENDBRANCH   1   2
END_RES LYS A 131
BEGIN_RES LYS A 135
REMARK  4 active torsions:
REMARK  status: ('A' for Active; 'I' for Inactive)
REMARK    5  A    between atoms: CA   and  CB  
REMARK    6  A    between atoms: CB   and  CG  
REMARK    7  A    between atoms: CG   and  CD  
REMARK    8  A    between atoms: CD   and  CE  
ROOT
ATOM      7  CA  LYS A 135      33.193  34.663   9.290  1.00 25.02     0.186 C 
ENDROOT
BRANCH   7   8
ATOM      8  CB  LYS A 135      32.060  35.360  10.034  1.00 26.63     0.034 C 
BRANCH   8   9
ATOM      9  CG  LYS A 135      32.482  35.956  11.352  1.00 29.45     0.005 C 
BRANCH   9  10
ATOM     10  CD  LYS A 135      31.900  37.351  11.521  1.00 32.00     0.041 C 
BRANCH  10  11
ATOM     11  CE  LYS A 135      31.529  37.940  10.173  1.00 34.25     0.338 C 
ATOM     12  NZ  LYS A 135      31.484  39.428  10.232  1.00 35.99     0.618 N 
ENDBRANCH  10  11
ENDBRANCH   9  10
ENDBRANCH   8   9
ENDBRANCH   7   8
END_RES LYS A 135
