REMARK VINA RESULT:    -4.117      4.186     10.042
REMARK INTER + INTRA:         -22.067
REMARK INTER:                 -10.068
REMARK INTRA:                 -11.999
REMARK UNBOUND:               -10.971
REMARK SMILES C=CCCCCn1cc(COC(=O)NC[C@@H](O)C(O)[C@@H]2O[C@@](OC[C@H]3O[C@@H](O[C@H]4[C@H](O)[C@@H](O)[C@H](OCCN=[N+]=[N-])O[C@@H]4CO)[C@H](O)[C@@H](O)[C@H]3O)(C(=O)O)C[C@H](O)[C@H]2NC(C)=O)nn1
REMARK SMILES IDX 18 1 20 2 22 3 54 4 21 5 55 6 57 7 23 8 24 9 25 10 27 11
REMARK SMILES IDX 26 12 45 13 47 14 49 15 28 16 29 17 42 18 41 19 34 20 30 21
REMARK SMILES IDX 32 22 43 23 44 24 35 26 36 27 37 28 38 29 39 30 40 31 31 32
REMARK SMILES IDX 33 34 46 36 48 38 50 40 51 42 52 43 53 44 56 46 58 48 59 49
REMARK SMILES IDX 60 51 61 52 19 53 16 55 17 56 15 58 14 59 12 60 13 62 11 63
REMARK SMILES IDX 10 64 9 65 8 66 62 67 7 68 63 69 6 70 5 71 4 72 3 73 2 74
REMARK SMILES IDX 1 75
REMARK H PARENT 44 25 31 33 33 35 46 37 48 39 50 41 53 45 56 47 58 50 19 54
REMARK H PARENT 17 57 14 61
REMARK Flexibility Score: inf
ROOT
ATOM      1  C   UNL     1      25.540  34.408  17.193  1.00  0.00     0.176 C 
ENDROOT
BRANCH   1   2
ATOM      2  C   UNL     1      24.943  34.819  15.845  1.00  0.00     0.178 C 
ATOM      3  C   UNL     1      25.465  35.969  13.922  1.00  0.00     0.272 C 
ATOM      4  C   UNL     1      24.107  36.535  13.876  1.00  0.00     0.113 C 
ATOM      5  O   UNL     1      25.768  35.749  15.320  1.00  0.00    -0.332 OA
ATOM      6  C   UNL     1      23.058  35.736  14.516  1.00  0.00     0.145 C 
ATOM      7  C   UNL     1      23.500  34.966  15.749  1.00  0.00     0.142 C 
BRANCH   3   8
ATOM      8  O   UNL     1      26.467  36.877  13.616  1.00  0.00    -0.338 OA
BRANCH   8   9
ATOM      9  C   UNL     1      27.378  36.668  12.687  1.00  0.00     0.199 C 
BRANCH   9  10
ATOM     10  C   UNL     1      28.827  36.741  12.979  1.00  0.00     0.179 C 
ATOM     11  C   UNL     1      30.299  36.517  14.788  1.00  0.00     0.282 C 
ATOM     12  O   UNL     1      29.045  36.868  14.372  1.00  0.00    -0.341 OA
ATOM     13  C   UNL     1      31.310  36.463  13.709  1.00  0.00     0.202 C 
ATOM     14  C   UNL     1      30.922  35.617  12.527  1.00  0.00     0.179 C 
ATOM     15  C   UNL     1      29.439  35.409  12.563  1.00  0.00     0.177 C 
BRANCH  11  16
ATOM     16  O   UNL     1      30.180  35.436  15.619  1.00  0.00    -0.341 OA
BRANCH  16  17
ATOM     17  C   UNL     1      31.333  34.880  16.087  1.00  0.00     0.184 C 
ATOM     18  C   UNL     1      30.998  33.624  16.856  1.00  0.00     0.178 C 
ATOM     19  O   UNL     1      31.804  33.502  18.000  1.00  0.00    -0.341 OA
ATOM     20  C   UNL     1      31.295  34.379  18.953  1.00  0.00     0.281 C 
ATOM     21  C   UNL     1      32.031  35.812  17.105  1.00  0.00     0.180 C 
ATOM     22  C   UNL     1      31.286  35.781  18.420  1.00  0.00     0.202 C 
BRANCH  18  23
ATOM     23  C   UNL     1      31.087  32.367  16.006  1.00  0.00     0.191 C 
BRANCH  23  24
ATOM     24  O   UNL     1      31.055  32.679  14.658  1.00  0.00    -0.394 OA
ATOM     25  H   UNL     1      31.978  32.817  14.341  1.00  0.00     0.210 HD
ENDBRANCH  23  24
ENDBRANCH  18  23
BRANCH  20  26
ATOM     26  O   UNL     1      32.127  34.282  20.069  1.00  0.00    -0.350 OA
BRANCH  26  27
ATOM     27  C   UNL     1      31.455  33.966  21.236  1.00  0.00     0.169 C 
BRANCH  27  28
ATOM     28  C   UNL     1      30.854  32.585  21.052  1.00  0.00     0.119 C 
BRANCH  28  29
ATOM     29  N   UNL     1      31.817  31.544  21.295  1.00  0.00    -0.092 NA
ATOM     30  N   UNL     1      31.619  30.390  20.934  1.00  0.00     0.001 N 
ATOM     31  N   UNL     1      31.381  29.324  20.366  1.00  0.00    -0.003 NA
ENDBRANCH  28  29
ENDBRANCH  27  28
ENDBRANCH  26  27
ENDBRANCH  20  26
BRANCH  21  32
ATOM     32  O   UNL     1      33.289  35.254  17.326  1.00  0.00    -0.387 OA
ATOM     33  H   UNL     1      34.014  35.688  16.834  1.00  0.00     0.211 HD
ENDBRANCH  21  32
BRANCH  22  34
ATOM     34  O   UNL     1      30.008  36.311  18.271  1.00  0.00    -0.385 OA
ATOM     35  H   UNL     1      30.075  37.055  17.612  1.00  0.00     0.211 HD
ENDBRANCH  22  34
ENDBRANCH  16  17
ENDBRANCH  11  16
BRANCH  13  36
ATOM     36  O   UNL     1      31.510  37.772  13.250  1.00  0.00    -0.385 OA
ATOM     37  H   UNL     1      30.789  38.080  12.671  1.00  0.00     0.211 HD
ENDBRANCH  13  36
BRANCH  14  38
ATOM     38  O   UNL     1      31.609  34.402  12.499  1.00  0.00    -0.387 OA
ATOM     39  H   UNL     1      31.232  33.876  11.764  1.00  0.00     0.211 HD
ENDBRANCH  14  38
BRANCH  15  40
ATOM     40  O   UNL     1      29.067  34.395  13.455  1.00  0.00    -0.387 OA
ATOM     41  H   UNL     1      28.216  33.978  13.230  1.00  0.00     0.211 HD
ENDBRANCH  15  40
ENDBRANCH   9  10
ENDBRANCH   8   9
ENDBRANCH   3   8
BRANCH   3  42
ATOM     42  C   UNL     1      25.549  34.646  13.317  1.00  0.00     0.364 C 
ATOM     43  O   UNL     1      24.887  34.359  12.296  1.00  0.00    -0.246 OA
BRANCH  42  44
ATOM     44  O   UNL     1      26.335  33.656  13.828  1.00  0.00    -0.477 OA
ATOM     45  H   UNL     1      26.121  32.682  13.705  1.00  0.00     0.296 HD
ENDBRANCH  42  44
ENDBRANCH   3  42
BRANCH   6  46
ATOM     46  O   UNL     1      21.977  36.590  14.849  1.00  0.00    -0.391 OA
ATOM     47  H   UNL     1      22.283  37.512  15.036  1.00  0.00     0.211 HD
ENDBRANCH   6  46
BRANCH   7  48
ATOM     48  N   UNL     1      22.864  33.635  15.727  1.00  0.00    -0.348 N 
ATOM     49  C   UNL     1      21.579  33.383  16.260  1.00  0.00     0.217 C 
ATOM     50  H   UNL     1      23.350  32.796  15.308  1.00  0.00     0.163 HD
ATOM     51  C   UNL     1      20.985  31.995  16.216  1.00  0.00     0.114 C 
ATOM     52  O   UNL     1      20.938  34.334  16.773  1.00  0.00    -0.275 OA
ENDBRANCH   7  48
ENDBRANCH   1   2
BRANCH   1  53
ATOM     53  O   UNL     1      25.289  32.937  17.234  1.00  0.00    -0.388 OA
ATOM     54  H   UNL     1      24.813  32.830  16.349  1.00  0.00     0.211 HD
ENDBRANCH   1  53
BRANCH   1  55
ATOM     55  C   UNL     1      27.000  34.437  17.274  1.00  0.00     0.165 C 
BRANCH  55  56
ATOM     56  O   UNL     1      27.682  33.806  16.209  1.00  0.00    -0.388 OA
ATOM     57  H   UNL     1      28.631  33.797  16.484  1.00  0.00     0.211 HD
ENDBRANCH  55  56
BRANCH  55  58
ATOM     58  C   UNL     1      27.671  34.113  18.542  1.00  0.00     0.154 C 
BRANCH  58  59
ATOM     59  N   UNL     1      27.941  32.746  18.773  1.00  0.00    -0.319 N 
ATOM     60  C   UNL     1      27.228  31.759  19.464  1.00  0.00     0.407 C 
ATOM     61  H   UNL     1      28.871  32.386  18.335  1.00  0.00     0.167 HD
ATOM     62  O   UNL     1      26.148  32.016  20.022  1.00  0.00    -0.225 OA
BRANCH  60  63
ATOM     63  O   UNL     1      27.701  30.443  19.551  1.00  0.00    -0.443 OA
BRANCH  63  64
ATOM     64  C   UNL     1      28.237  29.844  18.371  1.00  0.00     0.294 C 
BRANCH  64  65
ATOM     65  C   UNL     1      27.379  30.142  17.196  1.00  0.00     0.120 A 
ATOM     66  C   UNL     1      26.148  29.539  16.940  1.00  0.00     0.138 A 
ATOM     67  N   UNL     1      27.584  30.998  16.184  1.00  0.00    -0.132 NA
ATOM     68  N   UNL     1      25.678  30.056  15.801  1.00  0.00    -0.252 N 
ATOM     69  N   UNL     1      26.541  30.929  15.350  1.00  0.00    -0.067 NA
BRANCH  68  70
ATOM     70  C   UNL     1      24.393  29.667  15.203  1.00  0.00     0.146 C 
BRANCH  70  71
ATOM     71  C   UNL     1      23.998  30.702  14.184  1.00  0.00     0.024 C 
BRANCH  71  72
ATOM     72  C   UNL     1      23.926  30.034  12.828  1.00  0.00     0.006 C 
BRANCH  72  73
ATOM     73  C   UNL     1      23.002  28.840  12.893  1.00  0.00     0.027 C 
BRANCH  73  74
ATOM     74  C   UNL     1      21.717  29.115  12.211  1.00  0.00    -0.035 C 
ATOM     75  C   UNL     1      21.139  30.294  12.328  1.00  0.00     0.004 C 
ENDBRANCH  73  74
ENDBRANCH  72  73
ENDBRANCH  71  72
ENDBRANCH  70  71
ENDBRANCH  68  70
ENDBRANCH  64  65
ENDBRANCH  63  64
ENDBRANCH  60  63
ENDBRANCH  58  59
ENDBRANCH  55  58
ENDBRANCH   1  55
TORSDOF 34
BEGIN_RES LYS A 131
REMARK  4 active torsions:
REMARK  status: ('A' for Active; 'I' for Inactive)
REMARK    1  A    between atoms: CA   and  CB  
REMARK    2  A    between atoms: CB   and  CG  
REMARK    3  A    between atoms: CG   and  CD  
REMARK    4  A    between atoms: CD   and  CE  
ROOT
ATOM      1  CA  LYS A 131      29.867  25.555  16.977  1.00 20.52     0.186 C 
ENDROOT
BRANCH   1   2
ATOM      2  CB  LYS A 131      28.345  25.722  17.026  1.00 20.94     0.034 C 
BRANCH   2   3
ATOM      3  CG  LYS A 131      27.601  24.401  16.898  1.00 22.96     0.005 C 
BRANCH   3   4
ATOM      4  CD  LYS A 131      26.153  24.527  17.282  1.00 24.33     0.041 C 
BRANCH   4   5
ATOM      5  CE  LYS A 131      25.956  25.787  18.120  1.00 26.91     0.338 C 
ATOM      6  NZ  LYS A 131      25.682  25.432  19.532  1.00 27.40     0.618 N 
ENDBRANCH   4   5
ENDBRANCH   3   4
ENDBRANCH   2   3
ENDBRANCH   1   2
END_RES LYS A 131
BEGIN_RES LYS A 135
REMARK  4 active torsions:
REMARK  status: ('A' for Active; 'I' for Inactive)
REMARK    5  A    between atoms: CA   and  CB  
REMARK    6  A    between atoms: CB   and  CG  
REMARK    7  A    between atoms: CG   and  CD  
REMARK    8  A    between atoms: CD   and  CE  
ROOT
ATOM      7  CA  LYS A 135      33.193  34.663   9.290  1.00 25.02     0.186 C 
ENDROOT
BRANCH   7   8
ATOM      8  CB  LYS A 135      32.060  35.360  10.034  1.00 26.63     0.034 C 
BRANCH   8   9
ATOM      9  CG  LYS A 135      30.796  35.488   9.223  1.00 29.45     0.005 C 
BRANCH   9  10
ATOM     10  CD  LYS A 135      30.203  34.118   8.934  1.00 32.00     0.041 C 
BRANCH  10  11
ATOM     11  CE  LYS A 135      28.698  34.138   9.125  1.00 34.25     0.338 C 
ATOM     12  NZ  LYS A 135      28.026  34.868   8.015  1.00 35.99     0.618 N 
ENDBRANCH  10  11
ENDBRANCH   9  10
ENDBRANCH   8   9
ENDBRANCH   7   8
END_RES LYS A 135
