REMARK VINA RESULT:    -3.746      4.823      9.064
REMARK INTER + INTRA:         -22.625
REMARK INTER:                 -10.776
REMARK INTRA:                 -11.849
REMARK UNBOUND:               -13.184
REMARK SMILES CC(=O)N[C@@H]1[C@@H](O)C[C@](OC[C@H]2O[C@@H](O[C@H]3[C@H](O)[C@@H](O)[C@H](OCCN=[N+]=[N-])O[C@@H]3CO)[C@H](O)[C@@H](O)[C@H]2O)(C(=O)O)O[C@H]1C(O)[C@H](O)CNC(=O)OCc1cn(-c2cc(Cl)ccc2C(=O)N(C)C)nn1
REMARK SMILES IDX 9 1 8 2 6 3 5 4 42 5 41 6 10 7 11 8 12 9 14 10 13 11 32 12
REMARK SMILES IDX 34 13 36 14 15 15 16 16 29 17 28 18 21 19 17 20 19 21 30 22
REMARK SMILES IDX 31 23 22 25 23 26 24 27 25 28 26 29 27 30 18 31 20 33 33 35
REMARK SMILES IDX 35 37 37 39 38 41 39 42 40 43 7 45 43 47 44 48 45 50 46 51
REMARK SMILES IDX 47 53 48 54 49 55 50 57 51 58 52 59 53 60 54 61 69 62 55 63
REMARK SMILES IDX 68 64 56 65 57 66 62 67 58 68 61 69 59 70 60 71 63 72 64 73
REMARK SMILES IDX 65 74 66 75 67 76 4 77 2 78 1 80 3 81
REMARK H PARENT 31 24 18 32 20 34 33 36 35 38 37 40 40 44 7 46 44 49 46 52
REMARK H PARENT 48 56 4 79
REMARK Flexibility Score: inf
ROOT
ATOM      1  C   UNL     1      27.246  39.815   6.116  1.00  0.00     0.272 C 
ATOM      2  C   UNL     1      27.858  40.738   7.100  1.00  0.00     0.113 C 
ATOM      3  C   UNL     1      26.967  40.879   8.307  1.00  0.00     0.145 C 
ATOM      4  C   UNL     1      25.648  41.422   7.810  1.00  0.00     0.142 C 
ATOM      5  C   UNL     1      25.075  40.572   6.755  1.00  0.00     0.178 C 
ATOM      6  O   UNL     1      25.891  39.787   6.005  1.00  0.00    -0.332 OA
ENDROOT
BRANCH   1   7
ATOM      7  O   UNL     1      27.659  38.508   6.312  1.00  0.00    -0.338 OA
BRANCH   7   8
ATOM      8  C   UNL     1      28.884  38.284   6.835  1.00  0.00     0.199 C 
BRANCH   8   9
ATOM      9  C   UNL     1      28.890  36.935   7.571  1.00  0.00     0.179 C 
ATOM     10  C   UNL     1      29.018  36.231   9.763  1.00  0.00     0.282 C 
ATOM     11  O   UNL     1      29.575  37.086   8.741  1.00  0.00    -0.341 OA
ATOM     12  C   UNL     1      28.779  34.885   9.120  1.00  0.00     0.202 C 
ATOM     13  C   UNL     1      27.641  34.945   8.123  1.00  0.00     0.179 C 
ATOM     14  C   UNL     1      27.535  36.366   7.599  1.00  0.00     0.177 C 
BRANCH  10  15
ATOM     15  O   UNL     1      27.941  36.865  10.217  1.00  0.00    -0.341 OA
BRANCH  15  16
ATOM     16  C   UNL     1      27.478  36.707  11.511  1.00  0.00     0.184 C 
ATOM     17  C   UNL     1      28.281  37.638  12.360  1.00  0.00     0.178 C 
ATOM     18  O   UNL     1      27.886  37.526  13.705  1.00  0.00    -0.341 OA
ATOM     19  C   UNL     1      28.513  36.289  14.081  1.00  0.00     0.281 C 
ATOM     20  C   UNL     1      27.662  35.283  11.968  1.00  0.00     0.180 C 
ATOM     21  C   UNL     1      27.746  35.181  13.460  1.00  0.00     0.202 C 
BRANCH  17  22
ATOM     22  C   UNL     1      28.129  39.073  11.902  1.00  0.00     0.191 C 
BRANCH  22  23
ATOM     23  O   UNL     1      26.788  39.338  11.727  1.00  0.00    -0.394 OA
ATOM     24  H   UNL     1      26.366  39.542  12.599  1.00  0.00     0.210 HD
ENDBRANCH  22  23
ENDBRANCH  17  22
BRANCH  19  25
ATOM     25  O   UNL     1      28.572  36.246  15.419  1.00  0.00    -0.350 OA
BRANCH  25  26
ATOM     26  C   UNL     1      29.827  36.439  15.971  1.00  0.00     0.169 C 
BRANCH  26  27
ATOM     27  C   UNL     1      30.229  35.365  16.960  1.00  0.00     0.119 C 
BRANCH  27  28
ATOM     28  N   UNL     1      29.776  34.063  16.519  1.00  0.00    -0.092 NA
ATOM     29  N   UNL     1      30.564  33.259  16.035  1.00  0.00     0.001 N 
ATOM     30  N   UNL     1      31.519  32.549  15.656  1.00  0.00    -0.003 NA
ENDBRANCH  27  28
ENDBRANCH  26  27
ENDBRANCH  25  26
ENDBRANCH  19  25
BRANCH  20  31
ATOM     31  O   UNL     1      26.596  34.471  11.564  1.00  0.00    -0.387 OA
ATOM     32  H   UNL     1      25.741  34.993  11.559  1.00  0.00     0.211 HD
ENDBRANCH  20  31
BRANCH  21  33
ATOM     33  O   UNL     1      28.326  33.959  13.794  1.00  0.00    -0.385 OA
ATOM     34  H   UNL     1      27.789  33.183  13.527  1.00  0.00     0.211 HD
ENDBRANCH  21  33
ENDBRANCH  15  16
ENDBRANCH  10  15
BRANCH  12  35
ATOM     35  O   UNL     1      29.945  34.584   8.387  1.00  0.00    -0.385 OA
ATOM     36  H   UNL     1      30.230  35.369   7.819  1.00  0.00     0.211 HD
ENDBRANCH  12  35
BRANCH  13  37
ATOM     37  O   UNL     1      26.423  34.569   8.622  1.00  0.00    -0.387 OA
ATOM     38  H   UNL     1      26.418  34.435   9.601  1.00  0.00     0.211 HD
ENDBRANCH  13  37
BRANCH  14  39
ATOM     39  O   UNL     1      26.531  37.105   8.157  1.00  0.00    -0.387 OA
ATOM     40  H   UNL     1      25.754  36.589   8.468  1.00  0.00     0.211 HD
ENDBRANCH  14  39
ENDBRANCH   8   9
ENDBRANCH   7   8
ENDBRANCH   1   7
BRANCH   1  41
ATOM     41  C   UNL     1      27.814  40.164   4.727  1.00  0.00     0.364 C 
ATOM     42  O   UNL     1      27.453  39.419   3.788  1.00  0.00    -0.246 OA
BRANCH  41  43
ATOM     43  O   UNL     1      28.658  41.205   4.500  1.00  0.00    -0.477 OA
ATOM     44  H   UNL     1      28.451  42.167   4.653  1.00  0.00     0.296 HD
ENDBRANCH  41  43
ENDBRANCH   1  41
BRANCH   3  45
ATOM     45  O   UNL     1      26.890  39.690   8.973  1.00  0.00    -0.391 OA
ATOM     46  H   UNL     1      26.039  39.240   9.002  1.00  0.00     0.211 HD
ENDBRANCH   3  45
BRANCH   5  47
ATOM     47  C   UNL     1      23.916  39.684   7.189  1.00  0.00     0.176 C 
BRANCH  47  48
ATOM     48  O   UNL     1      24.143  38.342   7.061  1.00  0.00    -0.388 OA
ATOM     49  H   UNL     1      24.342  38.036   6.137  1.00  0.00     0.211 HD
ENDBRANCH  47  48
BRANCH  47  50
ATOM     50  C   UNL     1      23.325  39.992   8.514  1.00  0.00     0.165 C 
BRANCH  50  51
ATOM     51  O   UNL     1      23.673  39.036   9.497  1.00  0.00    -0.388 OA
ATOM     52  H   UNL     1      23.276  39.264  10.371  1.00  0.00     0.211 HD
ENDBRANCH  50  51
BRANCH  50  53
ATOM     53  C   UNL     1      21.801  39.776   8.362  1.00  0.00     0.154 C 
BRANCH  53  54
ATOM     54  N   UNL     1      21.526  38.409   8.018  1.00  0.00    -0.319 N 
ATOM     55  C   UNL     1      20.543  37.663   8.698  1.00  0.00     0.407 C 
ATOM     56  H   UNL     1      22.054  37.914   7.239  1.00  0.00     0.167 HD
ATOM     57  O   UNL     1      19.860  38.178   9.612  1.00  0.00    -0.225 OA
BRANCH  55  58
ATOM     58  O   UNL     1      20.299  36.323   8.375  1.00  0.00    -0.443 OA
BRANCH  58  59
ATOM     59  C   UNL     1      21.338  35.389   8.261  1.00  0.00     0.294 C 
BRANCH  59  60
ATOM     60  C   UNL     1      22.432  35.681   9.236  1.00  0.00     0.121 A 
ATOM     61  C   UNL     1      22.258  35.708  10.635  1.00  0.00     0.144 A 
ATOM     62  N   UNL     1      23.712  35.956   9.036  1.00  0.00    -0.131 NA
ATOM     63  N   UNL     1      23.422  35.992  11.203  1.00  0.00    -0.219 N 
ATOM     64  N   UNL     1      24.292  36.138  10.194  1.00  0.00    -0.062 NA
BRANCH  63  65
ATOM     65  C   UNL     1      23.814  36.136  12.555  1.00  0.00     0.081 A 
ATOM     66  C   UNL     1      24.158  37.406  13.035  1.00  0.00     0.049 A 
ATOM     67  C   UNL     1      23.921  35.113  13.452  1.00  0.00     0.065 A 
ATOM     68  C   UNL     1      24.572  37.595  14.313  1.00  0.00     0.043 A 
ATOM     69  C   UNL     1      24.352  35.307  14.777  1.00  0.00     0.017 A 
ATOM     70  Cl  UNL     1      24.988  39.216  14.851  1.00  0.00    -0.084 Cl
ATOM     71  C   UNL     1      24.681  36.568  15.210  1.00  0.00     0.021 A 
BRANCH  67  72
ATOM     72  C   UNL     1      23.545  33.740  13.101  1.00  0.00     0.255 C 
ATOM     73  O   UNL     1      24.422  32.979  12.643  1.00  0.00    -0.269 OA
ATOM     74  N   UNL     1      22.231  33.300  13.278  1.00  0.00    -0.345 N 
ATOM     75  C   UNL     1      21.215  34.202  13.812  1.00  0.00     0.146 C 
ATOM     76  C   UNL     1      21.832  31.934  12.945  1.00  0.00     0.146 C 
ENDBRANCH  67  72
ENDBRANCH  63  65
ENDBRANCH  59  60
ENDBRANCH  58  59
ENDBRANCH  55  58
ENDBRANCH  53  54
ENDBRANCH  50  53
ENDBRANCH  47  50
ENDBRANCH   5  47
BRANCH   4  77
ATOM     77  N   UNL     1      25.909  42.795   7.368  1.00  0.00    -0.348 N 
ATOM     78  C   UNL     1      24.909  43.789   7.351  1.00  0.00     0.217 C 
ATOM     79  H   UNL     1      26.861  43.059   7.050  1.00  0.00     0.163 HD
ATOM     80  C   UNL     1      25.165  45.179   6.903  1.00  0.00     0.114 C 
ATOM     81  O   UNL     1      23.747  43.485   7.732  1.00  0.00    -0.275 OA
ENDBRANCH   4  77
TORSDOF 31
BEGIN_RES LYS A 131
REMARK  4 active torsions:
REMARK  status: ('A' for Active; 'I' for Inactive)
REMARK    1  A    between atoms: CA   and  CB  
REMARK    2  A    between atoms: CB   and  CG  
REMARK    3  A    between atoms: CG   and  CD  
REMARK    4  A    between atoms: CD   and  CE  
ROOT
ATOM      1  CA  LYS A 131      29.867  25.555  16.977  1.00 20.52     0.186 C 
ENDROOT
BRANCH   1   2
ATOM      2  CB  LYS A 131      28.345  25.722  17.026  1.00 20.94     0.034 C 
BRANCH   2   3
ATOM      3  CG  LYS A 131      27.601  24.402  16.892  1.00 22.96     0.005 C 
BRANCH   3   4
ATOM      4  CD  LYS A 131      26.524  24.251  17.931  1.00 24.33     0.041 C 
BRANCH   4   5
ATOM      5  CE  LYS A 131      25.157  24.315  17.258  1.00 26.91     0.338 C 
ATOM      6  NZ  LYS A 131      24.536  22.970  17.215  1.00 27.40     0.618 N 
ENDBRANCH   4   5
ENDBRANCH   3   4
ENDBRANCH   2   3
ENDBRANCH   1   2
END_RES LYS A 131
BEGIN_RES LYS A 135
REMARK  4 active torsions:
REMARK  status: ('A' for Active; 'I' for Inactive)
REMARK    5  A    between atoms: CA   and  CB  
REMARK    6  A    between atoms: CB   and  CG  
REMARK    7  A    between atoms: CG   and  CD  
REMARK    8  A    between atoms: CD   and  CE  
ROOT
ATOM      7  CA  LYS A 135      33.193  34.663   9.290  1.00 25.02     0.186 C 
ENDROOT
BRANCH   7   8
ATOM      8  CB  LYS A 135      32.060  35.360  10.034  1.00 26.63     0.034 C 
BRANCH   8   9
ATOM      9  CG  LYS A 135      32.501  36.038  11.305  1.00 29.45     0.005 C 
BRANCH   9  10
ATOM     10  CD  LYS A 135      31.636  35.600  12.476  1.00 32.00     0.041 C 
BRANCH  10  11
ATOM     11  CE  LYS A 135      32.475  35.443  13.730  1.00 34.25     0.338 C 
ATOM     12  NZ  LYS A 135      33.793  34.824  13.419  1.00 35.99     0.618 N 
ENDBRANCH  10  11
ENDBRANCH   9  10
ENDBRANCH   8   9
ENDBRANCH   7   8
END_RES LYS A 135
