REMARK VINA RESULT:    -5.053      4.382      9.730
REMARK INTER + INTRA:         -22.462
REMARK INTER:                 -12.788
REMARK INTRA:                  -9.674
REMARK UNBOUND:                -9.729
REMARK SMILES CC(=O)N[C@@H]1[C@@H](O)C[C@](OC[C@H]2O[C@@H](O[C@H]3[C@H](O)[C@@H](O)[C@H](OCCN=[N+]=[N-])O[C@@H]3CO)[C@H](O)[C@@H](O)[C@H]2O)(C(=O)O)O[C@H]1C(O)[C@H](O)CNC(=O)OCc1cn(-c2ncccc2C#N)nn1
REMARK SMILES IDX 9 1 8 2 6 3 5 4 42 5 41 6 10 7 11 8 12 9 14 10 13 11 32 12
REMARK SMILES IDX 34 13 36 14 15 15 16 16 29 17 28 18 21 19 17 20 19 21 30 22
REMARK SMILES IDX 31 23 22 25 23 26 24 27 25 28 26 29 27 30 18 31 20 33 33 35
REMARK SMILES IDX 35 37 37 39 38 41 39 42 40 43 7 45 43 47 44 48 45 50 46 51
REMARK SMILES IDX 47 53 48 54 49 55 50 57 51 58 52 59 53 60 54 61 65 62 55 63
REMARK SMILES IDX 64 64 56 65 57 66 61 67 58 68 60 69 59 70 62 71 63 72 4 73
REMARK SMILES IDX 2 74 1 76 3 77
REMARK H PARENT 31 24 18 32 20 34 33 36 35 38 37 40 40 44 7 46 44 49 46 52
REMARK H PARENT 48 56 4 75
REMARK Flexibility Score: inf
ROOT
ATOM      1  C   UNL     1      30.220  35.761  14.486  1.00  0.00     0.272 C 
ATOM      2  C   UNL     1      30.189  37.182  14.859  1.00  0.00     0.113 C 
ATOM      3  C   UNL     1      30.140  38.099  13.701  1.00  0.00     0.145 C 
ATOM      4  C   UNL     1      29.480  37.583  12.465  1.00  0.00     0.142 C 
ATOM      5  C   UNL     1      28.859  36.218  12.561  1.00  0.00     0.178 C 
ATOM      6  O   UNL     1      29.408  35.405  13.434  1.00  0.00    -0.332 OA
ENDROOT
BRANCH   1   7
ATOM      7  O   UNL     1      30.013  34.802  15.394  1.00  0.00    -0.338 OA
BRANCH   7   8
ATOM      8  C   UNL     1      29.722  34.768  16.658  1.00  0.00     0.199 C 
BRANCH   8   9
ATOM      9  C   UNL     1      29.061  33.413  16.936  1.00  0.00     0.179 C 
ATOM     10  C   UNL     1      27.863  31.720  16.021  1.00  0.00     0.282 C 
ATOM     11  O   UNL     1      28.111  33.141  15.989  1.00  0.00    -0.341 OA
ATOM     12  C   UNL     1      29.020  31.001  15.426  1.00  0.00     0.202 C 
ATOM     13  C   UNL     1      30.332  31.434  16.087  1.00  0.00     0.179 C 
ATOM     14  C   UNL     1      30.008  32.311  17.236  1.00  0.00     0.177 C 
BRANCH  10  15
ATOM     15  O   UNL     1      26.697  31.429  15.404  1.00  0.00    -0.341 OA
BRANCH  15  16
ATOM     16  C   UNL     1      25.631  31.196  16.227  1.00  0.00     0.184 C 
ATOM     17  C   UNL     1      25.448  29.663  16.428  1.00  0.00     0.178 C 
ATOM     18  O   UNL     1      24.280  29.280  15.771  1.00  0.00    -0.341 OA
ATOM     19  C   UNL     1      24.312  29.686  14.429  1.00  0.00     0.281 C 
ATOM     20  C   UNL     1      24.320  31.755  15.737  1.00  0.00     0.180 C 
ATOM     21  C   UNL     1      23.989  31.152  14.367  1.00  0.00     0.202 C 
BRANCH  17  22
ATOM     22  C   UNL     1      25.403  29.378  17.895  1.00  0.00     0.191 C 
BRANCH  22  23
ATOM     23  O   UNL     1      24.083  29.247  18.365  1.00  0.00    -0.394 OA
ATOM     24  H   UNL     1      23.914  28.353  18.746  1.00  0.00     0.210 HD
ENDBRANCH  22  23
ENDBRANCH  17  22
BRANCH  19  25
ATOM     25  O   UNL     1      23.399  28.905  13.758  1.00  0.00    -0.350 OA
BRANCH  25  26
ATOM     26  C   UNL     1      22.360  28.482  14.608  1.00  0.00     0.169 C 
BRANCH  26  27
ATOM     27  C   UNL     1      21.016  28.689  13.939  1.00  0.00     0.119 C 
BRANCH  27  28
ATOM     28  N   UNL     1      21.294  29.337  12.651  1.00  0.00    -0.092 NA
ATOM     29  N   UNL     1      20.745  30.458  12.484  1.00  0.00     0.001 N 
ATOM     30  N   UNL     1      19.980  31.358  12.104  1.00  0.00    -0.003 NA
ENDBRANCH  27  28
ENDBRANCH  26  27
ENDBRANCH  25  26
ENDBRANCH  19  25
BRANCH  20  31
ATOM     31  O   UNL     1      23.279  31.529  16.607  1.00  0.00    -0.387 OA
ATOM     32  H   UNL     1      22.975  32.275  17.148  1.00  0.00     0.211 HD
ENDBRANCH  20  31
BRANCH  21  33
ATOM     33  O   UNL     1      24.712  31.810  13.377  1.00  0.00    -0.385 OA
ATOM     34  H   UNL     1      24.069  32.032  12.649  1.00  0.00     0.211 HD
ENDBRANCH  21  33
ENDBRANCH  15  16
ENDBRANCH  10  15
BRANCH  12  35
ATOM     35  O   UNL     1      28.878  29.632  15.568  1.00  0.00    -0.385 OA
ATOM     36  H   UNL     1      29.809  29.234  15.580  1.00  0.00     0.211 HD
ENDBRANCH  12  35
BRANCH  13  37
ATOM     37  O   UNL     1      31.130  32.102  15.128  1.00  0.00    -0.387 OA
ATOM     38  H   UNL     1      30.557  32.691  14.560  1.00  0.00     0.211 HD
ENDBRANCH  13  37
BRANCH  14  39
ATOM     39  O   UNL     1      31.134  32.819  17.890  1.00  0.00    -0.387 OA
ATOM     40  H   UNL     1      31.820  33.120  17.212  1.00  0.00     0.211 HD
ENDBRANCH  14  39
ENDBRANCH   8   9
ENDBRANCH   7   8
ENDBRANCH   1   7
BRANCH   1  41
ATOM     41  C   UNL     1      31.639  35.513  13.977  1.00  0.00     0.364 C 
ATOM     42  O   UNL     1      32.649  35.983  14.474  1.00  0.00    -0.246 OA
BRANCH  41  43
ATOM     43  O   UNL     1      31.819  34.684  12.852  1.00  0.00    -0.477 OA
ATOM     44  H   UNL     1      31.061  34.433  12.236  1.00  0.00     0.296 HD
ENDBRANCH  41  43
ENDBRANCH   1  41
BRANCH   3  45
ATOM     45  O   UNL     1      29.613  39.349  14.080  1.00  0.00    -0.391 OA
ATOM     46  H   UNL     1      29.021  39.617  13.303  1.00  0.00     0.211 HD
ENDBRANCH   3  45
BRANCH   5  47
ATOM     47  C   UNL     1      27.313  36.316  12.702  1.00  0.00     0.176 C 
BRANCH  47  48
ATOM     48  O   UNL     1      27.027  37.706  12.851  1.00  0.00    -0.388 OA
ATOM     49  H   UNL     1      27.223  38.190  12.030  1.00  0.00     0.211 HD
ENDBRANCH  47  48
BRANCH  47  50
ATOM     50  C   UNL     1      26.729  35.650  13.837  1.00  0.00     0.165 C 
BRANCH  50  51
ATOM     51  O   UNL     1      26.649  34.236  13.788  1.00  0.00    -0.388 OA
ATOM     52  H   UNL     1      27.561  33.856  13.987  1.00  0.00     0.211 HD
ENDBRANCH  50  51
BRANCH  50  53
ATOM     53  C   UNL     1      25.329  36.062  14.163  1.00  0.00     0.154 C 
BRANCH  53  54
ATOM     54  N   UNL     1      24.404  36.329  13.134  1.00  0.00    -0.319 N 
ATOM     55  C   UNL     1      23.677  35.447  12.336  1.00  0.00     0.407 C 
ATOM     56  H   UNL     1      24.219  37.380  12.904  1.00  0.00     0.167 HD
ATOM     57  O   UNL     1      23.826  34.216  12.535  1.00  0.00    -0.225 OA
BRANCH  55  58
ATOM     58  O   UNL     1      22.804  35.953  11.352  1.00  0.00    -0.443 OA
BRANCH  58  59
ATOM     59  C   UNL     1      22.846  35.402  10.069  1.00  0.00     0.294 C 
BRANCH  59  60
ATOM     60  C   UNL     1      23.643  36.187   9.145  1.00  0.00     0.121 A 
ATOM     61  C   UNL     1      24.979  36.136   9.005  1.00  0.00     0.146 A 
ATOM     62  N   UNL     1      23.176  37.186   8.278  1.00  0.00    -0.131 NA
ATOM     63  N   UNL     1      25.377  37.034   8.114  1.00  0.00    -0.201 N 
ATOM     64  N   UNL     1      24.277  37.608   7.730  1.00  0.00    -0.060 NA
BRANCH  63  65
ATOM     65  C   UNL     1      26.659  37.316   7.592  1.00  0.00     0.173 A 
ATOM     66  N   UNL     1      26.971  36.686   6.429  1.00  0.00    -0.236 NA
ATOM     67  C   UNL     1      27.602  38.074   8.298  1.00  0.00     0.097 A 
ATOM     68  C   UNL     1      28.325  36.813   5.941  1.00  0.00     0.113 A 
ATOM     69  C   UNL     1      28.874  38.143   7.776  1.00  0.00     0.025 A 
ATOM     70  C   UNL     1      29.180  37.520   6.639  1.00  0.00     0.022 A 
BRANCH  67  71
ATOM     71  C   UNL     1      27.319  38.849   9.465  1.00  0.00     0.103 C 
ATOM     72  N   UNL     1      27.088  39.521  10.444  1.00  0.00    -0.192 NA
ENDBRANCH  67  71
ENDBRANCH  63  65
ENDBRANCH  59  60
ENDBRANCH  58  59
ENDBRANCH  55  58
ENDBRANCH  53  54
ENDBRANCH  50  53
ENDBRANCH  47  50
ENDBRANCH   5  47
BRANCH   4  73
ATOM     73  N   UNL     1      30.426  37.800  11.392  1.00  0.00    -0.348 N 
ATOM     74  C   UNL     1      30.830  39.016  10.834  1.00  0.00     0.217 C 
ATOM     75  H   UNL     1      30.880  36.926  10.940  1.00  0.00     0.163 HD
ATOM     76  C   UNL     1      31.880  39.053   9.739  1.00  0.00     0.114 C 
ATOM     77  O   UNL     1      30.394  40.140  11.167  1.00  0.00    -0.275 OA
ENDBRANCH   4  73
TORSDOF 31
BEGIN_RES LYS A 131
REMARK  4 active torsions:
REMARK  status: ('A' for Active; 'I' for Inactive)
REMARK    1  A    between atoms: CA   and  CB  
REMARK    2  A    between atoms: CB   and  CG  
REMARK    3  A    between atoms: CG   and  CD  
REMARK    4  A    between atoms: CD   and  CE  
ROOT
ATOM      1  CA  LYS A 131      29.867  25.555  16.977  1.00 20.52     0.186 C 
ENDROOT
BRANCH   1   2
ATOM      2  CB  LYS A 131      28.345  25.722  17.026  1.00 20.94     0.034 C 
BRANCH   2   3
ATOM      3  CG  LYS A 131      27.856  26.294  18.347  1.00 22.96     0.005 C 
BRANCH   3   4
ATOM      4  CD  LYS A 131      26.478  25.806  18.701  1.00 24.33     0.041 C 
BRANCH   4   5
ATOM      5  CE  LYS A 131      26.075  26.362  20.063  1.00 26.91     0.338 C 
ATOM      6  NZ  LYS A 131      27.111  27.292  20.571  1.00 27.40     0.618 N 
ENDBRANCH   4   5
ENDBRANCH   3   4
ENDBRANCH   2   3
ENDBRANCH   1   2
END_RES LYS A 131
BEGIN_RES LYS A 135
REMARK  4 active torsions:
REMARK  status: ('A' for Active; 'I' for Inactive)
REMARK    5  A    between atoms: CA   and  CB  
REMARK    6  A    between atoms: CB   and  CG  
REMARK    7  A    between atoms: CG   and  CD  
REMARK    8  A    between atoms: CD   and  CE  
ROOT
ATOM      7  CA  LYS A 135      33.193  34.663   9.290  1.00 25.02     0.186 C 
ENDROOT
BRANCH   7   8
ATOM      8  CB  LYS A 135      32.060  35.360  10.034  1.00 26.63     0.034 C 
BRANCH   8   9
ATOM      9  CG  LYS A 135      30.795  35.485   9.225  1.00 29.45     0.005 C 
BRANCH   9  10
ATOM     10  CD  LYS A 135      30.101  34.137   9.103  1.00 32.00     0.041 C 
BRANCH  10  11
ATOM     11  CE  LYS A 135      28.643  34.321   8.727  1.00 34.25     0.338 C 
ATOM     12  NZ  LYS A 135      27.745  33.771   9.780  1.00 35.99     0.618 N 
ENDBRANCH  10  11
ENDBRANCH   9  10
ENDBRANCH   8   9
ENDBRANCH   7   8
END_RES LYS A 135
