REMARK VINA RESULT:    -4.137      4.442      9.928
REMARK INTER + INTRA:         -22.258
REMARK INTER:                 -10.830
REMARK INTRA:                 -11.428
REMARK UNBOUND:               -11.833
REMARK SMILES CC(=O)N[C@@H]1[C@@H](O)C[C@](OC[C@H]2O[C@@H](O[C@H]3[C@H](O)[C@@H](O)[C@H](OCCN=[N+]=[N-])O[C@@H]3CO)[C@H](O)[C@@H](O)[C@H]2O)(C(=O)O)O[C@H]1C(O)[C@H](O)CNC(=O)OCc1cn(-c2ccccc2C(N)=O)nn1
REMARK SMILES IDX 9 1 8 2 6 3 5 4 42 5 41 6 10 7 11 8 12 9 14 10 13 11 32 12
REMARK SMILES IDX 34 13 36 14 15 15 16 16 29 17 28 18 21 19 17 20 19 21 30 22
REMARK SMILES IDX 31 23 22 25 23 26 24 27 25 28 26 29 27 30 18 31 20 33 33 35
REMARK SMILES IDX 35 37 37 39 38 41 39 42 40 43 7 45 43 47 44 48 45 50 46 51
REMARK SMILES IDX 47 53 48 54 49 55 50 57 51 58 52 59 53 60 54 61 66 62 55 63
REMARK SMILES IDX 65 64 56 65 61 66 57 67 60 68 58 69 59 70 62 71 64 72 63 73
REMARK SMILES IDX 4 76 2 77 1 79 3 80
REMARK H PARENT 31 24 18 32 20 34 33 36 35 38 37 40 40 44 7 46 44 49 46 52
REMARK H PARENT 48 56 63 74 63 75 4 78
REMARK Flexibility Score: inf
ROOT
ATOM      1  C   UNL     1      31.362  34.736  15.484  1.00  0.00     0.272 C 
ATOM      2  C   UNL     1      31.895  33.536  16.317  1.00  0.00     0.113 C 
ATOM      3  C   UNL     1      31.148  33.596  17.619  1.00  0.00     0.145 C 
ATOM      4  C   UNL     1      31.628  34.744  18.415  1.00  0.00     0.142 C 
ATOM      5  C   UNL     1      32.003  35.846  17.409  1.00  0.00     0.178 C 
ATOM      6  O   UNL     1      31.149  35.817  16.322  1.00  0.00    -0.332 OA
ENDROOT
BRANCH   1   7
ATOM      7  O   UNL     1      30.161  34.274  14.979  1.00  0.00    -0.338 OA
BRANCH   7   8
ATOM      8  C   UNL     1      29.619  35.042  13.992  1.00  0.00     0.199 C 
BRANCH   8   9
ATOM      9  C   UNL     1      28.101  35.008  13.987  1.00  0.00     0.179 C 
ATOM     10  C   UNL     1      26.388  33.510  14.487  1.00  0.00     0.282 C 
ATOM     11  O   UNL     1      27.750  33.766  14.511  1.00  0.00    -0.341 OA
ATOM     12  C   UNL     1      25.528  34.642  14.062  1.00  0.00     0.202 C 
ATOM     13  C   UNL     1      25.964  36.001  14.523  1.00  0.00     0.179 C 
ATOM     14  C   UNL     1      27.466  36.059  14.837  1.00  0.00     0.177 C 
BRANCH  10  15
ATOM     15  O   UNL     1      26.033  33.089  15.756  1.00  0.00    -0.341 OA
BRANCH  15  16
ATOM     16  C   UNL     1      27.017  32.345  16.383  1.00  0.00     0.184 C 
ATOM     17  C   UNL     1      26.894  30.911  15.914  1.00  0.00     0.178 C 
ATOM     18  O   UNL     1      26.187  30.136  16.767  1.00  0.00    -0.341 OA
ATOM     19  C   UNL     1      26.762  29.961  17.973  1.00  0.00     0.281 C 
ATOM     20  C   UNL     1      26.722  32.415  17.878  1.00  0.00     0.180 C 
ATOM     21  C   UNL     1      27.228  31.216  18.596  1.00  0.00     0.202 C 
BRANCH  17  22
ATOM     22  C   UNL     1      28.260  30.331  15.669  1.00  0.00     0.191 C 
BRANCH  22  23
ATOM     23  O   UNL     1      29.206  31.330  15.417  1.00  0.00    -0.394 OA
ATOM     24  H   UNL     1      29.077  32.015  16.141  1.00  0.00     0.210 HD
ENDBRANCH  22  23
ENDBRANCH  17  22
BRANCH  19  25
ATOM     25  O   UNL     1      27.726  28.942  18.002  1.00  0.00    -0.350 OA
BRANCH  25  26
ATOM     26  C   UNL     1      27.329  27.818  18.681  1.00  0.00     0.169 C 
BRANCH  26  27
ATOM     27  C   UNL     1      28.200  27.597  19.872  1.00  0.00     0.119 C 
BRANCH  27  28
ATOM     28  N   UNL     1      27.737  28.411  20.966  1.00  0.00    -0.092 NA
ATOM     29  N   UNL     1      28.508  29.037  21.705  1.00  0.00     0.001 N 
ATOM     30  N   UNL     1      29.428  29.715  22.169  1.00  0.00    -0.003 NA
ENDBRANCH  27  28
ENDBRANCH  26  27
ENDBRANCH  25  26
ENDBRANCH  19  25
BRANCH  20  31
ATOM     31  O   UNL     1      27.305  33.554  18.424  1.00  0.00    -0.387 OA
ATOM     32  H   UNL     1      27.163  33.576  19.422  1.00  0.00     0.211 HD
ENDBRANCH  20  31
BRANCH  21  33
ATOM     33  O   UNL     1      26.734  31.276  19.922  1.00  0.00    -0.385 OA
ATOM     34  H   UNL     1      26.106  32.053  19.981  1.00  0.00     0.211 HD
ENDBRANCH  21  33
ENDBRANCH  15  16
ENDBRANCH  10  15
BRANCH  12  35
ATOM     35  O   UNL     1      25.271  34.629  12.675  1.00  0.00    -0.385 OA
ATOM     36  H   UNL     1      25.270  33.687  12.399  1.00  0.00     0.211 HD
ENDBRANCH  12  35
BRANCH  13  37
ATOM     37  O   UNL     1      25.296  36.364  15.694  1.00  0.00    -0.387 OA
ATOM     38  H   UNL     1      25.804  36.074  16.512  1.00  0.00     0.211 HD
ENDBRANCH  13  37
BRANCH  14  39
ATOM     39  O   UNL     1      27.654  35.703  16.184  1.00  0.00    -0.387 OA
ATOM     40  H   UNL     1      27.304  34.828  16.414  1.00  0.00     0.211 HD
ENDBRANCH  14  39
ENDBRANCH   8   9
ENDBRANCH   7   8
ENDBRANCH   1   7
BRANCH   1  41
ATOM     41  C   UNL     1      32.346  35.083  14.455  1.00  0.00     0.364 C 
ATOM     42  O   UNL     1      32.424  36.280  14.009  1.00  0.00    -0.246 OA
BRANCH  41  43
ATOM     43  O   UNL     1      33.211  34.109  13.950  1.00  0.00    -0.477 OA
ATOM     44  H   UNL     1      32.803  33.194  13.775  1.00  0.00     0.296 HD
ENDBRANCH  41  43
ENDBRANCH   1  41
BRANCH   3  45
ATOM     45  O   UNL     1      29.799  33.878  17.281  1.00  0.00    -0.391 OA
ATOM     46  H   UNL     1      29.702  33.827  16.295  1.00  0.00     0.211 HD
ENDBRANCH   3  45
BRANCH   5  47
ATOM     47  C   UNL     1      32.104  37.174  18.103  1.00  0.00     0.176 C 
BRANCH  47  48
ATOM     48  O   UNL     1      33.377  37.214  18.704  1.00  0.00    -0.388 OA
ATOM     49  H   UNL     1      33.656  36.294  18.962  1.00  0.00     0.211 HD
ENDBRANCH  47  48
BRANCH  47  50
ATOM     50  C   UNL     1      32.116  38.326  17.092  1.00  0.00     0.165 C 
BRANCH  50  51
ATOM     51  O   UNL     1      33.109  38.066  16.133  1.00  0.00    -0.388 OA
ATOM     52  H   UNL     1      32.757  37.322  15.578  1.00  0.00     0.211 HD
ENDBRANCH  50  51
BRANCH  50  53
ATOM     53  C   UNL     1      32.395  39.641  17.736  1.00  0.00     0.154 C 
BRANCH  53  54
ATOM     54  N   UNL     1      33.769  39.747  18.145  1.00  0.00    -0.319 N 
ATOM     55  C   UNL     1      34.685  40.690  17.615  1.00  0.00     0.407 C 
ATOM     56  H   UNL     1      34.107  39.072  18.890  1.00  0.00     0.167 HD
ATOM     57  O   UNL     1      34.432  41.542  16.762  1.00  0.00    -0.225 OA
BRANCH  55  58
ATOM     58  O   UNL     1      36.020  40.685  18.084  1.00  0.00    -0.443 OA
BRANCH  58  59
ATOM     59  C   UNL     1      37.022  39.981  17.346  1.00  0.00     0.294 C 
BRANCH  59  60
ATOM     60  C   UNL     1      36.812  38.524  17.432  1.00  0.00     0.121 A 
ATOM     61  C   UNL     1      37.586  37.583  18.068  1.00  0.00     0.144 A 
ATOM     62  N   UNL     1      35.797  37.834  16.885  1.00  0.00    -0.131 NA
ATOM     63  N   UNL     1      37.039  36.359  17.900  1.00  0.00    -0.220 N 
ATOM     64  N   UNL     1      35.939  36.554  17.166  1.00  0.00    -0.062 NA
BRANCH  63  65
ATOM     65  C   UNL     1      37.494  35.104  18.372  1.00  0.00     0.079 A 
ATOM     66  C   UNL     1      38.247  34.320  17.536  1.00  0.00     0.065 A 
ATOM     67  C   UNL     1      37.193  34.664  19.645  1.00  0.00     0.029 A 
ATOM     68  C   UNL     1      38.720  33.078  17.946  1.00  0.00     0.016 A 
ATOM     69  C   UNL     1      37.659  33.419  20.075  1.00  0.00     0.002 A 
ATOM     70  C   UNL     1      38.413  32.647  19.220  1.00  0.00     0.001 A 
BRANCH  66  71
ATOM     71  C   UNL     1      38.558  34.789  16.201  1.00  0.00     0.250 C 
ATOM     72  O   UNL     1      39.680  35.315  15.990  1.00  0.00    -0.269 OA
ATOM     73  N   UNL     1      37.674  34.693  15.107  1.00  0.00    -0.366 N 
ATOM     74  H   UNL     1      37.953  34.169  14.264  1.00  0.00     0.159 HD
ATOM     75  H   UNL     1      36.751  35.149  15.154  1.00  0.00     0.159 HD
ENDBRANCH  66  71
ENDBRANCH  63  65
ENDBRANCH  59  60
ENDBRANCH  58  59
ENDBRANCH  55  58
ENDBRANCH  53  54
ENDBRANCH  50  53
ENDBRANCH  47  50
ENDBRANCH   5  47
BRANCH   4  76
ATOM     76  N   UNL     1      32.743  34.536  19.254  1.00  0.00    -0.348 N 
ATOM     77  C   UNL     1      32.631  34.224  20.632  1.00  0.00     0.217 C 
ATOM     78  H   UNL     1      33.704  34.614  18.846  1.00  0.00     0.163 HD
ATOM     79  C   UNL     1      33.775  34.000  21.542  1.00  0.00     0.114 C 
ATOM     80  O   UNL     1      31.434  34.145  21.059  1.00  0.00    -0.275 OA
ENDBRANCH   4  76
TORSDOF 31
BEGIN_RES LYS A 131
REMARK  4 active torsions:
REMARK  status: ('A' for Active; 'I' for Inactive)
REMARK    1  A    between atoms: CA   and  CB  
REMARK    2  A    between atoms: CB   and  CG  
REMARK    3  A    between atoms: CG   and  CD  
REMARK    4  A    between atoms: CD   and  CE  
ROOT
ATOM      1  CA  LYS A 131      29.867  25.555  16.977  1.00 20.52     0.186 C 
ENDROOT
BRANCH   1   2
ATOM      2  CB  LYS A 131      28.345  25.722  17.026  1.00 20.94     0.034 C 
BRANCH   2   3
ATOM      3  CG  LYS A 131      27.601  24.403  16.887  1.00 22.96     0.005 C 
BRANCH   3   4
ATOM      4  CD  LYS A 131      26.561  24.223  17.957  1.00 24.33     0.041 C 
BRANCH   4   5
ATOM      5  CE  LYS A 131      25.193  24.030  17.310  1.00 26.91     0.338 C 
ATOM      6  NZ  LYS A 131      24.429  25.300  17.323  1.00 27.40     0.618 N 
ENDBRANCH   4   5
ENDBRANCH   3   4
ENDBRANCH   2   3
ENDBRANCH   1   2
END_RES LYS A 131
BEGIN_RES LYS A 135
REMARK  4 active torsions:
REMARK  status: ('A' for Active; 'I' for Inactive)
REMARK    5  A    between atoms: CA   and  CB  
REMARK    6  A    between atoms: CB   and  CG  
REMARK    7  A    between atoms: CG   and  CD  
REMARK    8  A    between atoms: CD   and  CE  
ROOT
ATOM      7  CA  LYS A 135      33.193  34.663   9.290  1.00 25.02     0.186 C 
ENDROOT
BRANCH   7   8
ATOM      8  CB  LYS A 135      32.060  35.360  10.034  1.00 26.63     0.034 C 
BRANCH   8   9
ATOM      9  CG  LYS A 135      30.803  35.508   9.216  1.00 29.45     0.005 C 
BRANCH   9  10
ATOM     10  CD  LYS A 135      30.117  34.162   9.038  1.00 32.00     0.041 C 
BRANCH  10  11
ATOM     11  CE  LYS A 135      28.660  34.353   8.661  1.00 34.25     0.338 C 
ATOM     12  NZ  LYS A 135      27.761  33.672   9.633  1.00 35.99     0.618 N 
ENDBRANCH  10  11
ENDBRANCH   9  10
ENDBRANCH   8   9
ENDBRANCH   7   8
END_RES LYS A 135
