REMARK VINA RESULT:    -5.179      2.569      7.695
REMARK INTER + INTRA:         -26.459
REMARK INTER:                 -15.536
REMARK INTRA:                 -10.923
REMARK UNBOUND:               -12.046
REMARK SMILES CC(=O)N[C@@H]1[C@@H](O)C[C@](OC[C@H]2O[C@@H](O[C@H]3[C@H](O)[C@@H](O)[C@H](OCCN=[N+]=[N-])O[C@@H]3CO)[C@H](O)[C@@H](O)[C@H]2O)(C(=O)O)O[C@H]1C(O)[C@H](O)CNC(=O)OCc1cn(C[C@@H](C(=O)O)C(c2ccccc2)c2ccccc2)nn1
REMARK SMILES IDX 43 1 42 2 9 3 8 4 41 5 6 6 5 7 10 8 11 9 12 10 14 11 13 12
REMARK SMILES IDX 32 13 34 14 36 15 15 16 16 17 29 18 28 19 21 20 17 21 19 22
REMARK SMILES IDX 30 23 31 24 22 26 23 27 24 28 25 29 26 30 27 31 18 32 20 34
REMARK SMILES IDX 33 36 35 38 37 40 38 42 39 43 40 44 7 46 4 48 2 49 1 51 3 52
REMARK SMILES IDX 44 53 45 55 46 56 47 58 48 59 49 60 50 62 51 63 52 64 53 65
REMARK SMILES IDX 54 66 75 67 55 68 74 69 56 70 57 71 58 72 59 73 60 74 61 76
REMARK SMILES IDX 62 77 63 78 67 79 64 80 66 81 65 82 68 83 69 84 73 85 70 86
REMARK SMILES IDX 72 87 71 88
REMARK H PARENT 31 25 18 33 20 35 33 37 35 39 37 41 40 45 7 47 4 50 44 54
REMARK H PARENT 46 57 48 61 60 75
REMARK Flexibility Score: inf
ROOT
ATOM      1  C   UNL     1      28.333  31.258  16.175  1.00  0.00     0.176 C 
ENDROOT
BRANCH   1   2
ATOM      2  C   UNL     1      27.941  31.428  17.659  1.00  0.00     0.178 C 
ATOM      3  C   UNL     1      28.590  31.912  19.823  1.00  0.00     0.272 C 
ATOM      4  C   UNL     1      27.031  31.804  19.905  1.00  0.00     0.113 C 
ATOM      5  O   UNL     1      28.971  31.672  18.491  1.00  0.00    -0.332 OA
ATOM      6  C   UNL     1      26.534  30.502  19.380  1.00  0.00     0.145 C 
ATOM      7  C   UNL     1      27.078  30.239  18.013  1.00  0.00     0.142 C 
BRANCH   3   8
ATOM      8  O   UNL     1      29.091  31.133  20.724  1.00  0.00    -0.338 OA
BRANCH   8   9
ATOM      9  C   UNL     1      29.978  31.113  21.638  1.00  0.00     0.199 C 
BRANCH   9  10
ATOM     10  C   UNL     1      30.988  30.016  21.846  1.00  0.00     0.179 C 
ATOM     11  C   UNL     1      30.908  27.924  22.962  1.00  0.00     0.282 C 
ATOM     12  O   UNL     1      30.638  29.237  22.906  1.00  0.00    -0.341 OA
ATOM     13  C   UNL     1      31.738  27.290  21.915  1.00  0.00     0.202 C 
ATOM     14  C   UNL     1      32.047  28.152  20.725  1.00  0.00     0.179 C 
ATOM     15  C   UNL     1      30.910  29.114  20.593  1.00  0.00     0.177 C 
BRANCH  11  16
ATOM     16  O   UNL     1      29.635  27.285  22.904  1.00  0.00    -0.341 OA
BRANCH  16  17
ATOM     17  C   UNL     1      29.110  27.001  24.133  1.00  0.00     0.184 C 
ATOM     18  C   UNL     1      28.237  25.784  24.016  1.00  0.00     0.178 C 
ATOM     19  O   UNL     1      26.939  26.091  23.626  1.00  0.00    -0.341 OA
ATOM     20  C   UNL     1      26.845  27.269  22.871  1.00  0.00     0.281 C 
ATOM     21  C   UNL     1      28.247  28.133  24.673  1.00  0.00     0.180 C 
ATOM     22  C   UNL     1      27.162  28.484  23.676  1.00  0.00     0.202 C 
BRANCH  18  23
ATOM     23  C   UNL     1      28.188  24.935  25.254  1.00  0.00     0.191 C 
BRANCH  23  24
ATOM     24  O   UNL     1      26.919  24.819  25.783  1.00  0.00    -0.394 OA
ATOM     25  H   UNL     1      27.004  24.955  26.774  1.00  0.00     0.210 HD
ENDBRANCH  23  24
ENDBRANCH  18  23
BRANCH  20  26
ATOM     26  O   UNL     1      25.553  27.382  22.410  1.00  0.00    -0.350 OA
BRANCH  26  27
ATOM     27  C   UNL     1      24.567  27.455  23.342  1.00  0.00     0.169 C 
BRANCH  27  28
ATOM     28  C   UNL     1      23.277  26.815  22.941  1.00  0.00     0.119 C 
BRANCH  28  29
ATOM     29  N   UNL     1      23.560  25.372  22.814  1.00  0.00    -0.092 NA
ATOM     30  N   UNL     1      23.784  24.756  23.859  1.00  0.00     0.001 N 
ATOM     31  N   UNL     1      24.151  24.160  24.870  1.00  0.00    -0.003 NA
ENDBRANCH  28  29
ENDBRANCH  27  28
ENDBRANCH  26  27
ENDBRANCH  20  26
BRANCH  21  32
ATOM     32  O   UNL     1      27.622  27.658  25.823  1.00  0.00    -0.387 OA
ATOM     33  H   UNL     1      28.250  27.491  26.562  1.00  0.00     0.211 HD
ENDBRANCH  21  32
BRANCH  22  34
ATOM     34  O   UNL     1      27.598  29.496  22.830  1.00  0.00    -0.385 OA
ATOM     35  H   UNL     1      27.707  30.321  23.401  1.00  0.00     0.211 HD
ENDBRANCH  22  34
ENDBRANCH  16  17
ENDBRANCH  11  16
BRANCH  13  36
ATOM     36  O   UNL     1      32.992  26.908  22.449  1.00  0.00    -0.385 OA
ATOM     37  H   UNL     1      33.486  27.713  22.776  1.00  0.00     0.211 HD
ENDBRANCH  13  36
BRANCH  14  38
ATOM     38  O   UNL     1      32.170  27.373  19.592  1.00  0.00    -0.387 OA
ATOM     39  H   UNL     1      31.348  26.825  19.485  1.00  0.00     0.211 HD
ENDBRANCH  14  38
BRANCH  15  40
ATOM     40  O   UNL     1      29.718  28.404  20.571  1.00  0.00    -0.387 OA
ATOM     41  H   UNL     1      29.653  27.894  21.405  1.00  0.00     0.211 HD
ENDBRANCH  15  40
ENDBRANCH   9  10
ENDBRANCH   8   9
ENDBRANCH   3   8
BRANCH   3  42
ATOM     42  C   UNL     1      28.809  33.359  20.021  1.00  0.00     0.364 C 
ATOM     43  O   UNL     1      28.156  34.088  20.796  1.00  0.00    -0.246 OA
BRANCH  42  44
ATOM     44  O   UNL     1      29.830  34.007  19.293  1.00  0.00    -0.477 OA
ATOM     45  H   UNL     1      30.606  34.361  19.810  1.00  0.00     0.296 HD
ENDBRANCH  42  44
ENDBRANCH   3  42
BRANCH   6  46
ATOM     46  O   UNL     1      26.811  29.436  20.247  1.00  0.00    -0.391 OA
ATOM     47  H   UNL     1      26.034  29.203  20.807  1.00  0.00     0.211 HD
ENDBRANCH   6  46
BRANCH   7  48
ATOM     48  N   UNL     1      25.987  30.181  17.067  1.00  0.00    -0.348 N 
ATOM     49  C   UNL     1      25.177  29.024  16.947  1.00  0.00     0.217 C 
ATOM     50  H   UNL     1      25.798  31.027  16.459  1.00  0.00     0.163 HD
ATOM     51  C   UNL     1      24.040  28.958  15.966  1.00  0.00     0.114 C 
ATOM     52  O   UNL     1      25.448  28.050  17.695  1.00  0.00    -0.275 OA
ENDBRANCH   7  48
ENDBRANCH   1   2
BRANCH   1  53
ATOM     53  O   UNL     1      28.761  29.983  15.924  1.00  0.00    -0.388 OA
ATOM     54  H   UNL     1      28.190  29.479  15.300  1.00  0.00     0.211 HD
ENDBRANCH   1  53
BRANCH   1  55
ATOM     55  C   UNL     1      29.375  32.236  15.796  1.00  0.00     0.165 C 
BRANCH  55  56
ATOM     56  O   UNL     1      29.002  33.056  14.710  1.00  0.00    -0.388 OA
ATOM     57  H   UNL     1      29.584  33.873  14.808  1.00  0.00     0.211 HD
ENDBRANCH  55  56
BRANCH  55  58
ATOM     58  C   UNL     1      30.786  31.814  15.623  1.00  0.00     0.154 C 
BRANCH  58  59
ATOM     59  N   UNL     1      31.642  32.704  14.930  1.00  0.00    -0.319 N 
ATOM     60  C   UNL     1      32.270  33.851  15.459  1.00  0.00     0.407 C 
ATOM     61  H   UNL     1      31.846  32.483  13.878  1.00  0.00     0.167 HD
ATOM     62  O   UNL     1      32.096  34.241  16.627  1.00  0.00    -0.225 OA
BRANCH  60  63
ATOM     63  O   UNL     1      33.118  34.563  14.636  1.00  0.00    -0.443 OA
BRANCH  63  64
ATOM     64  C   UNL     1      32.687  35.642  13.884  1.00  0.00     0.294 C 
BRANCH  64  65
ATOM     65  C   UNL     1      31.314  35.528  13.372  1.00  0.00     0.120 A 
ATOM     66  C   UNL     1      30.250  36.386  13.522  1.00  0.00     0.138 A 
ATOM     67  N   UNL     1      30.811  34.481  12.647  1.00  0.00    -0.132 NA
ATOM     68  N   UNL     1      29.175  35.870  12.917  1.00  0.00    -0.251 N 
ATOM     69  N   UNL     1      29.544  34.715  12.395  1.00  0.00    -0.067 NA
BRANCH  68  70
ATOM     70  C   UNL     1      27.817  36.442  12.819  1.00  0.00     0.162 C 
BRANCH  70  71
ATOM     71  C   UNL     1      26.801  35.378  13.075  1.00  0.00     0.132 C 
BRANCH  71  72
ATOM     72  C   UNL     1      26.200  35.532  14.434  1.00  0.00     0.309 C 
ATOM     73  O   UNL     1      26.539  34.837  15.406  1.00  0.00    -0.252 OA
BRANCH  72  74
ATOM     74  O   UNL     1      25.220  36.488  14.637  1.00  0.00    -0.481 OA
ATOM     75  H   UNL     1      25.476  37.479  14.642  1.00  0.00     0.296 HD
ENDBRANCH  72  74
ENDBRANCH  71  72
BRANCH  71  76
ATOM     76  C   UNL     1      25.787  35.111  12.026  1.00  0.00     0.065 C 
BRANCH  76  77
ATOM     77  C   UNL     1      26.241  35.053  10.636  1.00  0.00    -0.040 A 
ATOM     78  C   UNL     1      25.835  36.018   9.702  1.00  0.00     0.004 A 
ATOM     79  C   UNL     1      27.085  34.058  10.136  1.00  0.00     0.004 A 
ATOM     80  C   UNL     1      26.227  36.001   8.400  1.00  0.00     0.000 A 
ATOM     81  C   UNL     1      27.475  34.050   8.818  1.00  0.00     0.000 A 
ATOM     82  C   UNL     1      27.049  35.022   7.935  1.00  0.00     0.000 A 
ENDBRANCH  76  77
BRANCH  76  83
ATOM     83  C   UNL     1      24.795  34.069  12.404  1.00  0.00    -0.040 A 
ATOM     84  C   UNL     1      23.470  34.355  12.157  1.00  0.00     0.004 A 
ATOM     85  C   UNL     1      25.154  32.871  12.961  1.00  0.00     0.004 A 
ATOM     86  C   UNL     1      22.490  33.453  12.461  1.00  0.00     0.000 A 
ATOM     87  C   UNL     1      24.146  31.961  13.266  1.00  0.00     0.000 A 
ATOM     88  C   UNL     1      22.820  32.241  13.022  1.00  0.00     0.000 A 
ENDBRANCH  76  83
ENDBRANCH  71  76
ENDBRANCH  70  71
ENDBRANCH  68  70
ENDBRANCH  64  65
ENDBRANCH  63  64
ENDBRANCH  60  63
ENDBRANCH  58  59
ENDBRANCH  55  58
ENDBRANCH   1  55
TORSDOF 36
BEGIN_RES LYS A 131
REMARK  4 active torsions:
REMARK  status: ('A' for Active; 'I' for Inactive)
REMARK    1  A    between atoms: CA   and  CB  
REMARK    2  A    between atoms: CB   and  CG  
REMARK    3  A    between atoms: CG   and  CD  
REMARK    4  A    between atoms: CD   and  CE  
ROOT
ATOM      1  CA  LYS A 131      29.867  25.555  16.977  1.00 20.52     0.186 C 
ENDROOT
BRANCH   1   2
ATOM      2  CB  LYS A 131      28.345  25.722  17.026  1.00 20.94     0.034 C 
BRANCH   2   3
ATOM      3  CG  LYS A 131      27.602  24.400  16.914  1.00 22.96     0.005 C 
BRANCH   3   4
ATOM      4  CD  LYS A 131      26.165  24.520  17.340  1.00 24.33     0.041 C 
BRANCH   4   5
ATOM      5  CE  LYS A 131      25.835  23.412  18.336  1.00 26.91     0.338 C 
ATOM      6  NZ  LYS A 131      25.093  22.318  17.667  1.00 27.40     0.618 N 
ENDBRANCH   4   5
ENDBRANCH   3   4
ENDBRANCH   2   3
ENDBRANCH   1   2
END_RES LYS A 131
BEGIN_RES LYS A 135
REMARK  4 active torsions:
REMARK  status: ('A' for Active; 'I' for Inactive)
REMARK    5  A    between atoms: CA   and  CB  
REMARK    6  A    between atoms: CB   and  CG  
REMARK    7  A    between atoms: CG   and  CD  
REMARK    8  A    between atoms: CD   and  CE  
ROOT
ATOM      7  CA  LYS A 135      33.193  34.663   9.290  1.00 25.02     0.186 C 
ENDROOT
BRANCH   7   8
ATOM      8  CB  LYS A 135      32.060  35.360  10.034  1.00 26.63     0.034 C 
BRANCH   8   9
ATOM      9  CG  LYS A 135      30.778  35.434   9.246  1.00 29.45     0.005 C 
BRANCH   9  10
ATOM     10  CD  LYS A 135      30.081  36.766   9.478  1.00 32.00     0.041 C 
BRANCH  10  11
ATOM     11  CE  LYS A 135      31.015  37.742  10.168  1.00 34.25     0.338 C 
ATOM     12  NZ  LYS A 135      30.253  38.837  10.830  1.00 35.99     0.618 N 
ENDBRANCH  10  11
ENDBRANCH   9  10
ENDBRANCH   8   9
ENDBRANCH   7   8
END_RES LYS A 135
