REMARK VINA RESULT:    -4.332      6.351     11.593
REMARK INTER + INTRA:         -24.403
REMARK INTER:                 -11.452
REMARK INTRA:                 -12.951
REMARK UNBOUND:               -13.108
REMARK SMILES CC(=O)N[C@@H]1[C@@H](O)C[C@](OC[C@H]2O[C@@H](O[C@H]3[C@H](O)[C@@H](O)[C@H](OCCN=[N+]=[N-])O[C@@H]3CO)[C@H](O)[C@@H](O)[C@H]2O)(C(=O)O)O[C@H]1C(O)[C@H](O)CNC(=O)OCc1cn(-c2cccc(C=CC(=O)O)c2)nn1
REMARK SMILES IDX 43 1 42 2 9 3 8 4 41 5 6 6 5 7 10 8 11 9 12 10 14 11 13 12
REMARK SMILES IDX 32 13 34 14 36 15 15 16 16 17 29 18 28 19 21 20 17 21 19 22
REMARK SMILES IDX 30 23 31 24 22 26 23 27 24 28 25 29 26 30 27 31 18 32 20 34
REMARK SMILES IDX 33 36 35 38 37 40 38 42 39 43 40 44 7 46 4 48 2 49 1 51 3 52
REMARK SMILES IDX 44 53 45 55 46 56 47 58 48 59 49 60 50 62 51 63 52 64 53 65
REMARK SMILES IDX 54 66 68 67 55 68 67 69 56 70 66 71 57 72 60 73 58 74 59 75
REMARK SMILES IDX 61 76 62 77 63 78 64 79 65 80
REMARK H PARENT 31 25 18 33 20 35 33 37 35 39 37 41 40 45 7 47 4 50 44 54
REMARK H PARENT 46 57 48 61 65 81
REMARK Flexibility Score: inf
ROOT
ATOM      1  C   UNL     1      30.586  32.646  15.753  1.00  0.00     0.176 C 
ENDROOT
BRANCH   1   2
ATOM      2  C   UNL     1      31.320  33.642  16.627  1.00  0.00     0.178 C 
ATOM      3  C   UNL     1      31.172  34.463  18.832  1.00  0.00     0.272 C 
ATOM      4  C   UNL     1      32.393  35.271  18.178  1.00  0.00     0.113 C 
ATOM      5  O   UNL     1      30.642  33.701  17.812  1.00  0.00    -0.332 OA
ATOM      6  C   UNL     1      31.805  35.997  17.022  1.00  0.00     0.145 C 
ATOM      7  C   UNL     1      31.342  34.999  15.979  1.00  0.00     0.142 C 
BRANCH   3   8
ATOM      8  O   UNL     1      30.320  35.445  19.147  1.00  0.00    -0.338 OA
BRANCH   8   9
ATOM      9  C   UNL     1      29.662  35.588  20.284  1.00  0.00     0.199 C 
BRANCH   9  10
ATOM     10  C   UNL     1      28.158  35.754  20.257  1.00  0.00     0.179 C 
ATOM     11  C   UNL     1      26.721  36.018  18.396  1.00  0.00     0.282 C 
ATOM     12  O   UNL     1      27.830  36.401  19.125  1.00  0.00    -0.341 OA
ATOM     13  C   UNL     1      25.680  35.493  19.303  1.00  0.00     0.202 C 
ATOM     14  C   UNL     1      26.104  34.360  20.186  1.00  0.00     0.179 C 
ATOM     15  C   UNL     1      27.608  34.335  20.254  1.00  0.00     0.177 C 
BRANCH  11  16
ATOM     16  O   UNL     1      27.182  35.195  17.392  1.00  0.00    -0.341 OA
BRANCH  16  17
ATOM     17  C   UNL     1      26.766  35.489  16.140  1.00  0.00     0.184 C 
ATOM     18  C   UNL     1      26.169  34.293  15.464  1.00  0.00     0.178 C 
ATOM     19  O   UNL     1      25.450  34.816  14.363  1.00  0.00    -0.341 OA
ATOM     20  C   UNL     1      26.345  35.241  13.379  1.00  0.00     0.281 C 
ATOM     21  C   UNL     1      27.912  35.927  15.223  1.00  0.00     0.180 C 
ATOM     22  C   UNL     1      27.319  36.260  13.871  1.00  0.00     0.202 C 
BRANCH  18  23
ATOM     23  C   UNL     1      25.252  33.481  16.306  1.00  0.00     0.191 C 
BRANCH  23  24
ATOM     24  O   UNL     1      26.005  32.662  17.144  1.00  0.00    -0.394 OA
ATOM     25  H   UNL     1      25.430  31.921  17.512  1.00  0.00     0.210 HD
ENDBRANCH  23  24
ENDBRANCH  18  23
BRANCH  20  26
ATOM     26  O   UNL     1      25.595  35.798  12.348  1.00  0.00    -0.350 OA
BRANCH  26  27
ATOM     27  C   UNL     1      24.928  34.827  11.606  1.00  0.00     0.169 C 
BRANCH  27  28
ATOM     28  C   UNL     1      24.344  35.494  10.381  1.00  0.00     0.119 C 
BRANCH  28  29
ATOM     29  N   UNL     1      25.241  35.313   9.264  1.00  0.00    -0.092 NA
ATOM     30  N   UNL     1      25.658  36.296   8.626  1.00  0.00     0.001 N 
ATOM     31  N   UNL     1      25.753  37.178   7.757  1.00  0.00    -0.003 NA
ENDBRANCH  28  29
ENDBRANCH  27  28
ENDBRANCH  26  27
ENDBRANCH  20  26
BRANCH  21  32
ATOM     32  O   UNL     1      28.545  37.076  15.682  1.00  0.00    -0.387 OA
ATOM     33  H   UNL     1      27.817  37.712  15.892  1.00  0.00     0.211 HD
ENDBRANCH  21  32
BRANCH  22  34
ATOM     34  O   UNL     1      28.406  36.264  12.966  1.00  0.00    -0.385 OA
ATOM     35  H   UNL     1      29.100  35.615  13.220  1.00  0.00     0.211 HD
ENDBRANCH  22  34
ENDBRANCH  16  17
ENDBRANCH  11  16
BRANCH  13  36
ATOM     36  O   UNL     1      25.241  36.542  20.163  1.00  0.00    -0.385 OA
ATOM     37  H   UNL     1      24.321  36.333  20.488  1.00  0.00     0.211 HD
ENDBRANCH  13  36
BRANCH  14  38
ATOM     38  O   UNL     1      25.584  33.120  19.804  1.00  0.00    -0.387 OA
ATOM     39  H   UNL     1      26.269  32.406  19.840  1.00  0.00     0.211 HD
ENDBRANCH  14  38
BRANCH  15  40
ATOM     40  O   UNL     1      28.099  33.618  19.181  1.00  0.00    -0.387 OA
ATOM     41  H   UNL     1      28.853  33.005  19.448  1.00  0.00     0.211 HD
ENDBRANCH  15  40
ENDBRANCH   9  10
ENDBRANCH   8   9
ENDBRANCH   3   8
BRANCH   3  42
ATOM     42  C   UNL     1      31.780  33.625  19.853  1.00  0.00     0.364 C 
ATOM     43  O   UNL     1      32.788  33.847  20.548  1.00  0.00    -0.246 OA
BRANCH  42  44
ATOM     44  O   UNL     1      31.163  32.378  20.117  1.00  0.00    -0.477 OA
ATOM     45  H   UNL     1      30.804  31.847  19.309  1.00  0.00     0.296 HD
ENDBRANCH  42  44
ENDBRANCH   3  42
BRANCH   6  46
ATOM     46  O   UNL     1      30.649  36.678  17.533  1.00  0.00    -0.391 OA
ATOM     47  H   UNL     1      30.359  36.241  18.381  1.00  0.00     0.211 HD
ENDBRANCH   6  46
BRANCH   7  48
ATOM     48  N   UNL     1      31.998  35.080  14.724  1.00  0.00    -0.348 N 
ATOM     49  C   UNL     1      31.817  36.021  13.707  1.00  0.00     0.217 C 
ATOM     50  H   UNL     1      32.722  34.308  14.484  1.00  0.00     0.163 HD
ATOM     51  C   UNL     1      32.630  35.891  12.433  1.00  0.00     0.114 C 
ATOM     52  O   UNL     1      31.014  36.990  13.770  1.00  0.00    -0.275 OA
ENDBRANCH   7  48
ENDBRANCH   1   2
BRANCH   1  53
ATOM     53  O   UNL     1      31.504  31.878  15.059  1.00  0.00    -0.388 OA
ATOM     54  H   UNL     1      32.082  31.325  15.614  1.00  0.00     0.211 HD
ENDBRANCH   1  53
BRANCH   1  55
ATOM     55  C   UNL     1      29.754  31.667  16.582  1.00  0.00     0.165 C 
BRANCH  55  56
ATOM     56  O   UNL     1      30.467  31.027  17.558  1.00  0.00    -0.388 OA
ATOM     57  H   UNL     1      31.445  31.126  17.488  1.00  0.00     0.211 HD
ENDBRANCH  55  56
BRANCH  55  58
ATOM     58  C   UNL     1      29.018  30.705  15.705  1.00  0.00     0.154 C 
BRANCH  58  59
ATOM     59  N   UNL     1      28.226  29.796  16.453  1.00  0.00    -0.319 N 
ATOM     60  C   UNL     1      26.829  29.674  16.279  1.00  0.00     0.407 C 
ATOM     61  H   UNL     1      28.665  29.169  17.180  1.00  0.00     0.167 HD
ATOM     62  O   UNL     1      26.215  30.384  15.436  1.00  0.00    -0.225 OA
BRANCH  60  63
ATOM     63  O   UNL     1      26.060  28.775  17.013  1.00  0.00    -0.443 OA
BRANCH  63  64
ATOM     64  C   UNL     1      25.738  29.159  18.356  1.00  0.00     0.294 C 
BRANCH  64  65
ATOM     65  C   UNL     1      27.013  29.424  19.047  1.00  0.00     0.121 A 
ATOM     66  C   UNL     1      27.884  28.499  19.615  1.00  0.00     0.144 A 
ATOM     67  N   UNL     1      27.571  30.629  19.245  1.00  0.00    -0.131 NA
ATOM     68  N   UNL     1      28.934  29.178  20.130  1.00  0.00    -0.220 N 
ATOM     69  N   UNL     1      28.715  30.456  19.893  1.00  0.00    -0.062 NA
BRANCH  68  70
ATOM     70  C   UNL     1      30.030  28.557  20.780  1.00  0.00     0.067 A 
ATOM     71  C   UNL     1      31.147  29.315  21.132  1.00  0.00     0.036 A 
ATOM     72  C   UNL     1      30.021  27.234  21.074  1.00  0.00     0.028 A 
ATOM     73  C   UNL     1      32.222  28.765  21.757  1.00  0.00    -0.023 A 
ATOM     74  C   UNL     1      31.098  26.627  21.714  1.00  0.00     0.003 A 
ATOM     75  C   UNL     1      32.179  27.414  22.042  1.00  0.00     0.008 A 
BRANCH  73  76
ATOM     76  C   UNL     1      33.383  29.548  22.119  1.00  0.00     0.015 C 
ATOM     77  C   UNL     1      33.326  30.854  22.189  1.00  0.00     0.094 C 
BRANCH  77  78
ATOM     78  C   UNL     1      34.527  31.607  22.560  1.00  0.00     0.328 C 
ATOM     79  O   UNL     1      34.544  32.347  23.550  1.00  0.00    -0.247 OA
BRANCH  78  80
ATOM     80  O   UNL     1      35.685  31.502  21.794  1.00  0.00    -0.478 OA
ATOM     81  H   UNL     1      36.293  30.701  21.974  1.00  0.00     0.297 HD
ENDBRANCH  78  80
ENDBRANCH  77  78
ENDBRANCH  73  76
ENDBRANCH  68  70
ENDBRANCH  64  65
ENDBRANCH  63  64
ENDBRANCH  60  63
ENDBRANCH  58  59
ENDBRANCH  55  58
ENDBRANCH   1  55
TORSDOF 33
BEGIN_RES LYS A 131
REMARK  4 active torsions:
REMARK  status: ('A' for Active; 'I' for Inactive)
REMARK    1  A    between atoms: CA   and  CB  
REMARK    2  A    between atoms: CB   and  CG  
REMARK    3  A    between atoms: CG   and  CD  
REMARK    4  A    between atoms: CD   and  CE  
ROOT
ATOM      1  CA  LYS A 131      29.867  25.555  16.977  1.00 20.52     0.186 C 
ENDROOT
BRANCH   1   2
ATOM      2  CB  LYS A 131      28.345  25.722  17.026  1.00 20.94     0.034 C 
BRANCH   2   3
ATOM      3  CG  LYS A 131      27.600  24.417  16.791  1.00 22.96     0.005 C 
BRANCH   3   4
ATOM      4  CD  LYS A 131      27.003  23.870  18.058  1.00 24.33     0.041 C 
BRANCH   4   5
ATOM      5  CE  LYS A 131      25.586  24.409  18.227  1.00 26.91     0.338 C 
ATOM      6  NZ  LYS A 131      24.860  24.376  16.936  1.00 27.40     0.618 N 
ENDBRANCH   4   5
ENDBRANCH   3   4
ENDBRANCH   2   3
ENDBRANCH   1   2
END_RES LYS A 131
BEGIN_RES LYS A 135
REMARK  4 active torsions:
REMARK  status: ('A' for Active; 'I' for Inactive)
REMARK    5  A    between atoms: CA   and  CB  
REMARK    6  A    between atoms: CB   and  CG  
REMARK    7  A    between atoms: CG   and  CD  
REMARK    8  A    between atoms: CD   and  CE  
ROOT
ATOM      7  CA  LYS A 135      33.193  34.663   9.290  1.00 25.02     0.186 C 
ENDROOT
BRANCH   7   8
ATOM      8  CB  LYS A 135      32.060  35.360  10.034  1.00 26.63     0.034 C 
BRANCH   8   9
ATOM      9  CG  LYS A 135      30.825  35.565   9.195  1.00 29.45     0.005 C 
BRANCH   9  10
ATOM     10  CD  LYS A 135      30.061  34.259   9.037  1.00 32.00     0.041 C 
BRANCH  10  11
ATOM     11  CE  LYS A 135      28.727  34.501   8.357  1.00 34.25     0.338 C 
ATOM     12  NZ  LYS A 135      28.884  35.382   7.167  1.00 35.99     0.618 N 
ENDBRANCH  10  11
ENDBRANCH   9  10
ENDBRANCH   8   9
ENDBRANCH   7   8
END_RES LYS A 135
