REMARK VINA RESULT:    -5.034      6.590     12.904
REMARK INTER + INTRA:         -26.055
REMARK INTER:                 -13.190
REMARK INTRA:                 -12.864
REMARK UNBOUND:               -12.046
REMARK SMILES CC(=O)N[C@@H]1[C@@H](O)C[C@](OC[C@H]2O[C@@H](O[C@H]3[C@H](O)[C@@H](O)[C@H](OCCN=[N+]=[N-])O[C@@H]3CO)[C@H](O)[C@@H](O)[C@H]2O)(C(=O)O)O[C@H]1C(O)[C@H](O)CNC(=O)OCc1cn(C[C@@H](C(=O)O)C(c2ccccc2)c2ccccc2)nn1
REMARK SMILES IDX 43 1 42 2 9 3 8 4 41 5 6 6 5 7 10 8 11 9 12 10 14 11 13 12
REMARK SMILES IDX 32 13 34 14 36 15 15 16 16 17 29 18 28 19 21 20 17 21 19 22
REMARK SMILES IDX 30 23 31 24 22 26 23 27 24 28 25 29 26 30 27 31 18 32 20 34
REMARK SMILES IDX 33 36 35 38 37 40 38 42 39 43 40 44 7 46 4 48 2 49 1 51 3 52
REMARK SMILES IDX 44 53 45 55 46 56 47 58 48 59 49 60 50 62 51 63 52 64 53 65
REMARK SMILES IDX 54 66 75 67 55 68 74 69 56 70 57 71 58 72 59 73 60 74 61 76
REMARK SMILES IDX 62 77 63 78 67 79 64 80 66 81 65 82 68 83 69 84 73 85 70 86
REMARK SMILES IDX 72 87 71 88
REMARK H PARENT 31 25 18 33 20 35 33 37 35 39 37 41 40 45 7 47 4 50 44 54
REMARK H PARENT 46 57 48 61 60 75
REMARK Flexibility Score: inf
ROOT
ATOM      1  C   UNL     1      22.737  40.276  10.543  1.00  0.00     0.176 C 
ENDROOT
BRANCH   1   2
ATOM      2  C   UNL     1      22.815  38.867   9.917  1.00  0.00     0.178 C 
ATOM      3  C   UNL     1      23.670  36.721  10.000  1.00  0.00     0.272 C 
ATOM      4  C   UNL     1      22.630  36.675   8.832  1.00  0.00     0.113 C 
ATOM      5  O   UNL     1      23.675  38.027  10.523  1.00  0.00    -0.332 OA
ATOM      6  C   UNL     1      22.899  37.718   7.803  1.00  0.00     0.145 C 
ATOM      7  C   UNL     1      23.026  39.067   8.435  1.00  0.00     0.142 C 
BRANCH   3   8
ATOM      8  O   UNL     1      24.793  36.268   9.550  1.00  0.00    -0.338 OA
BRANCH   8   9
ATOM      9  C   UNL     1      25.369  35.176   9.235  1.00  0.00     0.199 C 
BRANCH   9  10
ATOM     10  C   UNL     1      26.543  35.050   8.299  1.00  0.00     0.179 C 
ATOM     11  C   UNL     1      27.915  36.637   7.193  1.00  0.00     0.282 C 
ATOM     12  O   UNL     1      26.710  36.197   7.585  1.00  0.00    -0.341 OA
ATOM     13  C   UNL     1      29.118  35.804   7.406  1.00  0.00     0.202 C 
ATOM     14  C   UNL     1      28.916  34.584   8.258  1.00  0.00     0.179 C 
ATOM     15  C   UNL     1      27.794  34.903   9.194  1.00  0.00     0.177 C 
BRANCH  11  16
ATOM     16  O   UNL     1      28.125  37.838   7.933  1.00  0.00    -0.341 OA
BRANCH  16  17
ATOM     17  C   UNL     1      27.148  38.774   7.743  1.00  0.00     0.184 C 
ATOM     18  C   UNL     1      27.703  39.886   6.900  1.00  0.00     0.178 C 
ATOM     19  O   UNL     1      28.364  40.851   7.652  1.00  0.00    -0.341 OA
ATOM     20  C   UNL     1      28.899  40.357   8.850  1.00  0.00     0.281 C 
ATOM     21  C   UNL     1      26.668  39.387   9.052  1.00  0.00     0.180 C 
ATOM     22  C   UNL     1      27.841  39.960   9.822  1.00  0.00     0.202 C 
BRANCH  18  23
ATOM     23  C   UNL     1      26.690  40.562   6.020  1.00  0.00     0.191 C 
BRANCH  23  24
ATOM     24  O   UNL     1      25.522  39.838   5.882  1.00  0.00    -0.394 OA
ATOM     25  H   UNL     1      25.770  38.869   5.978  1.00  0.00     0.210 HD
ENDBRANCH  23  24
ENDBRANCH  18  23
BRANCH  20  26
ATOM     26  O   UNL     1      29.660  41.351   9.422  1.00  0.00    -0.350 OA
BRANCH  26  27
ATOM     27  C   UNL     1      29.053  42.141  10.347  1.00  0.00     0.169 C 
BRANCH  27  28
ATOM     28  C   UNL     1      28.902  43.572   9.944  1.00  0.00     0.119 C 
BRANCH  28  29
ATOM     29  N   UNL     1      27.459  43.873  10.039  1.00  0.00    -0.092 NA
ATOM     30  N   UNL     1      26.771  43.604   9.051  1.00  0.00     0.001 N 
ATOM     31  N   UNL     1      26.099  43.478   8.030  1.00  0.00    -0.003 NA
ENDBRANCH  28  29
ENDBRANCH  27  28
ENDBRANCH  26  27
ENDBRANCH  20  26
BRANCH  21  32
ATOM     32  O   UNL     1      25.827  40.446   8.722  1.00  0.00    -0.387 OA
ATOM     33  H   UNL     1      25.871  41.190   9.366  1.00  0.00     0.211 HD
ENDBRANCH  21  32
BRANCH  22  34
ATOM     34  O   UNL     1      28.350  39.007  10.694  1.00  0.00    -0.385 OA
ATOM     35  H   UNL     1      29.204  38.663  10.279  1.00  0.00     0.211 HD
ENDBRANCH  22  34
ENDBRANCH  16  17
ENDBRANCH  11  16
BRANCH  13  36
ATOM     36  O   UNL     1      29.610  35.329   6.166  1.00  0.00    -0.385 OA
ATOM     37  H   UNL     1      30.059  36.069   5.668  1.00  0.00     0.211 HD
ENDBRANCH  13  36
BRANCH  14  38
ATOM     38  O   UNL     1      30.072  34.292   8.953  1.00  0.00    -0.387 OA
ATOM     39  H   UNL     1      30.501  33.493   8.547  1.00  0.00     0.211 HD
ENDBRANCH  14  38
BRANCH  15  40
ATOM     40  O   UNL     1      28.077  36.095   9.847  1.00  0.00    -0.387 OA
ATOM     41  H   UNL     1      28.764  35.916  10.522  1.00  0.00     0.211 HD
ENDBRANCH  15  40
ENDBRANCH   9  10
ENDBRANCH   8   9
ENDBRANCH   3   8
BRANCH   3  42
ATOM     42  C   UNL     1      23.007  35.904  11.035  1.00  0.00     0.364 C 
ATOM     43  O   UNL     1      22.195  34.982  10.816  1.00  0.00    -0.246 OA
BRANCH  42  44
ATOM     44  O   UNL     1      23.288  36.155  12.395  1.00  0.00    -0.477 OA
ATOM     45  H   UNL     1      22.571  36.586  12.938  1.00  0.00     0.296 HD
ENDBRANCH  42  44
ENDBRANCH   3  42
BRANCH   6  46
ATOM     46  O   UNL     1      24.025  37.419   7.022  1.00  0.00    -0.391 OA
ATOM     47  H   UNL     1      23.925  37.735   6.094  1.00  0.00     0.211 HD
ENDBRANCH   6  46
BRANCH   7  48
ATOM     48  N   UNL     1      21.971  39.925   7.944  1.00  0.00    -0.348 N 
ATOM     49  C   UNL     1      22.262  41.133   7.262  1.00  0.00     0.217 C 
ATOM     50  H   UNL     1      20.966  39.632   8.103  1.00  0.00     0.163 HD
ATOM     51  C   UNL     1      21.169  42.029   6.749  1.00  0.00     0.114 C 
ATOM     52  O   UNL     1      23.474  41.428   7.103  1.00  0.00    -0.275 OA
ENDBRANCH   7  48
ENDBRANCH   1   2
BRANCH   1  53
ATOM     53  O   UNL     1      23.945  40.648  11.066  1.00  0.00    -0.388 OA
ATOM     54  H   UNL     1      24.152  41.605  10.968  1.00  0.00     0.211 HD
ENDBRANCH   1  53
BRANCH   1  55
ATOM     55  C   UNL     1      21.686  40.329  11.582  1.00  0.00     0.165 C 
BRANCH  55  56
ATOM     56  O   UNL     1      21.497  41.619  12.120  1.00  0.00    -0.388 OA
ATOM     57  H   UNL     1      22.385  41.842  12.541  1.00  0.00     0.211 HD
ENDBRANCH  55  56
BRANCH  55  58
ATOM     58  C   UNL     1      21.656  39.335  12.682  1.00  0.00     0.154 C 
BRANCH  58  59
ATOM     59  N   UNL     1      22.861  39.131  13.397  1.00  0.00    -0.319 N 
ATOM     60  C   UNL     1      23.360  39.925  14.451  1.00  0.00     0.407 C 
ATOM     61  H   UNL     1      23.471  38.269  13.111  1.00  0.00     0.167 HD
ATOM     62  O   UNL     1      22.790  40.954  14.852  1.00  0.00    -0.225 OA
BRANCH  60  63
ATOM     63  O   UNL     1      24.531  39.529  15.061  1.00  0.00    -0.443 OA
BRANCH  63  64
ATOM     64  C   UNL     1      25.775  39.758  14.498  1.00  0.00     0.294 C 
BRANCH  64  65
ATOM     65  C   UNL     1      26.794  38.750  14.824  1.00  0.00     0.120 A 
ATOM     66  C   UNL     1      27.903  38.365  14.109  1.00  0.00     0.138 A 
ATOM     67  N   UNL     1      26.807  37.950  15.935  1.00  0.00    -0.132 NA
ATOM     68  N   UNL     1      28.537  37.388  14.764  1.00  0.00    -0.251 N 
ATOM     69  N   UNL     1      27.850  37.156  15.867  1.00  0.00    -0.067 NA
BRANCH  68  70
ATOM     70  C   UNL     1      29.769  36.674  14.375  1.00  0.00     0.162 C 
BRANCH  70  71
ATOM     71  C   UNL     1      29.491  35.211  14.255  1.00  0.00     0.132 C 
BRANCH  71  72
ATOM     72  C   UNL     1      28.989  34.876  12.888  1.00  0.00     0.309 C 
ATOM     73  O   UNL     1      29.741  34.582  11.945  1.00  0.00    -0.252 OA
BRANCH  72  74
ATOM     74  O   UNL     1      27.626  34.888  12.645  1.00  0.00    -0.481 OA
ATOM     75  H   UNL     1      27.045  34.124  13.002  1.00  0.00     0.296 HD
ENDBRANCH  72  74
ENDBRANCH  71  72
BRANCH  71  76
ATOM     76  C   UNL     1      30.521  34.260  14.737  1.00  0.00     0.065 C 
BRANCH  76  77
ATOM     77  C   UNL     1      31.734  34.815  15.340  1.00  0.00    -0.040 A 
ATOM     78  C   UNL     1      31.755  35.217  16.684  1.00  0.00     0.004 A 
ATOM     79  C   UNL     1      32.934  34.992  14.648  1.00  0.00     0.004 A 
ATOM     80  C   UNL     1      32.855  35.742  17.284  1.00  0.00     0.000 A 
ATOM     81  C   UNL     1      34.041  35.524  15.264  1.00  0.00     0.000 A 
ATOM     82  C   UNL     1      34.013  35.906  16.590  1.00  0.00     0.000 A 
ENDBRANCH  76  77
BRANCH  76  83
ATOM     83  C   UNL     1      29.959  33.075  15.438  1.00  0.00    -0.040 A 
ATOM     84  C   UNL     1      28.622  33.126  15.770  1.00  0.00     0.004 A 
ATOM     85  C   UNL     1      30.707  31.969  15.741  1.00  0.00     0.004 A 
ATOM     86  C   UNL     1      28.018  32.079  16.405  1.00  0.00     0.000 A 
ATOM     87  C   UNL     1      30.078  30.909  16.388  1.00  0.00     0.000 A 
ATOM     88  C   UNL     1      28.743  30.954  16.723  1.00  0.00     0.000 A 
ENDBRANCH  76  83
ENDBRANCH  71  76
ENDBRANCH  70  71
ENDBRANCH  68  70
ENDBRANCH  64  65
ENDBRANCH  63  64
ENDBRANCH  60  63
ENDBRANCH  58  59
ENDBRANCH  55  58
ENDBRANCH   1  55
TORSDOF 36
BEGIN_RES LYS A 131
REMARK  4 active torsions:
REMARK  status: ('A' for Active; 'I' for Inactive)
REMARK    1  A    between atoms: CA   and  CB  
REMARK    2  A    between atoms: CB   and  CG  
REMARK    3  A    between atoms: CG   and  CD  
REMARK    4  A    between atoms: CD   and  CE  
ROOT
ATOM      1  CA  LYS A 131      29.867  25.555  16.977  1.00 20.52     0.186 C 
ENDROOT
BRANCH   1   2
ATOM      2  CB  LYS A 131      28.345  25.722  17.026  1.00 20.94     0.034 C 
BRANCH   2   3
ATOM      3  CG  LYS A 131      27.599  24.440  16.689  1.00 22.96     0.005 C 
BRANCH   3   4
ATOM      4  CD  LYS A 131      27.005  23.793  17.909  1.00 24.33     0.041 C 
BRANCH   4   5
ATOM      5  CE  LYS A 131      25.595  23.304  17.591  1.00 26.91     0.338 C 
ATOM      6  NZ  LYS A 131      24.816  24.371  16.919  1.00 27.40     0.618 N 
ENDBRANCH   4   5
ENDBRANCH   3   4
ENDBRANCH   2   3
ENDBRANCH   1   2
END_RES LYS A 131
BEGIN_RES LYS A 135
REMARK  4 active torsions:
REMARK  status: ('A' for Active; 'I' for Inactive)
REMARK    5  A    between atoms: CA   and  CB  
REMARK    6  A    between atoms: CB   and  CG  
REMARK    7  A    between atoms: CG   and  CD  
REMARK    8  A    between atoms: CD   and  CE  
ROOT
ATOM      7  CA  LYS A 135      33.193  34.663   9.290  1.00 25.02     0.186 C 
ENDROOT
BRANCH   7   8
ATOM      8  CB  LYS A 135      32.060  35.360  10.034  1.00 26.63     0.034 C 
BRANCH   8   9
ATOM      9  CG  LYS A 135      32.508  36.069  11.286  1.00 29.45     0.005 C 
BRANCH   9  10
ATOM     10  CD  LYS A 135      31.896  37.459  11.363  1.00 32.00     0.041 C 
BRANCH  10  11
ATOM     11  CE  LYS A 135      31.420  37.908   9.995  1.00 34.25     0.338 C 
ATOM     12  NZ  LYS A 135      32.261  39.020   9.472  1.00 35.99     0.618 N 
ENDBRANCH  10  11
ENDBRANCH   9  10
ENDBRANCH   8   9
ENDBRANCH   7   8
END_RES LYS A 135
