REMARK VINA RESULT:    -3.043      2.458      5.870
REMARK INTER + INTRA:         -22.287
REMARK INTER:                 -11.986
REMARK INTRA:                 -10.301
REMARK UNBOUND:               -13.729
REMARK SMILES CCOC(CCn1cc(COC(=O)NC[C@@H](O)C(O)[C@@H]2O[C@@](OC[C@H]3O[C@@H](O[C@H]4[C@H](O)[C@@H](O)[C@H](OCCN=[N+]=[N-])O[C@@H]4CO)[C@H](O)[C@@H](O)[C@H]3O)(C(=O)O)C[C@H](O)[C@H]2NC(C)=O)nn1)OCC
REMARK SMILES IDX 18 1 20 2 22 3 54 4 21 5 55 6 57 7 23 8 24 9 25 10 27 11
REMARK SMILES IDX 26 12 45 13 47 14 49 15 28 16 29 17 42 18 41 19 34 20 30 21
REMARK SMILES IDX 32 22 43 23 44 24 35 26 36 27 37 28 38 29 39 30 40 31 31 32
REMARK SMILES IDX 33 34 46 36 48 38 50 40 51 42 52 43 53 44 56 46 58 48 59 49
REMARK SMILES IDX 60 51 61 52 19 53 16 55 17 56 15 58 14 59 12 60 13 62 11 63
REMARK SMILES IDX 10 64 9 65 8 66 62 67 7 68 63 69 6 70 5 71 4 72 3 73 2 74
REMARK SMILES IDX 1 75 64 76 65 77 66 78
REMARK H PARENT 44 25 31 33 33 35 46 37 48 39 50 41 53 45 56 47 58 50 19 54
REMARK H PARENT 17 57 14 61
REMARK Flexibility Score: inf
ROOT
ATOM      1  C   UNL     1      24.104  37.762  11.386  1.00  0.00     0.176 C 
ENDROOT
BRANCH   1   2
ATOM      2  C   UNL     1      23.403  38.425  10.237  1.00  0.00     0.178 C 
ATOM      3  C   UNL     1      21.496  38.384   8.928  1.00  0.00     0.272 C 
ATOM      4  C   UNL     1      22.159  39.608   8.401  1.00  0.00     0.113 C 
ATOM      5  O   UNL     1      22.233  37.741   9.948  1.00  0.00    -0.332 OA
ATOM      6  C   UNL     1      23.615  39.493   8.110  1.00  0.00     0.145 C 
ATOM      7  C   UNL     1      24.224  38.359   8.945  1.00  0.00     0.142 C 
BRANCH   3   8
ATOM      8  O   UNL     1      21.093  37.450   8.062  1.00  0.00    -0.338 OA
BRANCH   8   9
ATOM      9  C   UNL     1      21.546  36.184   8.113  1.00  0.00     0.199 C 
BRANCH   9  10
ATOM     10  C   UNL     1      20.442  35.220   8.484  1.00  0.00     0.179 C 
ATOM     11  C   UNL     1      19.300  34.215  10.136  1.00  0.00     0.282 C 
ATOM     12  O   UNL     1      19.915  35.434   9.744  1.00  0.00    -0.341 OA
ATOM     13  C   UNL     1      18.072  34.038   9.322  1.00  0.00     0.202 C 
ATOM     14  C   UNL     1      18.427  34.059   7.854  1.00  0.00     0.179 C 
ATOM     15  C   UNL     1      19.318  35.204   7.453  1.00  0.00     0.177 C 
BRANCH  11  16
ATOM     16  O   UNL     1      19.100  34.237  11.520  1.00  0.00    -0.341 OA
BRANCH  16  17
ATOM     17  C   UNL     1      19.626  33.108  12.063  1.00  0.00     0.184 C 
ATOM     18  C   UNL     1      19.011  32.547  13.286  1.00  0.00     0.178 C 
ATOM     19  O   UNL     1      19.447  31.222  13.421  1.00  0.00    -0.341 OA
ATOM     20  C   UNL     1      20.820  31.188  13.710  1.00  0.00     0.281 C 
ATOM     21  C   UNL     1      21.120  33.338  12.458  1.00  0.00     0.180 C 
ATOM     22  C   UNL     1      21.646  31.911  12.667  1.00  0.00     0.202 C 
BRANCH  18  23
ATOM     23  C   UNL     1      17.514  32.539  13.195  1.00  0.00     0.191 C 
BRANCH  23  24
ATOM     24  O   UNL     1      17.055  31.867  12.063  1.00  0.00    -0.394 OA
ATOM     25  H   UNL     1      16.571  32.445  11.447  1.00  0.00     0.210 HD
ENDBRANCH  23  24
ENDBRANCH  18  23
BRANCH  20  26
ATOM     26  O   UNL     1      21.192  29.856  13.700  1.00  0.00    -0.350 OA
BRANCH  26  27
ATOM     27  C   UNL     1      21.671  29.346  14.869  1.00  0.00     0.169 C 
BRANCH  27  28
ATOM     28  C   UNL     1      22.965  28.612  14.630  1.00  0.00     0.119 C 
BRANCH  28  29
ATOM     29  N   UNL     1      24.070  29.567  14.660  1.00  0.00    -0.092 NA
ATOM     30  N   UNL     1      24.192  30.188  15.736  1.00  0.00     0.001 N 
ATOM     31  N   UNL     1      24.252  31.145  16.513  1.00  0.00    -0.003 NA
ENDBRANCH  28  29
ENDBRANCH  27  28
ENDBRANCH  26  27
ENDBRANCH  20  26
BRANCH  21  32
ATOM     32  O   UNL     1      21.809  33.966  11.454  1.00  0.00    -0.387 OA
ATOM     33  H   UNL     1      22.766  34.094  11.662  1.00  0.00     0.211 HD
ENDBRANCH  21  32
BRANCH  22  34
ATOM     34  O   UNL     1      22.958  31.918  13.057  1.00  0.00    -0.385 OA
ATOM     35  H   UNL     1      23.395  31.119  12.626  1.00  0.00     0.211 HD
ENDBRANCH  22  34
ENDBRANCH  16  17
ENDBRANCH  11  16
BRANCH  13  36
ATOM     36  O   UNL     1      17.480  32.787   9.553  1.00  0.00    -0.385 OA
ATOM     37  H   UNL     1      18.065  32.049   9.270  1.00  0.00     0.211 HD
ENDBRANCH  13  36
BRANCH  14  38
ATOM     38  O   UNL     1      17.300  33.956   7.046  1.00  0.00    -0.387 OA
ATOM     39  H   UNL     1      16.723  33.195   7.326  1.00  0.00     0.211 HD
ENDBRANCH  14  38
BRANCH  15  40
ATOM     40  O   UNL     1      18.660  36.425   7.472  1.00  0.00    -0.387 OA
ATOM     41  H   UNL     1      19.298  37.169   7.550  1.00  0.00     0.211 HD
ENDBRANCH  15  40
ENDBRANCH   9  10
ENDBRANCH   8   9
ENDBRANCH   3   8
BRANCH   3  42
ATOM     42  C   UNL     1      20.267  38.850   9.647  1.00  0.00     0.364 C 
ATOM     43  O   UNL     1      20.331  39.631  10.615  1.00  0.00    -0.246 OA
BRANCH  42  44
ATOM     44  O   UNL     1      19.000  38.427   9.261  1.00  0.00    -0.477 OA
ATOM     45  H   UNL     1      18.906  37.931   8.381  1.00  0.00     0.296 HD
ENDBRANCH  42  44
ENDBRANCH   3  42
BRANCH   6  46
ATOM     46  O   UNL     1      23.932  39.350   6.782  1.00  0.00    -0.391 OA
ATOM     47  H   UNL     1      24.885  39.511   6.571  1.00  0.00     0.211 HD
ENDBRANCH   6  46
BRANCH   7  48
ATOM     48  N   UNL     1      25.625  38.527   9.152  1.00  0.00    -0.348 N 
ATOM     49  C   UNL     1      26.516  37.650   8.471  1.00  0.00     0.217 C 
ATOM     50  H   UNL     1      26.028  39.256   9.772  1.00  0.00     0.163 HD
ATOM     51  C   UNL     1      27.981  37.799   8.667  1.00  0.00     0.114 C 
ATOM     52  O   UNL     1      26.081  36.736   7.693  1.00  0.00    -0.275 OA
ENDBRANCH   7  48
ENDBRANCH   1   2
BRANCH   1  53
ATOM     53  O   UNL     1      24.723  38.790  12.122  1.00  0.00    -0.388 OA
ATOM     54  H   UNL     1      24.382  38.797  13.063  1.00  0.00     0.211 HD
ENDBRANCH   1  53
BRANCH   1  55
ATOM     55  C   UNL     1      23.048  37.155  12.288  1.00  0.00     0.165 C 
BRANCH  55  56
ATOM     56  O   UNL     1      22.172  38.102  12.731  1.00  0.00    -0.388 OA
ATOM     57  H   UNL     1      22.595  38.910  13.117  1.00  0.00     0.211 HD
ENDBRANCH  55  56
BRANCH  55  58
ATOM     58  C   UNL     1      23.694  36.444  13.445  1.00  0.00     0.154 C 
BRANCH  58  59
ATOM     59  N   UNL     1      25.061  36.057  13.252  1.00  0.00    -0.319 N 
ATOM     60  C   UNL     1      25.490  34.808  12.778  1.00  0.00     0.407 C 
ATOM     61  H   UNL     1      25.786  36.799  13.499  1.00  0.00     0.167 HD
ATOM     62  O   UNL     1      24.708  33.895  12.462  1.00  0.00    -0.225 OA
BRANCH  60  63
ATOM     63  O   UNL     1      26.868  34.532  12.637  1.00  0.00    -0.443 OA
BRANCH  63  64
ATOM     64  C   UNL     1      27.819  35.433  13.223  1.00  0.00     0.294 C 
BRANCH  64  65
ATOM     65  C   UNL     1      28.980  34.642  13.706  1.00  0.00     0.120 A 
ATOM     66  C   UNL     1      28.986  33.677  14.684  1.00  0.00     0.138 A 
ATOM     67  N   UNL     1      30.237  34.746  13.267  1.00  0.00    -0.132 NA
ATOM     68  N   UNL     1      30.257  33.237  14.795  1.00  0.00    -0.252 N 
ATOM     69  N   UNL     1      30.988  33.905  13.921  1.00  0.00    -0.067 NA
BRANCH  68  70
ATOM     70  C   UNL     1      30.680  32.221  15.713  1.00  0.00     0.151 C 
BRANCH  70  71
ATOM     71  C   UNL     1      29.660  31.152  15.982  1.00  0.00     0.086 C 
BRANCH  71  72
ATOM     72  C   UNL     1      29.248  31.216  17.453  1.00  0.00     0.251 C 
BRANCH  72  73
ATOM     73  O   UNL     1      30.413  31.133  18.192  1.00  0.00    -0.353 OA
BRANCH  73  74
ATOM     74  C   UNL     1      30.201  30.605  19.458  1.00  0.00     0.160 C 
ATOM     75  C   UNL     1      31.068  31.288  20.498  1.00  0.00     0.035 C 
ENDBRANCH  73  74
ENDBRANCH  72  73
BRANCH  72  76
ATOM     76  O   UNL     1      28.280  30.307  17.758  1.00  0.00    -0.353 OA
BRANCH  76  77
ATOM     77  C   UNL     1      27.694  29.638  16.717  1.00  0.00     0.160 C 
ATOM     78  C   UNL     1      27.017  28.395  17.243  1.00  0.00     0.035 C 
ENDBRANCH  76  77
ENDBRANCH  72  76
ENDBRANCH  71  72
ENDBRANCH  70  71
ENDBRANCH  68  70
ENDBRANCH  64  65
ENDBRANCH  63  64
ENDBRANCH  60  63
ENDBRANCH  58  59
ENDBRANCH  55  58
ENDBRANCH   1  55
TORSDOF 36
BEGIN_RES LYS A 131
REMARK  4 active torsions:
REMARK  status: ('A' for Active; 'I' for Inactive)
REMARK    1  A    between atoms: CA   and  CB  
REMARK    2  A    between atoms: CB   and  CG  
REMARK    3  A    between atoms: CG   and  CD  
REMARK    4  A    between atoms: CD   and  CE  
ROOT
ATOM      1  CA  LYS A 131      29.867  25.555  16.977  1.00 20.52     0.186 C 
ENDROOT
BRANCH   1   2
ATOM      2  CB  LYS A 131      28.345  25.722  17.026  1.00 20.94     0.034 C 
BRANCH   2   3
ATOM      3  CG  LYS A 131      27.601  24.402  16.896  1.00 22.96     0.005 C 
BRANCH   3   4
ATOM      4  CD  LYS A 131      26.152  24.528  17.277  1.00 24.33     0.041 C 
BRANCH   4   5
ATOM      5  CE  LYS A 131      25.637  23.180  17.772  1.00 26.91     0.338 C 
ATOM      6  NZ  LYS A 131      25.515  23.182  19.249  1.00 27.40     0.618 N 
ENDBRANCH   4   5
ENDBRANCH   3   4
ENDBRANCH   2   3
ENDBRANCH   1   2
END_RES LYS A 131
BEGIN_RES LYS A 135
REMARK  4 active torsions:
REMARK  status: ('A' for Active; 'I' for Inactive)
REMARK    5  A    between atoms: CA   and  CB  
REMARK    6  A    between atoms: CB   and  CG  
REMARK    7  A    between atoms: CG   and  CD  
REMARK    8  A    between atoms: CD   and  CE  
ROOT
ATOM      7  CA  LYS A 135      33.193  34.663   9.290  1.00 25.02     0.186 C 
ENDROOT
BRANCH   7   8
ATOM      8  CB  LYS A 135      32.060  35.360  10.034  1.00 26.63     0.034 C 
BRANCH   8   9
ATOM      9  CG  LYS A 135      30.800  35.500   9.219  1.00 29.45     0.005 C 
BRANCH   9  10
ATOM     10  CD  LYS A 135      30.133  34.148   9.025  1.00 32.00     0.041 C 
BRANCH  10  11
ATOM     11  CE  LYS A 135      28.711  34.322   8.526  1.00 34.25     0.338 C 
ATOM     12  NZ  LYS A 135      27.730  33.759   9.494  1.00 35.99     0.618 N 
ENDBRANCH  10  11
ENDBRANCH   9  10
ENDBRANCH   8   9
ENDBRANCH   7   8
END_RES LYS A 135
