REMARK VINA RESULT:    -3.785      2.978      6.553
REMARK INTER + INTRA:         -23.495
REMARK INTER:                 -10.018
REMARK INTRA:                 -13.477
REMARK UNBOUND:               -13.184
REMARK SMILES CC(=O)N[C@@H]1[C@@H](O)C[C@](OC[C@H]2O[C@@H](O[C@H]3[C@H](O)[C@@H](O)[C@H](OCCN=[N+]=[N-])O[C@@H]3CO)[C@H](O)[C@@H](O)[C@H]2O)(C(=O)O)O[C@H]1C(O)[C@H](O)CNC(=O)OCc1cn(CC(O)Cn2ccnc2[N+](=O)[O-])nn1
REMARK SMILES IDX 43 1 42 2 9 3 8 4 41 5 6 6 5 7 10 8 11 9 12 10 14 11 13 12
REMARK SMILES IDX 32 13 34 14 36 15 15 16 16 17 29 18 28 19 21 20 17 21 19 22
REMARK SMILES IDX 30 23 31 24 22 26 23 27 24 28 25 29 26 30 27 31 18 32 20 34
REMARK SMILES IDX 33 36 35 38 37 40 38 42 39 43 40 44 7 46 4 48 2 49 1 51 3 52
REMARK SMILES IDX 44 53 45 55 46 56 47 58 48 59 49 60 50 62 51 63 52 64 53 65
REMARK SMILES IDX 54 66 69 67 55 68 68 69 56 70 57 71 58 72 59 74 60 75 61 76
REMARK SMILES IDX 64 77 62 78 63 79 65 80 66 81 67 82
REMARK H PARENT 31 25 18 33 20 35 33 37 35 39 37 41 40 45 7 47 4 50 44 54
REMARK H PARENT 46 57 48 61 58 73
REMARK Flexibility Score: inf
ROOT
ATOM      1  C   UNL     1      30.265  27.903  23.995  1.00  0.00     0.176 C 
ENDROOT
BRANCH   1   2
ATOM      2  C   UNL     1      31.078  28.690  22.923  1.00  0.00     0.178 C 
ATOM      3  C   UNL     1      30.531  29.918  21.040  1.00  0.00     0.272 C 
ATOM      4  C   UNL     1      31.677  29.302  20.292  1.00  0.00     0.113 C 
ATOM      5  O   UNL     1      30.071  29.049  22.024  1.00  0.00    -0.332 OA
ATOM      6  C   UNL     1      31.915  27.862  20.726  1.00  0.00     0.145 C 
ATOM      7  C   UNL     1      32.013  27.777  22.244  1.00  0.00     0.142 C 
BRANCH   3   8
ATOM      8  O   UNL     1      29.411  30.130  20.245  1.00  0.00    -0.338 OA
BRANCH   8   9
ATOM      9  C   UNL     1      28.272  29.474  20.524  1.00  0.00     0.199 C 
BRANCH   9  10
ATOM     10  C   UNL     1      27.289  29.446  19.370  1.00  0.00     0.179 C 
ATOM     11  C   UNL     1      26.686  30.497  17.494  1.00  0.00     0.282 C 
ATOM     12  O   UNL     1      27.830  30.073  18.215  1.00  0.00    -0.341 OA
ATOM     13  C   UNL     1      25.823  29.316  17.126  1.00  0.00     0.202 C 
ATOM     14  C   UNL     1      26.652  28.061  17.391  1.00  0.00     0.179 C 
ATOM     15  C   UNL     1      26.954  28.052  18.892  1.00  0.00     0.177 C 
BRANCH  11  16
ATOM     16  O   UNL     1      27.027  31.200  16.357  1.00  0.00    -0.341 OA
BRANCH  16  17
ATOM     17  C   UNL     1      28.210  31.855  16.611  1.00  0.00     0.184 C 
ATOM     18  C   UNL     1      28.116  33.367  16.482  1.00  0.00     0.178 C 
ATOM     19  O   UNL     1      29.248  33.844  17.151  1.00  0.00    -0.341 OA
ATOM     20  C   UNL     1      30.434  33.548  16.537  1.00  0.00     0.281 C 
ATOM     21  C   UNL     1      29.311  31.454  15.640  1.00  0.00     0.180 C 
ATOM     22  C   UNL     1      30.555  32.221  15.882  1.00  0.00     0.202 C 
BRANCH  18  23
ATOM     23  C   UNL     1      26.871  33.951  17.045  1.00  0.00     0.191 C 
BRANCH  23  24
ATOM     24  O   UNL     1      26.879  33.758  18.421  1.00  0.00    -0.394 OA
ATOM     25  H   UNL     1      25.982  33.846  18.829  1.00  0.00     0.210 HD
ENDBRANCH  23  24
ENDBRANCH  18  23
BRANCH  20  26
ATOM     26  O   UNL     1      31.421  33.591  17.558  1.00  0.00    -0.350 OA
BRANCH  26  27
ATOM     27  C   UNL     1      30.938  33.198  18.781  1.00  0.00     0.169 C 
BRANCH  27  28
ATOM     28  C   UNL     1      31.361  34.289  19.774  1.00  0.00     0.119 C 
BRANCH  28  29
ATOM     29  N   UNL     1      30.261  34.765  20.555  1.00  0.00    -0.092 NA
ATOM     30  N   UNL     1      29.452  35.609  20.104  1.00  0.00     0.001 N 
ATOM     31  N   UNL     1      28.387  36.081  19.744  1.00  0.00    -0.003 NA
ENDBRANCH  28  29
ENDBRANCH  27  28
ENDBRANCH  26  27
ENDBRANCH  20  26
BRANCH  21  32
ATOM     32  O   UNL     1      29.585  30.080  15.800  1.00  0.00    -0.387 OA
ATOM     33  H   UNL     1      29.681  29.717  14.902  1.00  0.00     0.211 HD
ENDBRANCH  21  32
BRANCH  22  34
ATOM     34  O   UNL     1      31.128  32.452  14.605  1.00  0.00    -0.385 OA
ATOM     35  H   UNL     1      31.696  31.686  14.330  1.00  0.00     0.211 HD
ENDBRANCH  22  34
ENDBRANCH  16  17
ENDBRANCH  11  16
BRANCH  13  36
ATOM     36  O   UNL     1      24.682  29.333  17.927  1.00  0.00    -0.385 OA
ATOM     37  H   UNL     1      24.703  30.091  18.576  1.00  0.00     0.211 HD
ENDBRANCH  13  36
BRANCH  14  38
ATOM     38  O   UNL     1      27.870  28.231  16.757  1.00  0.00    -0.387 OA
ATOM     39  H   UNL     1      27.909  29.104  16.331  1.00  0.00     0.211 HD
ENDBRANCH  14  38
BRANCH  15  40
ATOM     40  O   UNL     1      27.996  27.166  19.055  1.00  0.00    -0.387 OA
ATOM     41  H   UNL     1      27.840  26.308  18.587  1.00  0.00     0.211 HD
ENDBRANCH  15  40
ENDBRANCH   9  10
ENDBRANCH   8   9
ENDBRANCH   3   8
BRANCH   3  42
ATOM     42  C   UNL     1      30.928  31.184  21.671  1.00  0.00     0.364 C 
ATOM     43  O   UNL     1      32.152  31.550  21.747  1.00  0.00    -0.246 OA
BRANCH  42  44
ATOM     44  O   UNL     1      30.036  32.077  22.232  1.00  0.00    -0.477 OA
ATOM     45  H   UNL     1      29.199  31.789  22.747  1.00  0.00     0.296 HD
ENDBRANCH  42  44
ENDBRANCH   3  42
BRANCH   6  46
ATOM     46  O   UNL     1      30.956  27.005  20.223  1.00  0.00    -0.391 OA
ATOM     47  H   UNL     1      31.048  26.886  19.244  1.00  0.00     0.211 HD
ENDBRANCH   6  46
BRANCH   7  48
ATOM     48  N   UNL     1      33.379  27.769  22.662  1.00  0.00    -0.348 N 
ATOM     49  C   UNL     1      33.968  27.042  23.690  1.00  0.00     0.217 C 
ATOM     50  H   UNL     1      34.084  28.411  22.102  1.00  0.00     0.163 HD
ATOM     51  C   UNL     1      35.460  27.139  23.967  1.00  0.00     0.114 C 
ATOM     52  O   UNL     1      33.352  26.280  24.438  1.00  0.00    -0.275 OA
ENDBRANCH   7  48
ENDBRANCH   1   2
BRANCH   1  53
ATOM     53  O   UNL     1      31.076  27.847  25.156  1.00  0.00    -0.388 OA
ATOM     54  H   UNL     1      32.021  27.920  24.952  1.00  0.00     0.211 HD
ENDBRANCH   1  53
BRANCH   1  55
ATOM     55  C   UNL     1      29.840  26.566  23.601  1.00  0.00     0.165 C 
BRANCH  55  56
ATOM     56  O   UNL     1      28.569  26.419  23.109  1.00  0.00    -0.388 OA
ATOM     57  H   UNL     1      28.530  26.124  22.172  1.00  0.00     0.211 HD
ENDBRANCH  55  56
BRANCH  55  58
ATOM     58  C   UNL     1      30.069  25.509  24.709  1.00  0.00     0.154 C 
BRANCH  58  59
ATOM     59  N   UNL     1      28.778  25.346  25.367  1.00  0.00    -0.319 N 
ATOM     60  C   UNL     1      28.507  25.931  26.647  1.00  0.00     0.407 C 
ATOM     61  H   UNL     1      28.019  24.792  24.911  1.00  0.00     0.167 HD
ATOM     62  O   UNL     1      29.393  26.602  27.219  1.00  0.00    -0.225 OA
BRANCH  60  63
ATOM     63  O   UNL     1      27.286  25.766  27.267  1.00  0.00    -0.443 OA
BRANCH  63  64
ATOM     64  C   UNL     1      26.174  26.602  27.174  1.00  0.00     0.294 C 
BRANCH  64  65
ATOM     65  C   UNL     1      26.020  27.089  25.781  1.00  0.00     0.120 A 
ATOM     66  C   UNL     1      26.057  28.404  25.356  1.00  0.00     0.138 A 
ATOM     67  N   UNL     1      25.822  26.377  24.661  1.00  0.00    -0.132 NA
ATOM     68  N   UNL     1      25.883  28.432  24.010  1.00  0.00    -0.249 N 
ATOM     69  N   UNL     1      25.743  27.192  23.619  1.00  0.00    -0.067 NA
BRANCH  68  70
ATOM     70  C   UNL     1      25.910  29.665  23.230  1.00  0.00     0.181 C 
BRANCH  70  71
ATOM     71  C   UNL     1      26.676  30.667  24.090  1.00  0.00     0.170 C 
BRANCH  71  72
ATOM     72  O   UNL     1      27.924  30.851  23.542  1.00  0.00    -0.388 OA
ATOM     73  H   UNL     1      28.509  31.327  24.178  1.00  0.00     0.211 HD
ENDBRANCH  71  72
BRANCH  71  74
ATOM     74  C   UNL     1      25.895  31.937  24.232  1.00  0.00     0.239 C 
BRANCH  74  75
ATOM     75  N   UNL     1      26.804  33.072  24.243  1.00  0.00    -0.227 N 
ATOM     76  C   UNL     1      27.371  33.537  25.404  1.00  0.00     0.204 A 
ATOM     77  C   UNL     1      27.241  33.800  23.215  1.00  0.00     0.434 A 
ATOM     78  C   UNL     1      28.186  34.591  25.060  1.00  0.00     0.245 A 
ATOM     79  N   UNL     1      28.093  34.735  23.723  1.00  0.00    -0.074 NA
BRANCH  77  80
ATOM     80  N   UNL     1      26.883  33.650  21.853  1.00  0.00    -0.047 N 
ATOM     81  O   UNL     1      25.968  34.366  21.337  1.00  0.00    -0.390 OA
ATOM     82  O   UNL     1      27.468  32.744  21.011  1.00  0.00    -0.390 OA
ENDBRANCH  77  80
ENDBRANCH  74  75
ENDBRANCH  71  74
ENDBRANCH  70  71
ENDBRANCH  68  70
ENDBRANCH  64  65
ENDBRANCH  63  64
ENDBRANCH  60  63
ENDBRANCH  58  59
ENDBRANCH  55  58
ENDBRANCH   1  55
TORSDOF 35
BEGIN_RES LYS A 131
REMARK  4 active torsions:
REMARK  status: ('A' for Active; 'I' for Inactive)
REMARK    1  A    between atoms: CA   and  CB  
REMARK    2  A    between atoms: CB   and  CG  
REMARK    3  A    between atoms: CG   and  CD  
REMARK    4  A    between atoms: CD   and  CE  
ROOT
ATOM      1  CA  LYS A 131      29.867  25.555  16.977  1.00 20.52     0.186 C 
ENDROOT
BRANCH   1   2
ATOM      2  CB  LYS A 131      28.345  25.722  17.026  1.00 20.94     0.034 C 
BRANCH   2   3
ATOM      3  CG  LYS A 131      27.601  24.404  16.875  1.00 22.96     0.005 C 
BRANCH   3   4
ATOM      4  CD  LYS A 131      26.683  24.136  18.035  1.00 24.33     0.041 C 
BRANCH   4   5
ATOM      5  CE  LYS A 131      25.562  23.201  17.592  1.00 26.91     0.338 C 
ATOM      6  NZ  LYS A 131      24.471  23.969  16.947  1.00 27.40     0.618 N 
ENDBRANCH   4   5
ENDBRANCH   3   4
ENDBRANCH   2   3
ENDBRANCH   1   2
END_RES LYS A 131
BEGIN_RES LYS A 135
REMARK  4 active torsions:
REMARK  status: ('A' for Active; 'I' for Inactive)
REMARK    5  A    between atoms: CA   and  CB  
REMARK    6  A    between atoms: CB   and  CG  
REMARK    7  A    between atoms: CG   and  CD  
REMARK    8  A    between atoms: CD   and  CE  
ROOT
ATOM      7  CA  LYS A 135      33.193  34.663   9.290  1.00 25.02     0.186 C 
ENDROOT
BRANCH   7   8
ATOM      8  CB  LYS A 135      32.060  35.360  10.034  1.00 26.63     0.034 C 
BRANCH   8   9
ATOM      9  CG  LYS A 135      30.692  34.845   9.668  1.00 29.45     0.005 C 
BRANCH   9  10
ATOM     10  CD  LYS A 135      29.960  35.845   8.787  1.00 32.00     0.041 C 
BRANCH  10  11
ATOM     11  CE  LYS A 135      28.464  35.772   9.028  1.00 34.25     0.338 C 
ATOM     12  NZ  LYS A 135      27.821  34.788   8.113  1.00 35.99     0.618 N 
ENDBRANCH  10  11
ENDBRANCH   9  10
ENDBRANCH   8   9
ENDBRANCH   7   8
END_RES LYS A 135
