REMARK VINA RESULT:    -5.644      0.783      2.127
REMARK INTER + INTRA:         -24.357
REMARK INTER:                 -15.136
REMARK INTRA:                  -9.221
REMARK UNBOUND:               -10.464
REMARK SMILES CC(=O)N[C@@H]1[C@@H](O)C[C@](OC[C@H]2O[C@@H](O[C@H]3[C@H](O)[C@@H](O)[C@H](OCCN=[N+]=[N-])O[C@@H]3CO)[C@H](O)[C@@H](O)[C@H]2O)(C(=O)O)O[C@H]1C(O)[C@H](O)CNC(=O)OCc1cn(-c2c3ccccc3nc3ccccc23)nn1
REMARK SMILES IDX 9 1 8 2 6 3 5 4 42 5 41 6 10 7 11 8 12 9 14 10 13 11 32 12
REMARK SMILES IDX 34 13 36 14 15 15 16 16 29 17 28 18 21 19 17 20 19 21 30 22
REMARK SMILES IDX 31 23 22 25 23 26 24 27 25 28 26 29 27 30 18 31 20 33 33 35
REMARK SMILES IDX 35 37 37 39 38 41 39 42 40 43 7 45 43 47 44 48 45 50 46 51
REMARK SMILES IDX 47 53 48 54 49 55 50 57 51 58 52 59 53 60 54 61 71 62 55 63
REMARK SMILES IDX 70 64 56 65 57 66 69 67 58 68 62 69 64 70 68 71 59 72 61 73
REMARK SMILES IDX 63 74 65 75 67 76 60 77 66 78 4 79 2 80 1 82 3 83
REMARK H PARENT 31 24 18 32 20 34 33 36 35 38 37 40 40 44 7 46 44 49 46 52
REMARK H PARENT 48 56 4 81
REMARK Flexibility Score: inf
ROOT
ATOM      1  C   UNL     1      32.220  34.678  14.921  1.00  0.00     0.272 C 
ATOM      2  C   UNL     1      32.279  35.994  15.842  1.00  0.00     0.113 C 
ATOM      3  C   UNL     1      32.215  37.106  14.860  1.00  0.00     0.145 C 
ATOM      4  C   UNL     1      31.030  37.056  13.919  1.00  0.00     0.142 C 
ATOM      5  C   UNL     1      30.506  35.704  13.668  1.00  0.00     0.178 C 
ATOM      6  O   UNL     1      30.980  34.697  14.438  1.00  0.00    -0.332 OA
ENDROOT
BRANCH   1   7
ATOM      7  O   UNL     1      32.313  33.713  15.927  1.00  0.00    -0.338 OA
BRANCH   7   8
ATOM      8  C   UNL     1      31.537  33.888  17.021  1.00  0.00     0.199 C 
BRANCH   8   9
ATOM      9  C   UNL     1      30.466  32.885  17.217  1.00  0.00     0.179 C 
ATOM     10  C   UNL     1      28.166  32.510  17.333  1.00  0.00     0.282 C 
ATOM     11  O   UNL     1      29.218  33.444  17.213  1.00  0.00    -0.341 OA
ATOM     12  C   UNL     1      28.600  31.143  17.659  1.00  0.00     0.202 C 
ATOM     13  C   UNL     1      29.671  30.645  16.716  1.00  0.00     0.179 C 
ATOM     14  C   UNL     1      30.550  31.738  16.207  1.00  0.00     0.177 C 
BRANCH  10  15
ATOM     15  O   UNL     1      27.350  32.580  16.212  1.00  0.00    -0.341 OA
BRANCH  15  16
ATOM     16  C   UNL     1      25.983  32.724  16.544  1.00  0.00     0.184 C 
ATOM     17  C   UNL     1      25.164  31.846  15.685  1.00  0.00     0.178 C 
ATOM     18  O   UNL     1      23.803  32.242  15.602  1.00  0.00    -0.341 OA
ATOM     19  C   UNL     1      23.791  33.484  14.978  1.00  0.00     0.281 C 
ATOM     20  C   UNL     1      25.698  34.209  16.272  1.00  0.00     0.180 C 
ATOM     21  C   UNL     1      24.232  34.472  16.069  1.00  0.00     0.202 C 
BRANCH  17  22
ATOM     22  C   UNL     1      25.155  30.413  16.195  1.00  0.00     0.191 C 
BRANCH  22  23
ATOM     23  O   UNL     1      26.229  29.675  15.769  1.00  0.00    -0.394 OA
ATOM     24  H   UNL     1      26.119  28.738  16.076  1.00  0.00     0.210 HD
ENDBRANCH  22  23
ENDBRANCH  17  22
BRANCH  19  25
ATOM     25  O   UNL     1      22.516  33.721  14.531  1.00  0.00    -0.350 OA
BRANCH  25  26
ATOM     26  C   UNL     1      21.780  32.574  14.252  1.00  0.00     0.169 C 
BRANCH  26  27
ATOM     27  C   UNL     1      21.613  32.351  12.764  1.00  0.00     0.119 C 
BRANCH  27  28
ATOM     28  N   UNL     1      21.806  30.925  12.522  1.00  0.00    -0.092 NA
ATOM     29  N   UNL     1      22.923  30.411  12.650  1.00  0.00     0.001 N 
ATOM     30  N   UNL     1      23.998  29.835  12.827  1.00  0.00    -0.003 NA
ENDBRANCH  27  28
ENDBRANCH  26  27
ENDBRANCH  25  26
ENDBRANCH  19  25
BRANCH  20  31
ATOM     31  O   UNL     1      26.251  34.986  17.278  1.00  0.00    -0.387 OA
ATOM     32  H   UNL     1      25.782  35.848  17.404  1.00  0.00     0.211 HD
ENDBRANCH  20  31
BRANCH  21  33
ATOM     33  O   UNL     1      24.050  35.775  15.663  1.00  0.00    -0.385 OA
ATOM     34  H   UNL     1      23.968  35.763  14.662  1.00  0.00     0.211 HD
ENDBRANCH  21  33
ENDBRANCH  15  16
ENDBRANCH  10  15
BRANCH  12  35
ATOM     35  O   UNL     1      28.992  31.048  19.004  1.00  0.00    -0.385 OA
ATOM     36  H   UNL     1      29.663  30.302  19.031  1.00  0.00     0.211 HD
ENDBRANCH  12  35
BRANCH  13  37
ATOM     37  O   UNL     1      29.024  29.969  15.663  1.00  0.00    -0.387 OA
ATOM     38  H   UNL     1      28.241  29.501  16.095  1.00  0.00     0.211 HD
ENDBRANCH  13  37
BRANCH  14  39
ATOM     39  O   UNL     1      30.240  32.143  14.924  1.00  0.00    -0.387 OA
ATOM     40  H   UNL     1      31.026  32.163  14.321  1.00  0.00     0.211 HD
ENDBRANCH  14  39
ENDBRANCH   8   9
ENDBRANCH   7   8
ENDBRANCH   1   7
BRANCH   1  41
ATOM     41  C   UNL     1      33.391  34.801  14.119  1.00  0.00     0.364 C 
ATOM     42  O   UNL     1      34.543  34.898  14.652  1.00  0.00    -0.246 OA
BRANCH  41  43
ATOM     43  O   UNL     1      33.432  34.827  12.720  1.00  0.00    -0.477 OA
ATOM     44  H   UNL     1      32.568  34.961  12.211  1.00  0.00     0.296 HD
ENDBRANCH  41  43
ENDBRANCH   1  41
BRANCH   3  45
ATOM     45  O   UNL     1      32.189  38.306  15.612  1.00  0.00    -0.391 OA
ATOM     46  H   UNL     1      32.199  38.079  16.578  1.00  0.00     0.211 HD
ENDBRANCH   3  45
BRANCH   5  47
ATOM     47  C   UNL     1      28.964  35.646  13.847  1.00  0.00     0.176 C 
BRANCH  47  48
ATOM     48  O   UNL     1      28.530  34.353  13.853  1.00  0.00    -0.388 OA
ATOM     49  H   UNL     1      28.308  33.986  12.941  1.00  0.00     0.211 HD
ENDBRANCH  47  48
BRANCH  47  50
ATOM     50  C   UNL     1      28.451  36.585  14.840  1.00  0.00     0.165 C 
BRANCH  50  51
ATOM     51  O   UNL     1      28.687  36.281  16.183  1.00  0.00    -0.388 OA
ATOM     52  H   UNL     1      28.104  35.548  16.501  1.00  0.00     0.211 HD
ENDBRANCH  50  51
BRANCH  50  53
ATOM     53  C   UNL     1      27.152  37.251  14.598  1.00  0.00     0.154 C 
BRANCH  53  54
ATOM     54  N   UNL     1      26.188  36.652  13.753  1.00  0.00    -0.319 N 
ATOM     55  C   UNL     1      24.933  37.203  13.420  1.00  0.00     0.407 C 
ATOM     56  H   UNL     1      26.430  35.684  13.316  1.00  0.00     0.167 HD
ATOM     57  O   UNL     1      24.497  38.281  13.851  1.00  0.00    -0.225 OA
BRANCH  55  58
ATOM     58  O   UNL     1      24.066  36.528  12.539  1.00  0.00    -0.443 OA
BRANCH  58  59
ATOM     59  C   UNL     1      23.049  37.189  11.805  1.00  0.00     0.294 C 
BRANCH  59  60
ATOM     60  C   UNL     1      23.432  37.239  10.364  1.00  0.00     0.121 A 
ATOM     61  C   UNL     1      24.572  37.772   9.801  1.00  0.00     0.144 A 
ATOM     62  N   UNL     1      22.716  36.778   9.329  1.00  0.00    -0.131 NA
ATOM     63  N   UNL     1      24.536  37.630   8.456  1.00  0.00    -0.219 N 
ATOM     64  N   UNL     1      23.390  37.021   8.200  1.00  0.00    -0.062 NA
BRANCH  63  65
ATOM     65  C   UNL     1      25.540  38.063   7.520  1.00  0.00     0.085 A 
ATOM     66  C   UNL     1      25.489  39.343   6.990  1.00  0.00     0.027 A 
ATOM     67  C   UNL     1      26.568  37.241   7.118  1.00  0.00     0.027 A 
ATOM     68  C   UNL     1      24.485  40.214   7.354  1.00  0.00     0.012 A 
ATOM     69  C   UNL     1      26.434  39.807   6.077  1.00  0.00     0.073 A 
ATOM     70  C   UNL     1      27.481  37.738   6.215  1.00  0.00     0.073 A 
ATOM     71  C   UNL     1      26.680  35.970   7.600  1.00  0.00     0.012 A 
ATOM     72  C   UNL     1      24.434  41.487   6.828  1.00  0.00     0.001 A 
ATOM     73  C   UNL     1      26.379  41.080   5.554  1.00  0.00     0.029 A 
ATOM     74  N   UNL     1      27.421  38.982   5.707  1.00  0.00    -0.248 NA
ATOM     75  C   UNL     1      28.525  36.944   5.788  1.00  0.00     0.029 A 
ATOM     76  C   UNL     1      27.741  35.193   7.154  1.00  0.00     0.001 A 
ATOM     77  C   UNL     1      25.379  41.950   5.916  1.00  0.00     0.002 A 
ATOM     78  C   UNL     1      28.677  35.651   6.252  1.00  0.00     0.002 A 
ENDBRANCH  63  65
ENDBRANCH  59  60
ENDBRANCH  58  59
ENDBRANCH  55  58
ENDBRANCH  53  54
ENDBRANCH  50  53
ENDBRANCH  47  50
ENDBRANCH   5  47
BRANCH   4  79
ATOM     79  N   UNL     1      31.352  37.796  12.719  1.00  0.00    -0.348 N 
ATOM     80  C   UNL     1      30.999  39.160  12.494  1.00  0.00     0.217 C 
ATOM     81  H   UNL     1      31.872  37.341  11.934  1.00  0.00     0.163 HD
ATOM     82  C   UNL     1      31.387  39.816  11.200  1.00  0.00     0.114 C 
ATOM     83  O   UNL     1      30.379  39.754  13.390  1.00  0.00    -0.275 OA
ENDBRANCH   4  79
TORSDOF 30
BEGIN_RES LYS A 131
REMARK  4 active torsions:
REMARK  status: ('A' for Active; 'I' for Inactive)
REMARK    1  A    between atoms: CA   and  CB  
REMARK    2  A    between atoms: CB   and  CG  
REMARK    3  A    between atoms: CG   and  CD  
REMARK    4  A    between atoms: CD   and  CE  
ROOT
ATOM      1  CA  LYS A 131      29.867  25.555  16.977  1.00 20.52     0.186 C 
ENDROOT
BRANCH   1   2
ATOM      2  CB  LYS A 131      28.345  25.722  17.026  1.00 20.94     0.034 C 
BRANCH   2   3
ATOM      3  CG  LYS A 131      27.601  24.403  16.888  1.00 22.96     0.005 C 
BRANCH   3   4
ATOM      4  CD  LYS A 131      26.633  24.177  18.016  1.00 24.33     0.041 C 
BRANCH   4   5
ATOM      5  CE  LYS A 131      25.416  23.417  17.499  1.00 26.91     0.338 C 
ATOM      6  NZ  LYS A 131      24.740  22.703  18.608  1.00 27.40     0.618 N 
ENDBRANCH   4   5
ENDBRANCH   3   4
ENDBRANCH   2   3
ENDBRANCH   1   2
END_RES LYS A 131
BEGIN_RES LYS A 135
REMARK  4 active torsions:
REMARK  status: ('A' for Active; 'I' for Inactive)
REMARK    5  A    between atoms: CA   and  CB  
REMARK    6  A    between atoms: CB   and  CG  
REMARK    7  A    between atoms: CG   and  CD  
REMARK    8  A    between atoms: CD   and  CE  
ROOT
ATOM      7  CA  LYS A 135      33.193  34.663   9.290  1.00 25.02     0.186 C 
ENDROOT
BRANCH   7   8
ATOM      8  CB  LYS A 135      32.060  35.360  10.034  1.00 26.63     0.034 C 
BRANCH   8   9
ATOM      9  CG  LYS A 135      30.775  35.427   9.249  1.00 29.45     0.005 C 
BRANCH   9  10
ATOM     10  CD  LYS A 135      30.105  36.780   9.431  1.00 32.00     0.041 C 
BRANCH  10  11
ATOM     11  CE  LYS A 135      28.914  36.663  10.363  1.00 34.25     0.338 C 
ATOM     12  NZ  LYS A 135      28.509  35.241  10.541  1.00 35.99     0.618 N 
ENDBRANCH  10  11
ENDBRANCH   9  10
ENDBRANCH   8   9
ENDBRANCH   7   8
END_RES LYS A 135
