REMARK VINA RESULT:    -4.511      5.552     12.348
REMARK INTER + INTRA:         -24.688
REMARK INTER:                 -14.602
REMARK INTRA:                 -10.086
REMARK UNBOUND:               -12.132
REMARK SMILES CCOCCc1c(-c2ccccc2)nc(N)nc1-n1cc(COC(=O)NC[C@@H](O)C(O)[C@@H]2O[C@@](OC[C@H]3O[C@@H](O[C@H]4[C@H](O)[C@@H](O)[C@H](OCCN=[N+]=[N-])O[C@@H]4CO)[C@H](O)[C@@H](O)[C@H]3O)(C(=O)O)C[C@H](O)[C@H]2NC(C)=O)nn1
REMARK SMILES IDX 30 1 32 2 34 3 66 4 33 5 67 6 69 7 35 8 36 9 37 10 39 11
REMARK SMILES IDX 38 12 57 13 59 14 61 15 40 16 41 17 54 18 53 19 46 20 42 21
REMARK SMILES IDX 44 22 55 23 56 24 47 26 48 27 49 28 50 29 51 30 52 31 43 32
REMARK SMILES IDX 45 34 58 36 60 38 62 40 63 42 64 43 65 44 68 46 70 48 71 49
REMARK SMILES IDX 72 51 73 52 31 53 28 55 29 56 27 58 26 59 24 60 25 62 23 63
REMARK SMILES IDX 22 64 21 65 20 66 74 67 19 68 75 69 18 70 17 71 6 72 15 73
REMARK SMILES IDX 7 74 14 75 5 76 4 77 3 78 2 79 1 80 16 81 8 84 9 85 13 86
REMARK SMILES IDX 10 87 12 88 11 89
REMARK H PARENT 56 25 43 33 45 35 58 37 60 39 62 41 65 45 68 47 70 50 31 54
REMARK H PARENT 29 57 26 61 16 82 16 83
REMARK Flexibility Score: inf
ROOT
ATOM      1  C   UNL     1      30.185  39.118   8.045  1.00  0.00     0.176 C 
ENDROOT
BRANCH   1   2
ATOM      2  C   UNL     1      29.377  38.837   6.814  1.00  0.00     0.178 C 
ATOM      3  C   UNL     1      27.390  39.649   5.882  1.00  0.00     0.272 C 
ATOM      4  C   UNL     1      27.768  38.648   4.787  1.00  0.00     0.113 C 
ATOM      5  O   UNL     1      28.383  39.861   6.768  1.00  0.00    -0.332 OA
ATOM      6  C   UNL     1      28.175  37.318   5.344  1.00  0.00     0.145 C 
ATOM      7  C   UNL     1      28.644  37.541   6.770  1.00  0.00     0.142 C 
BRANCH   3   8
ATOM      8  O   UNL     1      26.199  39.220   6.425  1.00  0.00    -0.338 OA
BRANCH   8   9
ATOM      9  C   UNL     1      25.454  40.172   7.068  1.00  0.00     0.199 C 
BRANCH   9  10
ATOM     10  C   UNL     1      24.583  39.581   8.166  1.00  0.00     0.179 C 
ATOM     11  C   UNL     1      23.346  37.612   8.364  1.00  0.00     0.282 C 
ATOM     12  O   UNL     1      23.743  38.669   7.596  1.00  0.00    -0.341 OA
ATOM     13  C   UNL     1      24.628  36.888   8.794  1.00  0.00     0.202 C 
ATOM     14  C   UNL     1      25.232  37.805   9.856  1.00  0.00     0.179 C 
ATOM     15  C   UNL     1      25.288  39.224   9.411  1.00  0.00     0.177 C 
BRANCH  11  16
ATOM     16  O   UNL     1      22.497  36.798   7.651  1.00  0.00    -0.341 OA
BRANCH  16  17
ATOM     17  C   UNL     1      21.213  36.788   8.172  1.00  0.00     0.184 C 
ATOM     18  C   UNL     1      21.110  37.652   9.383  1.00  0.00     0.178 C 
ATOM     19  O   UNL     1      20.924  37.021  10.572  1.00  0.00    -0.341 OA
ATOM     20  C   UNL     1      20.029  36.000  10.644  1.00  0.00     0.281 C 
ATOM     21  C   UNL     1      20.713  35.390   8.379  1.00  0.00     0.180 C 
ATOM     22  C   UNL     1      19.566  35.409   9.355  1.00  0.00     0.202 C 
BRANCH  18  23
ATOM     23  C   UNL     1      20.125  38.803   9.174  1.00  0.00     0.191 C 
BRANCH  23  24
ATOM     24  O   UNL     1      19.580  38.777   7.902  1.00  0.00    -0.394 OA
ATOM     25  H   UNL     1      19.032  37.954   7.833  1.00  0.00     0.210 HD
ENDBRANCH  23  24
ENDBRANCH  18  23
BRANCH  20  26
ATOM     26  O   UNL     1      18.925  36.455  11.358  1.00  0.00    -0.350 OA
BRANCH  26  27
ATOM     27  C   UNL     1      17.804  35.674  11.222  1.00  0.00     0.169 C 
BRANCH  27  28
ATOM     28  C   UNL     1      16.523  36.455  11.058  1.00  0.00     0.119 C 
BRANCH  28  29
ATOM     29  N   UNL     1      15.996  36.217   9.715  1.00  0.00    -0.092 NA
ATOM     30  N   UNL     1      16.424  36.838   8.734  1.00  0.00     0.001 N 
ATOM     31  N   UNL     1      16.856  37.619   7.888  1.00  0.00    -0.003 NA
ENDBRANCH  28  29
ENDBRANCH  27  28
ENDBRANCH  26  27
ENDBRANCH  20  26
BRANCH  21  32
ATOM     32  O   UNL     1      20.262  34.804   7.193  1.00  0.00    -0.387 OA
ATOM     33  H   UNL     1      20.588  33.868   7.098  1.00  0.00     0.211 HD
ENDBRANCH  21  32
BRANCH  22  34
ATOM     34  O   UNL     1      19.189  34.087   9.586  1.00  0.00    -0.385 OA
ATOM     35  H   UNL     1      18.268  34.015   9.942  1.00  0.00     0.211 HD
ENDBRANCH  22  34
ENDBRANCH  16  17
ENDBRANCH  11  16
BRANCH  13  36
ATOM     36  O   UNL     1      24.383  35.648   9.331  1.00  0.00    -0.385 OA
ATOM     37  H   UNL     1      23.911  35.052   8.687  1.00  0.00     0.211 HD
ENDBRANCH  13  36
BRANCH  14  38
ATOM     38  O   UNL     1      26.398  37.314  10.396  1.00  0.00    -0.387 OA
ATOM     39  H   UNL     1      27.156  37.969  10.307  1.00  0.00     0.211 HD
ENDBRANCH  14  38
BRANCH  15  40
ATOM     40  O   UNL     1      26.650  39.570   9.275  1.00  0.00    -0.387 OA
ATOM     41  H   UNL     1      27.032  39.739  10.175  1.00  0.00     0.211 HD
ENDBRANCH  15  40
ENDBRANCH   9  10
ENDBRANCH   8   9
ENDBRANCH   3   8
BRANCH   3  42
ATOM     42  C   UNL     1      27.151  40.915   5.119  1.00  0.00     0.364 C 
ATOM     43  O   UNL     1      26.592  40.755   3.977  1.00  0.00    -0.246 OA
BRANCH  42  44
ATOM     44  O   UNL     1      27.474  42.172   5.543  1.00  0.00    -0.477 OA
ATOM     45  H   UNL     1      26.788  42.918   5.464  1.00  0.00     0.296 HD
ENDBRANCH  42  44
ENDBRANCH   3  42
BRANCH   6  46
ATOM     46  O   UNL     1      27.043  36.489   5.295  1.00  0.00    -0.391 OA
ATOM     47  H   UNL     1      26.528  36.526   6.125  1.00  0.00     0.211 HD
ENDBRANCH   6  46
BRANCH   7  48
ATOM     48  N   UNL     1      29.323  36.393   7.286  1.00  0.00    -0.348 N 
ATOM     49  C   UNL     1      28.693  35.383   8.060  1.00  0.00     0.217 C 
ATOM     50  H   UNL     1      30.336  36.303   7.055  1.00  0.00     0.163 HD
ATOM     51  C   UNL     1      29.493  34.239   8.540  1.00  0.00     0.114 C 
ATOM     52  O   UNL     1      27.475  35.469   8.325  1.00  0.00    -0.275 OA
ENDBRANCH   7  48
ENDBRANCH   1   2
BRANCH   1  53
ATOM     53  O   UNL     1      31.334  38.262   7.942  1.00  0.00    -0.388 OA
ATOM     54  H   UNL     1      32.099  38.821   8.193  1.00  0.00     0.211 HD
ENDBRANCH   1  53
BRANCH   1  55
ATOM     55  C   UNL     1      29.583  38.859   9.367  1.00  0.00     0.165 C 
BRANCH  55  56
ATOM     56  O   UNL     1      29.596  40.119  10.033  1.00  0.00    -0.388 OA
ATOM     57  H   UNL     1      29.962  39.983  10.930  1.00  0.00     0.211 HD
ENDBRANCH  55  56
BRANCH  55  58
ATOM     58  C   UNL     1      30.229  37.867  10.240  1.00  0.00     0.154 C 
BRANCH  58  59
ATOM     59  N   UNL     1      29.438  37.341  11.284  1.00  0.00    -0.319 N 
ATOM     60  C   UNL     1      29.394  37.811  12.609  1.00  0.00     0.407 C 
ATOM     61  H   UNL     1      28.779  36.491  11.117  1.00  0.00     0.167 HD
ATOM     62  O   UNL     1      30.084  38.778  13.001  1.00  0.00    -0.225 OA
BRANCH  60  63
ATOM     63  O   UNL     1      28.573  37.231  13.582  1.00  0.00    -0.443 OA
BRANCH  63  64
ATOM     64  C   UNL     1      28.483  35.833  13.750  1.00  0.00     0.294 C 
BRANCH  64  65
ATOM     65  C   UNL     1      27.284  35.277  13.078  1.00  0.00     0.121 A 
ATOM     66  C   UNL     1      26.060  35.028  13.642  1.00  0.00     0.146 A 
ATOM     67  N   UNL     1      27.165  34.885  11.789  1.00  0.00    -0.131 NA
ATOM     68  N   UNL     1      25.217  34.485  12.685  1.00  0.00    -0.202 N 
ATOM     69  N   UNL     1      25.940  34.429  11.607  1.00  0.00    -0.060 NA
BRANCH  68  70
ATOM     70  C   UNL     1      23.908  34.130  13.054  1.00  0.00     0.164 A 
ATOM     71  N   UNL     1      23.004  35.118  13.265  1.00  0.00    -0.193 NA
ATOM     72  C   UNL     1      23.442  32.810  13.145  1.00  0.00     0.026 A 
ATOM     73  C   UNL     1      21.719  34.895  13.546  1.00  0.00     0.222 A 
ATOM     74  C   UNL     1      22.133  32.558  13.426  1.00  0.00     0.081 A 
ATOM     75  N   UNL     1      21.296  33.631  13.623  1.00  0.00    -0.213 NA
BRANCH  72  76
ATOM     76  C   UNL     1      24.465  31.764  13.035  1.00  0.00     0.070 C 
BRANCH  76  77
ATOM     77  C   UNL     1      25.054  31.327  14.359  1.00  0.00     0.165 C 
BRANCH  77  78
ATOM     78  O   UNL     1      24.860  30.031  14.726  1.00  0.00    -0.381 OA
BRANCH  78  79
ATOM     79  C   UNL     1      24.668  29.758  16.048  1.00  0.00     0.156 C 
ATOM     80  C   UNL     1      24.353  31.038  16.841  1.00  0.00     0.035 C 
ENDBRANCH  78  79
ENDBRANCH  77  78
ENDBRANCH  76  77
ENDBRANCH  72  76
BRANCH  73  81
ATOM     81  N   UNL     1      20.804  35.973  13.763  1.00  0.00    -0.368 N 
ATOM     82  H   UNL     1      19.798  35.865  13.518  1.00  0.00     0.159 HD
ATOM     83  H   UNL     1      21.093  36.881  14.163  1.00  0.00     0.159 HD
ENDBRANCH  73  81
BRANCH  74  84
ATOM     84  C   UNL     1      21.568  31.230  13.512  1.00  0.00     0.001 A 
ATOM     85  C   UNL     1      21.301  30.556  12.322  1.00  0.00     0.010 A 
ATOM     86  C   UNL     1      21.315  30.605  14.720  1.00  0.00     0.010 A 
ATOM     87  C   UNL     1      20.784  29.267  12.323  1.00  0.00     0.001 A 
ATOM     88  C   UNL     1      20.803  29.330  14.698  1.00  0.00     0.001 A 
ATOM     89  C   UNL     1      20.537  28.658  13.530  1.00  0.00     0.000 A 
ENDBRANCH  74  84
ENDBRANCH  68  70
ENDBRANCH  64  65
ENDBRANCH  63  64
ENDBRANCH  60  63
ENDBRANCH  58  59
ENDBRANCH  55  58
ENDBRANCH   1  55
TORSDOF 36
BEGIN_RES LYS A 131
REMARK  4 active torsions:
REMARK  status: ('A' for Active; 'I' for Inactive)
REMARK    1  A    between atoms: CA   and  CB  
REMARK    2  A    between atoms: CB   and  CG  
REMARK    3  A    between atoms: CG   and  CD  
REMARK    4  A    between atoms: CD   and  CE  
ROOT
ATOM      1  CA  LYS A 131      29.867  25.555  16.977  1.00 20.52     0.186 C 
ENDROOT
BRANCH   1   2
ATOM      2  CB  LYS A 131      28.345  25.722  17.026  1.00 20.94     0.034 C 
BRANCH   2   3
ATOM      3  CG  LYS A 131      27.602  24.398  16.934  1.00 22.96     0.005 C 
BRANCH   3   4
ATOM      4  CD  LYS A 131      26.637  24.210  18.072  1.00 24.33     0.041 C 
BRANCH   4   5
ATOM      5  CE  LYS A 131      26.358  25.557  18.731  1.00 26.91     0.338 C 
ATOM      6  NZ  LYS A 131      24.918  25.893  18.635  1.00 27.40     0.618 N 
ENDBRANCH   4   5
ENDBRANCH   3   4
ENDBRANCH   2   3
ENDBRANCH   1   2
END_RES LYS A 131
BEGIN_RES LYS A 135
REMARK  4 active torsions:
REMARK  status: ('A' for Active; 'I' for Inactive)
REMARK    5  A    between atoms: CA   and  CB  
REMARK    6  A    between atoms: CB   and  CG  
REMARK    7  A    between atoms: CG   and  CD  
REMARK    8  A    between atoms: CD   and  CE  
ROOT
ATOM      7  CA  LYS A 135      33.193  34.663   9.290  1.00 25.02     0.186 C 
ENDROOT
BRANCH   7   8
ATOM      8  CB  LYS A 135      32.060  35.360  10.034  1.00 26.63     0.034 C 
BRANCH   8   9
ATOM      9  CG  LYS A 135      31.993  35.007  11.498  1.00 29.45     0.005 C 
BRANCH   9  10
ATOM     10  CD  LYS A 135      32.660  36.084  12.340  1.00 32.00     0.041 C 
BRANCH  10  11
ATOM     11  CE  LYS A 135      32.471  35.797  13.817  1.00 34.25     0.338 C 
ATOM     12  NZ  LYS A 135      33.491  34.831  14.311  1.00 35.99     0.618 N 
ENDBRANCH  10  11
ENDBRANCH   9  10
ENDBRANCH   8   9
ENDBRANCH   7   8
END_RES LYS A 135
