REMARK VINA RESULT:    -4.523      3.293      6.917
REMARK INTER + INTRA:         -22.736
REMARK INTER:                 -13.680
REMARK INTRA:                  -9.056
REMARK UNBOUND:               -10.809
REMARK SMILES COc1ccc(Cn2cc(COC(=O)NC[C@@H](O)C(O)[C@@H]3O[C@@](OC[C@H]4O[C@@H](O[C@H]5[C@H](O)[C@@H](O)[C@H](OCCN=[N+]=[N-])O[C@@H]5CO)[C@H](O)[C@@H](O)[C@H]4O)(C(=O)O)C[C@H](O)[C@H]3NC(C)=O)nn2)cc1OC
REMARK SMILES IDX 23 1 55 2 56 3 58 4 21 5 22 6 24 7 25 8 26 9 28 10 27 11
REMARK SMILES IDX 46 12 48 13 50 14 29 15 30 16 43 17 42 18 35 19 31 20 33 21
REMARK SMILES IDX 44 22 45 23 36 25 37 26 38 27 39 28 40 29 41 30 32 31 34 33
REMARK SMILES IDX 47 35 49 37 51 39 52 41 53 42 54 43 57 45 19 47 20 48 17 50
REMARK SMILES IDX 18 51 16 53 15 54 13 55 14 57 12 58 11 59 10 60 9 61 63 62
REMARK SMILES IDX 8 63 64 64 7 65 6 66 65 67 5 68 66 69 4 70 3 71 67 72 68 73
REMARK SMILES IDX 2 74 1 75 59 76 60 77 61 79 62 80
REMARK H PARENT 45 24 32 32 34 34 47 36 49 38 51 40 54 44 57 46 20 49 18 52
REMARK H PARENT 15 56 59 78
REMARK Flexibility Score: inf
ROOT
ATOM      1  C   UNL     1      25.923  35.843  12.958  1.00  0.00     0.272 C 
ATOM      2  C   UNL     1      26.852  36.592  13.896  1.00  0.00     0.113 C 
ATOM      3  C   UNL     1      28.094  35.918  14.355  1.00  0.00     0.145 C 
ATOM      4  C   UNL     1      27.940  34.406  14.212  1.00  0.00     0.142 C 
ATOM      5  C   UNL     1      26.503  34.139  14.421  1.00  0.00     0.178 C 
ATOM      6  O   UNL     1      25.802  34.477  13.279  1.00  0.00    -0.332 OA
ENDROOT
BRANCH   1   7
ATOM      7  O   UNL     1      26.539  35.936  11.716  1.00  0.00    -0.338 OA
BRANCH   7   8
ATOM      8  C   UNL     1      26.346  34.913  10.840  1.00  0.00     0.199 C 
BRANCH   8   9
ATOM      9  C   UNL     1      27.285  35.017   9.670  1.00  0.00     0.179 C 
ATOM     10  C   UNL     1      28.435  36.399   8.280  1.00  0.00     0.282 C 
ATOM     11  O   UNL     1      27.893  36.284   9.618  1.00  0.00    -0.341 OA
ATOM     12  C   UNL     1      29.611  35.546   8.153  1.00  0.00     0.202 C 
ATOM     13  C   UNL     1      29.396  34.160   8.738  1.00  0.00     0.179 C 
ATOM     14  C   UNL     1      28.481  34.080   9.896  1.00  0.00     0.177 C 
BRANCH  10  15
ATOM     15  O   UNL     1      28.653  37.745   8.072  1.00  0.00    -0.341 OA
BRANCH  15  16
ATOM     16  C   UNL     1      27.477  38.367   7.652  1.00  0.00     0.184 C 
ATOM     17  C   UNL     1      27.589  39.009   6.326  1.00  0.00     0.178 C 
ATOM     18  O   UNL     1      26.306  39.341   5.899  1.00  0.00    -0.341 OA
ATOM     19  C   UNL     1      25.504  39.777   6.892  1.00  0.00     0.281 C 
ATOM     20  C   UNL     1      27.128  39.420   8.710  1.00  0.00     0.180 C 
ATOM     21  C   UNL     1      26.197  40.450   8.055  1.00  0.00     0.202 C 
BRANCH  17  22
ATOM     22  C   UNL     1      28.308  38.154   5.309  1.00  0.00     0.191 C 
BRANCH  22  23
ATOM     23  O   UNL     1      29.668  38.254   5.601  1.00  0.00    -0.394 OA
ATOM     24  H   UNL     1      30.181  37.695   4.944  1.00  0.00     0.210 HD
ENDBRANCH  22  23
ENDBRANCH  17  22
BRANCH  19  25
ATOM     25  O   UNL     1      24.833  38.634   7.457  1.00  0.00    -0.350 OA
BRANCH  25  26
ATOM     26  C   UNL     1      23.480  38.998   7.613  1.00  0.00     0.169 C 
BRANCH  26  27
ATOM     27  C   UNL     1      22.907  38.573   8.953  1.00  0.00     0.119 C 
BRANCH  27  28
ATOM     28  N   UNL     1      23.773  37.586   9.537  1.00  0.00    -0.092 NA
ATOM     29  N   UNL     1      23.439  36.404   9.655  1.00  0.00     0.001 N 
ATOM     30  N   UNL     1      22.767  35.363   9.798  1.00  0.00    -0.003 NA
ENDBRANCH  27  28
ENDBRANCH  26  27
ENDBRANCH  25  26
ENDBRANCH  19  25
BRANCH  20  31
ATOM     31  O   UNL     1      26.398  38.782   9.700  1.00  0.00    -0.387 OA
ATOM     32  H   UNL     1      26.580  37.797   9.633  1.00  0.00     0.211 HD
ENDBRANCH  20  31
BRANCH  21  33
ATOM     33  O   UNL     1      26.967  41.493   7.598  1.00  0.00    -0.385 OA
ATOM     34  H   UNL     1      26.669  42.372   7.960  1.00  0.00     0.211 HD
ENDBRANCH  21  33
ENDBRANCH  15  16
ENDBRANCH  10  15
BRANCH  12  35
ATOM     35  O   UNL     1      29.965  35.350   6.828  1.00  0.00    -0.385 OA
ATOM     36  H   UNL     1      29.200  35.524   6.206  1.00  0.00     0.211 HD
ENDBRANCH  12  35
BRANCH  13  37
ATOM     37  O   UNL     1      30.676  33.635   9.059  1.00  0.00    -0.387 OA
ATOM     38  H   UNL     1      31.297  33.958   8.355  1.00  0.00     0.211 HD
ENDBRANCH  13  37
BRANCH  14  39
ATOM     39  O   UNL     1      29.099  34.547  11.078  1.00  0.00    -0.387 OA
ATOM     40  H   UNL     1      28.433  34.567  11.847  1.00  0.00     0.211 HD
ENDBRANCH  14  39
ENDBRANCH   8   9
ENDBRANCH   7   8
ENDBRANCH   1   7
BRANCH   1  41
ATOM     41  C   UNL     1      24.577  36.464  13.049  1.00  0.00     0.364 C 
ATOM     42  O   UNL     1      23.605  35.842  13.486  1.00  0.00    -0.246 OA
BRANCH  41  43
ATOM     43  O   UNL     1      24.301  37.797  12.644  1.00  0.00    -0.477 OA
ATOM     44  H   UNL     1      25.145  38.397  12.488  1.00  0.00     0.296 HD
ENDBRANCH  41  43
ENDBRANCH   1  41
BRANCH   3  45
ATOM     45  O   UNL     1      29.190  36.312  13.625  1.00  0.00    -0.391 OA
ATOM     46  H   UNL     1      30.028  35.953  14.037  1.00  0.00     0.211 HD
ENDBRANCH   3  45
BRANCH   5  47
ATOM     47  C   UNL     1      26.208  32.846  15.030  1.00  0.00     0.176 C 
BRANCH  47  48
ATOM     48  O   UNL     1      25.820  32.862  16.364  1.00  0.00    -0.388 OA
ATOM     49  H   UNL     1      26.353  33.414  16.948  1.00  0.00     0.211 HD
ENDBRANCH  47  48
BRANCH  47  50
ATOM     50  C   UNL     1      24.800  32.331  14.408  1.00  0.00     0.165 C 
BRANCH  50  51
ATOM     51  O   UNL     1      23.826  33.044  14.991  1.00  0.00    -0.388 OA
ATOM     52  H   UNL     1      24.085  33.994  15.175  1.00  0.00     0.211 HD
ENDBRANCH  50  51
BRANCH  50  53
ATOM     53  C   UNL     1      24.790  30.890  14.322  1.00  0.00     0.154 C 
BRANCH  53  54
ATOM     54  N   UNL     1      25.237  30.009  15.348  1.00  0.00    -0.319 N 
ATOM     55  C   UNL     1      24.229  29.369  16.111  1.00  0.00     0.407 C 
ATOM     56  H   UNL     1      26.201  29.804  15.600  1.00  0.00     0.167 HD
ATOM     57  O   UNL     1      22.997  29.596  15.877  1.00  0.00    -0.225 OA
BRANCH  55  58
ATOM     58  O   UNL     1      24.453  28.468  17.147  1.00  0.00    -0.443 OA
BRANCH  58  59
ATOM     59  C   UNL     1      24.580  29.047  18.490  1.00  0.00     0.294 C 
BRANCH  59  60
ATOM     60  C   UNL     1      25.864  28.461  18.974  1.00  0.00     0.120 A 
ATOM     61  C   UNL     1      26.234  28.343  20.335  1.00  0.00     0.138 A 
ATOM     62  N   UNL     1      26.823  27.894  18.254  1.00  0.00    -0.132 NA
ATOM     63  N   UNL     1      27.421  27.690  20.329  1.00  0.00    -0.248 N 
ATOM     64  N   UNL     1      27.758  27.433  19.113  1.00  0.00    -0.067 NA
BRANCH  63  65
ATOM     65  C   UNL     1      28.154  27.289  21.559  1.00  0.00     0.181 C 
BRANCH  65  66
ATOM     66  C   UNL     1      29.502  27.992  21.392  1.00  0.00    -0.023 A 
ATOM     67  C   UNL     1      29.629  29.362  21.461  1.00  0.00     0.056 A 
ATOM     68  C   UNL     1      30.604  27.204  21.295  1.00  0.00     0.010 A 
ATOM     69  C   UNL     1      30.965  29.853  21.429  1.00  0.00     0.161 A 
ATOM     70  C   UNL     1      31.937  27.717  21.263  1.00  0.00     0.051 A 
ATOM     71  C   UNL     1      32.051  29.080  21.340  1.00  0.00     0.160 A 
BRANCH  69  72
ATOM     72  O   UNL     1      31.162  31.234  21.489  1.00  0.00    -0.493 OA
ATOM     73  C   UNL     1      31.026  32.067  20.332  1.00  0.00     0.278 C 
ENDBRANCH  69  72
BRANCH  71  74
ATOM     74  O   UNL     1      33.339  29.685  21.346  1.00  0.00    -0.493 OA
ATOM     75  C   UNL     1      34.164  29.513  22.518  1.00  0.00     0.278 C 
ENDBRANCH  71  74
ENDBRANCH  65  66
ENDBRANCH  63  65
ENDBRANCH  59  60
ENDBRANCH  58  59
ENDBRANCH  55  58
ENDBRANCH  53  54
ENDBRANCH  50  53
ENDBRANCH  47  50
ENDBRANCH   5  47
BRANCH   4  76
ATOM     76  N   UNL     1      28.824  33.768  15.150  1.00  0.00    -0.348 N 
ATOM     77  C   UNL     1      30.124  33.434  14.753  1.00  0.00     0.217 C 
ATOM     78  H   UNL     1      28.557  33.548  16.149  1.00  0.00     0.163 HD
ATOM     79  C   UNL     1      31.152  32.748  15.594  1.00  0.00     0.114 C 
ATOM     80  O   UNL     1      30.578  33.696  13.566  1.00  0.00    -0.275 OA
ENDBRANCH   4  76
TORSDOF 33
BEGIN_RES LYS A 131
REMARK  4 active torsions:
REMARK  status: ('A' for Active; 'I' for Inactive)
REMARK    1  A    between atoms: CA   and  CB  
REMARK    2  A    between atoms: CB   and  CG  
REMARK    3  A    between atoms: CG   and  CD  
REMARK    4  A    between atoms: CD   and  CE  
ROOT
ATOM      1  CA  LYS A 131      29.867  25.555  16.977  1.00 20.52     0.186 C 
ENDROOT
BRANCH   1   2
ATOM      2  CB  LYS A 131      28.345  25.722  17.026  1.00 20.94     0.034 C 
BRANCH   2   3
ATOM      3  CG  LYS A 131      27.601  24.402  16.893  1.00 22.96     0.005 C 
BRANCH   3   4
ATOM      4  CD  LYS A 131      26.172  24.509  17.346  1.00 24.33     0.041 C 
BRANCH   4   5
ATOM      5  CE  LYS A 131      26.009  23.803  18.688  1.00 26.91     0.338 C 
ATOM      6  NZ  LYS A 131      25.477  24.739  19.706  1.00 27.40     0.618 N 
ENDBRANCH   4   5
ENDBRANCH   3   4
ENDBRANCH   2   3
ENDBRANCH   1   2
END_RES LYS A 131
BEGIN_RES LYS A 135
REMARK  4 active torsions:
REMARK  status: ('A' for Active; 'I' for Inactive)
REMARK    5  A    between atoms: CA   and  CB  
REMARK    6  A    between atoms: CB   and  CG  
REMARK    7  A    between atoms: CG   and  CD  
REMARK    8  A    between atoms: CD   and  CE  
ROOT
ATOM      7  CA  LYS A 135      33.193  34.663   9.290  1.00 25.02     0.186 C 
ENDROOT
BRANCH   7   8
ATOM      8  CB  LYS A 135      32.060  35.360  10.034  1.00 26.63     0.034 C 
BRANCH   8   9
ATOM      9  CG  LYS A 135      32.474  35.927  11.368  1.00 29.45     0.005 C 
BRANCH   9  10
ATOM     10  CD  LYS A 135      31.932  37.337  11.543  1.00 32.00     0.041 C 
BRANCH  10  11
ATOM     11  CE  LYS A 135      31.389  37.866  10.229  1.00 34.25     0.338 C 
ATOM     12  NZ  LYS A 135      32.227  38.983   9.712  1.00 35.99     0.618 N 
ENDBRANCH  10  11
ENDBRANCH   9  10
ENDBRANCH   8   9
ENDBRANCH   7   8
END_RES LYS A 135
