REMARK VINA RESULT:    -4.205      4.308      8.344
REMARK INTER + INTRA:         -24.073
REMARK INTER:                 -13.336
REMARK INTRA:                 -10.736
REMARK UNBOUND:               -13.108
REMARK SMILES CC(=O)N[C@@H]1[C@@H](O)C[C@](OC[C@H]2O[C@@H](O[C@H]3[C@H](O)[C@@H](O)[C@H](OCCN=[N+]=[N-])O[C@@H]3CO)[C@H](O)[C@@H](O)[C@H]2O)(C(=O)O)O[C@H]1C(O)[C@H](O)CNC(=O)OCc1cn(-c2cccc(C=CC(=O)O)c2)nn1
REMARK SMILES IDX 43 1 42 2 9 3 8 4 41 5 6 6 5 7 10 8 11 9 12 10 14 11 13 12
REMARK SMILES IDX 32 13 34 14 36 15 15 16 16 17 29 18 28 19 21 20 17 21 19 22
REMARK SMILES IDX 30 23 31 24 22 26 23 27 24 28 25 29 26 30 27 31 18 32 20 34
REMARK SMILES IDX 33 36 35 38 37 40 38 42 39 43 40 44 7 46 4 48 2 49 1 51 3 52
REMARK SMILES IDX 44 53 45 55 46 56 47 58 48 59 49 60 50 62 51 63 52 64 53 65
REMARK SMILES IDX 54 66 68 67 55 68 67 69 56 70 66 71 57 72 60 73 58 74 59 75
REMARK SMILES IDX 61 76 62 77 63 78 64 79 65 80
REMARK H PARENT 31 25 18 33 20 35 33 37 35 39 37 41 40 45 7 47 4 50 44 54
REMARK H PARENT 46 57 48 61 65 81
REMARK Flexibility Score: inf
ROOT
ATOM      1  C   UNL     1      30.344  38.916   8.231  1.00  0.00     0.176 C 
ENDROOT
BRANCH   1   2
ATOM      2  C   UNL     1      29.450  38.417   7.114  1.00  0.00     0.178 C 
ATOM      3  C   UNL     1      27.579  39.190   5.905  1.00  0.00     0.272 C 
ATOM      4  C   UNL     1      27.867  37.726   5.316  1.00  0.00     0.113 C 
ATOM      5  O   UNL     1      28.470  39.355   6.945  1.00  0.00    -0.332 OA
ATOM      6  C   UNL     1      27.735  36.807   6.478  1.00  0.00     0.145 C 
ATOM      7  C   UNL     1      28.837  37.093   7.479  1.00  0.00     0.142 C 
BRANCH   3   8
ATOM      8  O   UNL     1      26.340  39.060   6.393  1.00  0.00    -0.338 OA
BRANCH   8   9
ATOM      9  C   UNL     1      25.498  40.035   6.684  1.00  0.00     0.199 C 
BRANCH   9  10
ATOM     10  C   UNL     1      24.751  40.004   8.000  1.00  0.00     0.179 C 
ATOM     11  C   UNL     1      24.718  38.315   9.655  1.00  0.00     0.282 C 
ATOM     12  O   UNL     1      24.565  38.718   8.343  1.00  0.00    -0.341 OA
ATOM     13  C   UNL     1      24.333  39.410  10.567  1.00  0.00     0.202 C 
ATOM     14  C   UNL     1      25.056  40.706  10.363  1.00  0.00     0.179 C 
ATOM     15  C   UNL     1      25.672  40.706   8.988  1.00  0.00     0.177 C 
BRANCH  11  16
ATOM     16  O   UNL     1      25.994  37.804   9.757  1.00  0.00    -0.341 OA
BRANCH  16  17
ATOM     17  C   UNL     1      26.193  36.881  10.724  1.00  0.00     0.184 C 
ATOM     18  C   UNL     1      25.106  35.851  10.734  1.00  0.00     0.178 C 
ATOM     19  O   UNL     1      25.627  34.778  11.497  1.00  0.00    -0.341 OA
ATOM     20  C   UNL     1      25.650  35.132  12.848  1.00  0.00     0.281 C 
ATOM     21  C   UNL     1      26.173  37.486  12.132  1.00  0.00     0.180 C 
ATOM     22  C   UNL     1      26.442  36.369  13.117  1.00  0.00     0.202 C 
BRANCH  18  23
ATOM     23  C   UNL     1      24.699  35.347   9.396  1.00  0.00     0.191 C 
BRANCH  23  24
ATOM     24  O   UNL     1      25.831  34.928   8.701  1.00  0.00    -0.394 OA
ATOM     25  H   UNL     1      25.984  33.944   8.851  1.00  0.00     0.210 HD
ENDBRANCH  23  24
ENDBRANCH  18  23
BRANCH  20  26
ATOM     26  O   UNL     1      26.221  34.072  13.545  1.00  0.00    -0.350 OA
BRANCH  26  27
ATOM     27  C   UNL     1      25.338  33.521  14.471  1.00  0.00     0.169 C 
BRANCH  27  28
ATOM     28  C   UNL     1      26.117  33.209  15.729  1.00  0.00     0.119 C 
BRANCH  28  29
ATOM     29  N   UNL     1      26.902  34.361  16.104  1.00  0.00    -0.092 NA
ATOM     30  N   UNL     1      27.432  34.422  17.228  1.00  0.00     0.001 N 
ATOM     31  N   UNL     1      27.615  34.684  18.427  1.00  0.00    -0.003 NA
ENDBRANCH  28  29
ENDBRANCH  27  28
ENDBRANCH  26  27
ENDBRANCH  20  26
BRANCH  21  32
ATOM     32  O   UNL     1      27.173  38.434  12.313  1.00  0.00    -0.387 OA
ATOM     33  H   UNL     1      27.376  38.779  11.407  1.00  0.00     0.211 HD
ENDBRANCH  21  32
BRANCH  22  34
ATOM     34  O   UNL     1      26.025  36.860  14.376  1.00  0.00    -0.385 OA
ATOM     35  H   UNL     1      25.048  36.956  14.430  1.00  0.00     0.211 HD
ENDBRANCH  22  34
ENDBRANCH  16  17
ENDBRANCH  11  16
BRANCH  13  36
ATOM     36  O   UNL     1      22.944  39.686  10.402  1.00  0.00    -0.385 OA
ATOM     37  H   UNL     1      22.687  40.440  11.003  1.00  0.00     0.211 HD
ENDBRANCH  13  36
BRANCH  14  38
ATOM     38  O   UNL     1      26.003  40.987  11.352  1.00  0.00    -0.387 OA
ATOM     39  H   UNL     1      25.633  40.862  12.263  1.00  0.00     0.211 HD
ENDBRANCH  14  38
BRANCH  15  40
ATOM     40  O   UNL     1      26.903  40.083   9.042  1.00  0.00    -0.387 OA
ATOM     41  H   UNL     1      27.469  40.291   8.235  1.00  0.00     0.211 HD
ENDBRANCH  15  40
ENDBRANCH   9  10
ENDBRANCH   8   9
ENDBRANCH   3   8
BRANCH   3  42
ATOM     42  C   UNL     1      27.875  40.100   4.810  1.00  0.00     0.364 C 
ATOM     43  O   UNL     1      27.387  40.132   3.667  1.00  0.00    -0.246 OA
BRANCH  42  44
ATOM     44  O   UNL     1      28.851  41.100   5.046  1.00  0.00    -0.477 OA
ATOM     45  H   UNL     1      28.537  42.082   5.017  1.00  0.00     0.296 HD
ENDBRANCH  42  44
ENDBRANCH   3  42
BRANCH   6  46
ATOM     46  O   UNL     1      26.479  37.130   7.092  1.00  0.00    -0.391 OA
ATOM     47  H   UNL     1      26.593  37.930   7.674  1.00  0.00     0.211 HD
ENDBRANCH   6  46
BRANCH   7  48
ATOM     48  N   UNL     1      29.745  36.027   7.706  1.00  0.00    -0.348 N 
ATOM     49  C   UNL     1      29.588  34.914   8.536  1.00  0.00     0.217 C 
ATOM     50  H   UNL     1      30.706  36.069   7.204  1.00  0.00     0.163 HD
ATOM     51  C   UNL     1      30.717  33.905   8.632  1.00  0.00     0.114 C 
ATOM     52  O   UNL     1      28.558  34.678   9.223  1.00  0.00    -0.275 OA
ENDBRANCH   7  48
ENDBRANCH   1   2
BRANCH   1  53
ATOM     53  O   UNL     1      31.660  38.607   7.939  1.00  0.00    -0.388 OA
ATOM     54  H   UNL     1      31.833  38.371   7.010  1.00  0.00     0.211 HD
ENDBRANCH   1  53
BRANCH   1  55
ATOM     55  C   UNL     1      30.286  40.437   8.368  1.00  0.00     0.165 C 
BRANCH  55  56
ATOM     56  O   UNL     1      31.001  41.105   7.412  1.00  0.00    -0.388 OA
ATOM     57  H   UNL     1      30.477  41.743   6.875  1.00  0.00     0.211 HD
ENDBRANCH  55  56
BRANCH  55  58
ATOM     58  C   UNL     1      30.659  40.870   9.750  1.00  0.00     0.154 C 
BRANCH  58  59
ATOM     59  N   UNL     1      29.640  40.585  10.694  1.00  0.00    -0.319 N 
ATOM     60  C   UNL     1      29.604  41.168  11.981  1.00  0.00     0.407 C 
ATOM     61  H   UNL     1      28.860  39.912  10.462  1.00  0.00     0.167 HD
ATOM     62  O   UNL     1      30.495  41.981  12.352  1.00  0.00    -0.225 OA
BRANCH  60  63
ATOM     63  O   UNL     1      28.597  40.887  12.901  1.00  0.00    -0.443 OA
BRANCH  63  64
ATOM     64  C   UNL     1      28.966  40.929  14.285  1.00  0.00     0.294 C 
BRANCH  64  65
ATOM     65  C   UNL     1      29.157  39.535  14.724  1.00  0.00     0.121 A 
ATOM     66  C   UNL     1      30.320  38.773  14.665  1.00  0.00     0.144 A 
ATOM     67  N   UNL     1      28.223  38.744  15.277  1.00  0.00    -0.131 NA
ATOM     68  N   UNL     1      30.046  37.555  15.186  1.00  0.00    -0.220 N 
ATOM     69  N   UNL     1      28.778  37.569  15.544  1.00  0.00    -0.062 NA
BRANCH  68  70
ATOM     70  C   UNL     1      31.004  36.515  15.300  1.00  0.00     0.067 A 
ATOM     71  C   UNL     1      30.595  35.238  15.683  1.00  0.00     0.036 A 
ATOM     72  C   UNL     1      32.316  36.731  15.042  1.00  0.00     0.028 A 
ATOM     73  C   UNL     1      31.475  34.208  15.805  1.00  0.00    -0.023 A 
ATOM     74  C   UNL     1      33.253  35.707  15.153  1.00  0.00     0.003 A 
ATOM     75  C   UNL     1      32.806  34.463  15.534  1.00  0.00     0.008 A 
BRANCH  73  76
ATOM     76  C   UNL     1      31.055  32.883  16.206  1.00  0.00     0.015 C 
ATOM     77  C   UNL     1      29.959  32.345  15.733  1.00  0.00     0.094 C 
BRANCH  77  78
ATOM     78  C   UNL     1      29.572  31.001  16.167  1.00  0.00     0.328 C 
ATOM     79  O   UNL     1      28.847  30.282  15.470  1.00  0.00    -0.247 OA
BRANCH  78  80
ATOM     80  O   UNL     1      30.020  30.502  17.388  1.00  0.00    -0.478 OA
ATOM     81  H   UNL     1      30.939  30.810  17.710  1.00  0.00     0.297 HD
ENDBRANCH  78  80
ENDBRANCH  77  78
ENDBRANCH  73  76
ENDBRANCH  68  70
ENDBRANCH  64  65
ENDBRANCH  63  64
ENDBRANCH  60  63
ENDBRANCH  58  59
ENDBRANCH  55  58
ENDBRANCH   1  55
TORSDOF 33
BEGIN_RES LYS A 131
REMARK  4 active torsions:
REMARK  status: ('A' for Active; 'I' for Inactive)
REMARK    1  A    between atoms: CA   and  CB  
REMARK    2  A    between atoms: CB   and  CG  
REMARK    3  A    between atoms: CG   and  CD  
REMARK    4  A    between atoms: CD   and  CE  
ROOT
ATOM      1  CA  LYS A 131      29.867  25.555  16.977  1.00 20.52     0.186 C 
ENDROOT
BRANCH   1   2
ATOM      2  CB  LYS A 131      28.345  25.722  17.026  1.00 20.94     0.034 C 
BRANCH   2   3
ATOM      3  CG  LYS A 131      27.602  24.399  16.919  1.00 22.96     0.005 C 
BRANCH   3   4
ATOM      4  CD  LYS A 131      26.207  24.487  17.474  1.00 24.33     0.041 C 
BRANCH   4   5
ATOM      5  CE  LYS A 131      26.140  25.606  18.508  1.00 26.91     0.338 C 
ATOM      6  NZ  LYS A 131      25.522  25.118  19.763  1.00 27.40     0.618 N 
ENDBRANCH   4   5
ENDBRANCH   3   4
ENDBRANCH   2   3
ENDBRANCH   1   2
END_RES LYS A 131
BEGIN_RES LYS A 135
REMARK  4 active torsions:
REMARK  status: ('A' for Active; 'I' for Inactive)
REMARK    5  A    between atoms: CA   and  CB  
REMARK    6  A    between atoms: CB   and  CG  
REMARK    7  A    between atoms: CG   and  CD  
REMARK    8  A    between atoms: CD   and  CE  
ROOT
ATOM      7  CA  LYS A 135      33.193  34.663   9.290  1.00 25.02     0.186 C 
ENDROOT
BRANCH   7   8
ATOM      8  CB  LYS A 135      32.060  35.360  10.034  1.00 26.63     0.034 C 
BRANCH   8   9
ATOM      9  CG  LYS A 135      32.494  36.003  11.326  1.00 29.45     0.005 C 
BRANCH   9  10
ATOM     10  CD  LYS A 135      31.740  37.304  11.557  1.00 32.00     0.041 C 
BRANCH  10  11
ATOM     11  CE  LYS A 135      30.252  37.102  11.346  1.00 34.25     0.338 C 
ATOM     12  NZ  LYS A 135      29.744  35.964  12.162  1.00 35.99     0.618 N 
ENDBRANCH  10  11
ENDBRANCH   9  10
ENDBRANCH   8   9
ENDBRANCH   7   8
END_RES LYS A 135
