REMARK VINA RESULT:    -7.410      2.968      8.098
REMARK INTER + INTRA:         -21.179
REMARK INTER:                 -10.749
REMARK INTRA:                 -10.430
REMARK UNBOUND:                -1.206
REMARK SMILES CC(=O)N[C@@H]1[C@@H](O)C[C@](OC[C@H]2O[C@@H](O[C@H]3[C@H](O)[C@@H](O)[C@H](OCCN=[N+]=[N-])O[C@@H]3CO)[C@H](O)[C@@H](O)[C@H]2O)(C(=O)O)O[C@H]1C(O)[C@H](O)CNC(=O)OCc1cn(C2CCc3ccccc3NC2=O)nn1
REMARK SMILES IDX 43 1 42 2 9 3 8 4 41 5 6 6 5 7 10 8 11 9 12 10 14 11 13 12
REMARK SMILES IDX 32 13 34 14 36 15 15 16 16 17 29 18 28 19 21 20 17 21 19 22
REMARK SMILES IDX 30 23 31 24 22 26 23 27 24 28 25 29 26 30 27 31 18 32 20 34
REMARK SMILES IDX 33 36 35 38 37 40 38 42 39 43 40 44 7 46 4 48 2 49 1 51 3 52
REMARK SMILES IDX 44 53 45 55 46 56 47 58 48 59 49 60 50 62 51 63 52 64 53 65
REMARK SMILES IDX 54 66 69 67 55 68 68 69 56 70 57 71 66 73 65 74 67 75 64 77
REMARK SMILES IDX 59 78 63 79 60 80 62 81 61 82 58 83
REMARK H PARENT 31 25 18 33 20 35 33 37 35 39 37 41 40 45 7 47 4 50 44 54
REMARK H PARENT 46 57 48 61 65 76
REMARK Flexibility Score: 90.00
ROOT
ATOM      1  C   UNL     1      22.815  39.820   9.556  1.00  0.00     0.176 C 
ENDROOT
BRANCH   1   2
ATOM      2  C   UNL     1      22.813  38.350  10.019  1.00  0.00     0.178 C 
ATOM      3  C   UNL     1      24.772  36.989  10.000  1.00  0.00     0.272 C 
ATOM      4  C   UNL     1      24.199  36.147   8.933  1.00  0.00     0.113 C 
ATOM      5  O   UNL     1      23.944  37.956  10.574  1.00  0.00    -0.332 OA
ATOM      6  C   UNL     1      23.256  36.891   8.050  1.00  0.00     0.145 C 
ATOM      7  C   UNL     1      22.187  37.506   8.943  1.00  0.00     0.142 C 
BRANCH   3   8
ATOM      8  O   UNL     1      25.913  37.642   9.692  1.00  0.00    -0.338 OA
BRANCH   8   9
ATOM      9  C   UNL     1      26.899  37.157   8.955  1.00  0.00     0.199 C 
BRANCH   9  10
ATOM     10  C   UNL     1      27.372  37.701   7.678  1.00  0.00     0.179 C 
ATOM     11  C   UNL     1      26.946  39.490   6.274  1.00  0.00     0.282 C 
ATOM     12  O   UNL     1      26.785  39.007   7.572  1.00  0.00    -0.341 OA
ATOM     13  C   UNL     1      27.981  38.827   5.455  1.00  0.00     0.202 C 
ATOM     14  C   UNL     1      29.162  38.262   6.166  1.00  0.00     0.179 C 
ATOM     15  C   UNL     1      28.861  38.040   7.626  1.00  0.00     0.177 C 
BRANCH  11  16
ATOM     16  O   UNL     1      27.070  40.894   6.339  1.00  0.00    -0.341 OA
BRANCH  16  17
ATOM     17  C   UNL     1      26.351  41.437   7.371  1.00  0.00     0.184 C 
ATOM     18  C   UNL     1      25.310  42.450   6.973  1.00  0.00     0.178 C 
ATOM     19  O   UNL     1      24.610  42.757   8.142  1.00  0.00    -0.341 OA
ATOM     20  C   UNL     1      25.331  43.613   8.961  1.00  0.00     0.281 C 
ATOM     21  C   UNL     1      27.263  42.125   8.376  1.00  0.00     0.180 C 
ATOM     22  C   UNL     1      26.814  43.481   8.782  1.00  0.00     0.202 C 
BRANCH  18  23
ATOM     23  C   UNL     1      24.299  41.873   6.003  1.00  0.00     0.191 C 
BRANCH  23  24
ATOM     24  O   UNL     1      23.813  40.641   6.433  1.00  0.00    -0.394 OA
ATOM     25  H   UNL     1      22.833  40.603   6.467  1.00  0.00     0.210 HD
ENDBRANCH  23  24
ENDBRANCH  18  23
BRANCH  20  26
ATOM     26  O   UNL     1      24.936  43.405  10.270  1.00  0.00    -0.350 OA
BRANCH  26  27
ATOM     27  C   UNL     1      25.706  44.131  11.162  1.00  0.00     0.169 C 
BRANCH  27  28
ATOM     28  C   UNL     1      25.140  45.458  11.552  1.00  0.00     0.119 C 
BRANCH  28  29
ATOM     29  N   UNL     1      24.895  45.467  12.985  1.00  0.00    -0.092 NA
ATOM     30  N   UNL     1      25.778  45.789  13.800  1.00  0.00     0.001 N 
ATOM     31  N   UNL     1      26.536  46.563  14.403  1.00  0.00    -0.003 NA
ENDBRANCH  28  29
ENDBRANCH  27  28
ENDBRANCH  26  27
ENDBRANCH  20  26
BRANCH  21  32
ATOM     32  O   UNL     1      27.531  41.293   9.474  1.00  0.00    -0.387 OA
ATOM     33  H   UNL     1      26.682  40.870   9.762  1.00  0.00     0.211 HD
ENDBRANCH  21  32
BRANCH  22  34
ATOM     34  O   UNL     1      27.265  44.489   7.897  1.00  0.00    -0.385 OA
ATOM     35  H   UNL     1      26.547  44.835   7.335  1.00  0.00     0.211 HD
ENDBRANCH  22  34
ENDBRANCH  16  17
ENDBRANCH  11  16
BRANCH  13  36
ATOM     36  O   UNL     1      27.383  37.910   4.584  1.00  0.00    -0.385 OA
ATOM     37  H   UNL     1      28.086  37.398   4.106  1.00  0.00     0.211 HD
ENDBRANCH  13  36
BRANCH  14  38
ATOM     38  O   UNL     1      30.327  39.001   5.967  1.00  0.00    -0.387 OA
ATOM     39  H   UNL     1      30.235  39.424   5.073  1.00  0.00     0.211 HD
ENDBRANCH  14  38
BRANCH  15  40
ATOM     40  O   UNL     1      29.082  39.240   8.347  1.00  0.00    -0.387 OA
ATOM     41  H   UNL     1      28.517  39.916   7.914  1.00  0.00     0.211 HD
ENDBRANCH  15  40
ENDBRANCH   9  10
ENDBRANCH   8   9
ENDBRANCH   3   8
BRANCH   3  42
ATOM     42  C   UNL     1      24.973  36.074  11.188  1.00  0.00     0.364 C 
ATOM     43  O   UNL     1      24.452  34.985  11.254  1.00  0.00    -0.246 OA
BRANCH  42  44
ATOM     44  O   UNL     1      25.782  36.491  12.250  1.00  0.00    -0.477 OA
ATOM     45  H   UNL     1      26.754  36.726  12.128  1.00  0.00     0.296 HD
ENDBRANCH  42  44
ENDBRANCH   3  42
BRANCH   6  46
ATOM     46  O   UNL     1      23.990  37.907   7.416  1.00  0.00    -0.391 OA
ATOM     47  H   UNL     1      24.403  38.526   8.040  1.00  0.00     0.211 HD
ENDBRANCH   6  46
BRANCH   7  48
ATOM     48  N   UNL     1      21.340  36.460   9.407  1.00  0.00    -0.348 N 
ATOM     49  C   UNL     1      20.099  36.190   8.764  1.00  0.00     0.217 C 
ATOM     50  H   UNL     1      21.605  35.868  10.229  1.00  0.00     0.163 HD
ATOM     51  C   UNL     1      19.180  35.110   9.212  1.00  0.00     0.114 C 
ATOM     52  O   UNL     1      19.790  36.892   7.794  1.00  0.00    -0.275 OA
ENDBRANCH   7  48
ENDBRANCH   1   2
BRANCH   1  53
ATOM     53  O   UNL     1      21.847  39.993   8.561  1.00  0.00    -0.388 OA
ATOM     54  H   UNL     1      20.936  39.779   8.862  1.00  0.00     0.211 HD
ENDBRANCH   1  53
BRANCH   1  55
ATOM     55  C   UNL     1      22.529  40.780  10.652  1.00  0.00     0.165 C 
BRANCH  55  56
ATOM     56  O   UNL     1      22.401  42.106  10.257  1.00  0.00    -0.388 OA
ATOM     57  H   UNL     1      23.181  42.604  10.620  1.00  0.00     0.211 HD
ENDBRANCH  55  56
BRANCH  55  58
ATOM     58  C   UNL     1      23.459  40.747  11.821  1.00  0.00     0.154 C 
BRANCH  58  59
ATOM     59  N   UNL     1      24.850  40.643  11.501  1.00  0.00    -0.319 N 
ATOM     60  C   UNL     1      25.795  39.927  12.272  1.00  0.00     0.407 C 
ATOM     61  H   UNL     1      25.192  41.124  10.644  1.00  0.00     0.167 HD
ATOM     62  O   UNL     1      25.452  39.322  13.317  1.00  0.00    -0.225 OA
BRANCH  60  63
ATOM     63  O   UNL     1      27.107  39.897  11.864  1.00  0.00    -0.443 OA
BRANCH  63  64
ATOM     64  C   UNL     1      28.182  40.155  12.698  1.00  0.00     0.294 C 
BRANCH  64  65
ATOM     65  C   UNL     1      28.957  38.936  12.940  1.00  0.00     0.120 A 
ATOM     66  C   UNL     1      30.167  38.850  13.584  1.00  0.00     0.139 A 
ATOM     67  N   UNL     1      28.655  37.664  12.585  1.00  0.00    -0.132 NA
ATOM     68  N   UNL     1      30.570  37.556  13.610  1.00  0.00    -0.240 N 
ATOM     69  N   UNL     1      29.630  36.869  12.995  1.00  0.00    -0.066 NA
BRANCH  68  70
ATOM     70  C   UNL     1      31.809  37.029  14.207  1.00  0.00     0.198 C 
BRANCH  70  71
ATOM     71  C   UNL     1      31.538  36.865  15.656  1.00  0.00     0.042 CG0
ATOM     72  G   UNL     1      32.419  35.929  16.407  1.00  0.00     0.000 G0
ENDBRANCH  70  71
BRANCH  70  73
ATOM     73  C   UNL     1      32.124  35.808  13.459  1.00  0.00     0.249 C 
ATOM     74  N   UNL     1      31.828  34.451  13.754  1.00  0.00    -0.324 N 
ATOM     75  O   UNL     1      32.756  35.996  12.385  1.00  0.00    -0.272 OA
ATOM     76  H   UNL     1      31.790  33.764  12.969  1.00  0.00     0.170 HD
BRANCH  74  77
ATOM     77  C   UNL     1      31.573  33.955  15.085  1.00  0.00     0.044 A 
ATOM     78  C   UNL     1      31.811  34.567  16.310  1.00  0.00    -0.024 A 
ATOM     79  C   UNL     1      31.017  32.694  15.059  1.00  0.00     0.026 A 
ATOM     80  C   UNL     1      31.504  33.947  17.498  1.00  0.00     0.006 A 
ATOM     81  C   UNL     1      30.699  32.049  16.238  1.00  0.00     0.002 A 
ATOM     82  C   UNL     1      30.951  32.692  17.455  1.00  0.00     0.000 A 
BRANCH  78  83
ATOM     83  C   UNL     1      32.407  35.927  16.444  1.00  0.00     0.040 CG0
ATOM     84  G   UNL     1      31.543  36.858  15.668  1.00  0.00     0.000 G0
ENDBRANCH  78  83
ENDBRANCH  74  77
ENDBRANCH  70  73
ENDBRANCH  68  70
ENDBRANCH  64  65
ENDBRANCH  63  64
ENDBRANCH  60  63
ENDBRANCH  58  59
ENDBRANCH  55  58
ENDBRANCH   1  55
TORSDOF 30
BEGIN_RES LYS A 131
REMARK  4 active torsions:
REMARK  status: ('A' for Active; 'I' for Inactive)
REMARK    1  A    between atoms: CA   and  CB  
REMARK    2  A    between atoms: CB   and  CG  
REMARK    3  A    between atoms: CG   and  CD  
REMARK    4  A    between atoms: CD   and  CE  
ROOT
ATOM      1  CA  LYS A 131      29.867  25.555  16.977  1.00 20.52     0.186 C 
ENDROOT
BRANCH   1   2
ATOM      2  CB  LYS A 131      28.345  25.722  17.026  1.00 20.94     0.034 C 
BRANCH   2   3
ATOM      3  CG  LYS A 131      27.602  24.398  16.935  1.00 22.96     0.005 C 
BRANCH   3   4
ATOM      4  CD  LYS A 131      26.629  24.215  18.066  1.00 24.33     0.041 C 
BRANCH   4   5
ATOM      5  CE  LYS A 131      25.417  25.115  17.846  1.00 26.91     0.338 C 
ATOM      6  NZ  LYS A 131      25.087  25.853  19.088  1.00 27.40     0.618 N 
ENDBRANCH   4   5
ENDBRANCH   3   4
ENDBRANCH   2   3
ENDBRANCH   1   2
END_RES LYS A 131
BEGIN_RES LYS A 135
REMARK  4 active torsions:
REMARK  status: ('A' for Active; 'I' for Inactive)
REMARK    5  A    between atoms: CA   and  CB  
REMARK    6  A    between atoms: CB   and  CG  
REMARK    7  A    between atoms: CG   and  CD  
REMARK    8  A    between atoms: CD   and  CE  
ROOT
ATOM      7  CA  LYS A 135      33.193  34.663   9.290  1.00 25.02     0.186 C 
ENDROOT
BRANCH   7   8
ATOM      8  CB  LYS A 135      32.060  35.360  10.034  1.00 26.63     0.034 C 
BRANCH   8   9
ATOM      9  CG  LYS A 135      30.775  34.574  10.048  1.00 29.45     0.005 C 
BRANCH   9  10
ATOM     10  CD  LYS A 135      30.332  34.244   8.631  1.00 32.00     0.041 C 
BRANCH  10  11
ATOM     11  CE  LYS A 135      28.820  34.299   8.519  1.00 34.25     0.338 C 
ATOM     12  NZ  LYS A 135      28.174  34.004   9.828  1.00 35.99     0.618 N 
ENDBRANCH  10  11
ENDBRANCH   9  10
ENDBRANCH   8   9
ENDBRANCH   7   8
END_RES LYS A 135
