REMARK VINA RESULT:    -3.806      2.361      8.327
REMARK INTER + INTRA:         -23.553
REMARK INTER:                  -9.230
REMARK INTRA:                 -14.322
REMARK UNBOUND:               -13.184
REMARK SMILES CC(=O)N[C@@H]1[C@@H](O)C[C@](OC[C@H]2O[C@@H](O[C@H]3[C@H](O)[C@@H](O)[C@H](OCCN=[N+]=[N-])O[C@@H]3CO)[C@H](O)[C@@H](O)[C@H]2O)(C(=O)O)O[C@H]1C(O)[C@H](O)CNC(=O)OCc1cn(CC(O)Cn2ccnc2[N+](=O)[O-])nn1
REMARK SMILES IDX 43 1 42 2 9 3 8 4 41 5 6 6 5 7 10 8 11 9 12 10 14 11 13 12
REMARK SMILES IDX 32 13 34 14 36 15 15 16 16 17 29 18 28 19 21 20 17 21 19 22
REMARK SMILES IDX 30 23 31 24 22 26 23 27 24 28 25 29 26 30 27 31 18 32 20 34
REMARK SMILES IDX 33 36 35 38 37 40 38 42 39 43 40 44 7 46 4 48 2 49 1 51 3 52
REMARK SMILES IDX 44 53 45 55 46 56 47 58 48 59 49 60 50 62 51 63 52 64 53 65
REMARK SMILES IDX 54 66 69 67 55 68 68 69 56 70 57 71 58 72 59 74 60 75 61 76
REMARK SMILES IDX 64 77 62 78 63 79 65 80 66 81 67 82
REMARK H PARENT 31 25 18 33 20 35 33 37 35 39 37 41 40 45 7 47 4 50 44 54
REMARK H PARENT 46 57 48 61 58 73
REMARK Flexibility Score: inf
ROOT
ATOM      1  C   UNL     1      28.001  34.716  14.338  1.00  0.00     0.176 C 
ENDROOT
BRANCH   1   2
ATOM      2  C   UNL     1      28.757  34.262  15.623  1.00  0.00     0.178 C 
ATOM      3  C   UNL     1      29.194  32.222  16.622  1.00  0.00     0.272 C 
ATOM      4  C   UNL     1      28.903  32.808  17.972  1.00  0.00     0.113 C 
ATOM      5  O   UNL     1      28.478  32.894  15.637  1.00  0.00    -0.332 OA
ATOM      6  C   UNL     1      27.812  33.868  17.895  1.00  0.00     0.145 C 
ATOM      7  C   UNL     1      28.137  34.882  16.806  1.00  0.00     0.142 C 
BRANCH   3   8
ATOM      8  O   UNL     1      28.766  30.906  16.494  1.00  0.00    -0.338 OA
BRANCH   8   9
ATOM      9  C   UNL     1      27.814  30.608  15.594  1.00  0.00     0.199 C 
BRANCH   9  10
ATOM     10  C   UNL     1      26.573  29.988  16.204  1.00  0.00     0.179 C 
ATOM     11  C   UNL     1      25.720  29.154  18.093  1.00  0.00     0.282 C 
ATOM     12  O   UNL     1      26.513  30.222  17.605  1.00  0.00    -0.341 OA
ATOM     13  C   UNL     1      24.346  29.186  17.470  1.00  0.00     0.202 C 
ATOM     14  C   UNL     1      24.204  30.540  16.777  1.00  0.00     0.179 C 
ATOM     15  C   UNL     1      25.282  30.584  15.690  1.00  0.00     0.177 C 
BRANCH  11  16
ATOM     16  O   UNL     1      25.611  29.182  19.467  1.00  0.00    -0.341 OA
BRANCH  16  17
ATOM     17  C   UNL     1      26.755  29.762  19.964  1.00  0.00     0.184 C 
ATOM     18  C   UNL     1      27.584  28.837  20.841  1.00  0.00     0.178 C 
ATOM     19  O   UNL     1      28.841  29.446  20.899  1.00  0.00    -0.341 OA
ATOM     20  C   UNL     1      28.864  30.632  21.581  1.00  0.00     0.281 C 
ATOM     21  C   UNL     1      26.454  30.963  20.849  1.00  0.00     0.180 C 
ATOM     22  C   UNL     1      27.692  31.531  21.433  1.00  0.00     0.202 C 
BRANCH  18  23
ATOM     23  C   UNL     1      27.683  27.443  20.335  1.00  0.00     0.191 C 
BRANCH  23  24
ATOM     24  O   UNL     1      28.833  27.338  19.562  1.00  0.00    -0.394 OA
ATOM     25  H   UNL     1      28.991  28.135  18.995  1.00  0.00     0.210 HD
ENDBRANCH  23  24
ENDBRANCH  18  23
BRANCH  20  26
ATOM     26  O   UNL     1      29.990  31.343  21.086  1.00  0.00    -0.350 OA
BRANCH  26  27
ATOM     27  C   UNL     1      30.745  30.602  20.213  1.00  0.00     0.169 C 
BRANCH  27  28
ATOM     28  C   UNL     1      31.932  30.068  21.026  1.00  0.00     0.119 C 
BRANCH  28  29
ATOM     29  N   UNL     1      32.267  28.723  20.674  1.00  0.00    -0.092 NA
ATOM     30  N   UNL     1      31.779  27.744  21.285  1.00  0.00     0.001 N 
ATOM     31  N   UNL     1      31.152  26.712  21.460  1.00  0.00    -0.003 NA
ENDBRANCH  28  29
ENDBRANCH  27  28
ENDBRANCH  26  27
ENDBRANCH  20  26
BRANCH  21  32
ATOM     32  O   UNL     1      25.820  31.956  20.074  1.00  0.00    -0.387 OA
ATOM     33  H   UNL     1      26.364  32.758  20.165  1.00  0.00     0.211 HD
ENDBRANCH  21  32
BRANCH  22  34
ATOM     34  O   UNL     1      27.347  31.963  22.740  1.00  0.00    -0.385 OA
ATOM     35  H   UNL     1      26.362  31.957  22.864  1.00  0.00     0.211 HD
ENDBRANCH  22  34
ENDBRANCH  16  17
ENDBRANCH  11  16
BRANCH  13  36
ATOM     36  O   UNL     1      24.253  28.145  16.546  1.00  0.00    -0.385 OA
ATOM     37  H   UNL     1      23.795  27.350  16.938  1.00  0.00     0.211 HD
ENDBRANCH  13  36
BRANCH  14  38
ATOM     38  O   UNL     1      24.551  31.512  17.698  1.00  0.00    -0.387 OA
ATOM     39  H   UNL     1      24.276  31.243  18.591  1.00  0.00     0.211 HD
ENDBRANCH  14  38
BRANCH  15  40
ATOM     40  O   UNL     1      25.406  31.911  15.345  1.00  0.00    -0.387 OA
ATOM     41  H   UNL     1      26.257  32.102  14.876  1.00  0.00     0.211 HD
ENDBRANCH  15  40
ENDBRANCH   9  10
ENDBRANCH   8   9
ENDBRANCH   3   8
BRANCH   3  42
ATOM     42  C   UNL     1      30.627  32.301  16.307  1.00  0.00     0.364 C 
ATOM     43  O   UNL     1      31.476  32.794  17.128  1.00  0.00    -0.246 OA
BRANCH  42  44
ATOM     44  O   UNL     1      31.179  31.862  15.119  1.00  0.00    -0.477 OA
ATOM     45  H   UNL     1      31.916  31.153  15.068  1.00  0.00     0.296 HD
ENDBRANCH  42  44
ENDBRANCH   3  42
BRANCH   6  46
ATOM     46  O   UNL     1      26.560  33.310  17.723  1.00  0.00    -0.391 OA
ATOM     47  H   UNL     1      26.170  33.549  16.845  1.00  0.00     0.211 HD
ENDBRANCH   6  46
BRANCH   7  48
ATOM     48  N   UNL     1      28.751  36.044  17.365  1.00  0.00    -0.348 N 
ATOM     49  C   UNL     1      28.145  37.162  17.927  1.00  0.00     0.217 C 
ATOM     50  H   UNL     1      29.857  36.078  17.373  1.00  0.00     0.163 HD
ATOM     51  C   UNL     1      28.973  38.297  18.508  1.00  0.00     0.114 C 
ATOM     52  O   UNL     1      26.925  37.320  18.003  1.00  0.00    -0.275 OA
ENDBRANCH   7  48
ENDBRANCH   1   2
BRANCH   1  53
ATOM     53  O   UNL     1      26.772  34.010  14.324  1.00  0.00    -0.388 OA
ATOM     54  H   UNL     1      26.800  33.228  13.751  1.00  0.00     0.211 HD
ENDBRANCH   1  53
BRANCH   1  55
ATOM     55  C   UNL     1      28.720  34.520  13.087  1.00  0.00     0.165 C 
BRANCH  55  56
ATOM     56  O   UNL     1      30.054  34.212  13.158  1.00  0.00    -0.388 OA
ATOM     57  H   UNL     1      30.241  33.280  13.409  1.00  0.00     0.211 HD
ENDBRANCH  55  56
BRANCH  55  58
ATOM     58  C   UNL     1      28.533  35.691  12.093  1.00  0.00     0.154 C 
BRANCH  58  59
ATOM     59  N   UNL     1      27.097  35.780  11.856  1.00  0.00    -0.319 N 
ATOM     60  C   UNL     1      26.439  34.943  10.897  1.00  0.00     0.407 C 
ATOM     61  H   UNL     1      26.515  36.465  12.390  1.00  0.00     0.167 HD
ATOM     62  O   UNL     1      27.105  34.110  10.245  1.00  0.00    -0.225 OA
BRANCH  60  63
ATOM     63  O   UNL     1      25.081  35.037  10.674  1.00  0.00    -0.443 OA
BRANCH  63  64
ATOM     64  C   UNL     1      24.126  35.605  11.516  1.00  0.00     0.294 C 
BRANCH  64  65
ATOM     65  C   UNL     1      23.623  34.588  12.473  1.00  0.00     0.120 A 
ATOM     66  C   UNL     1      22.548  34.720  13.332  1.00  0.00     0.138 A 
ATOM     67  N   UNL     1      24.088  33.350  12.701  1.00  0.00    -0.132 NA
ATOM     68  N   UNL     1      22.408  33.569  14.036  1.00  0.00    -0.249 N 
ATOM     69  N   UNL     1      23.353  32.759  13.633  1.00  0.00    -0.067 NA
BRANCH  68  70
ATOM     70  C   UNL     1      21.340  33.354  15.007  1.00  0.00     0.181 C 
BRANCH  70  71
ATOM     71  C   UNL     1      21.999  33.528  16.372  1.00  0.00     0.170 C 
BRANCH  71  72
ATOM     72  O   UNL     1      23.328  33.823  16.183  1.00  0.00    -0.388 OA
ATOM     73  H   UNL     1      23.762  33.116  15.648  1.00  0.00     0.211 HD
ENDBRANCH  71  72
BRANCH  71  74
ATOM     74  C   UNL     1      21.269  34.558  17.177  1.00  0.00     0.239 C 
BRANCH  74  75
ATOM     75  N   UNL     1      22.077  35.763  17.279  1.00  0.00    -0.227 N 
ATOM     76  C   UNL     1      21.947  36.802  16.392  1.00  0.00     0.204 A 
ATOM     77  C   UNL     1      23.003  36.070  18.187  1.00  0.00     0.434 A 
ATOM     78  C   UNL     1      22.833  37.780  16.783  1.00  0.00     0.245 A 
ATOM     79  N   UNL     1      23.466  37.314  17.878  1.00  0.00    -0.074 NA
BRANCH  77  80
ATOM     80  N   UNL     1      23.442  35.260  19.264  1.00  0.00    -0.047 N 
ATOM     81  O   UNL     1      23.142  35.554  20.464  1.00  0.00    -0.390 OA
ATOM     82  O   UNL     1      24.206  34.137  19.104  1.00  0.00    -0.390 OA
ENDBRANCH  77  80
ENDBRANCH  74  75
ENDBRANCH  71  74
ENDBRANCH  70  71
ENDBRANCH  68  70
ENDBRANCH  64  65
ENDBRANCH  63  64
ENDBRANCH  60  63
ENDBRANCH  58  59
ENDBRANCH  55  58
ENDBRANCH   1  55
TORSDOF 35
BEGIN_RES LYS A 131
REMARK  4 active torsions:
REMARK  status: ('A' for Active; 'I' for Inactive)
REMARK    1  A    between atoms: CA   and  CB  
REMARK    2  A    between atoms: CB   and  CG  
REMARK    3  A    between atoms: CG   and  CD  
REMARK    4  A    between atoms: CD   and  CE  
ROOT
ATOM      1  CA  LYS A 131      29.867  25.555  16.977  1.00 20.52     0.186 C 
ENDROOT
BRANCH   1   2
ATOM      2  CB  LYS A 131      28.345  25.722  17.026  1.00 20.94     0.034 C 
BRANCH   2   3
ATOM      3  CG  LYS A 131      27.601  24.403  16.886  1.00 22.96     0.005 C 
BRANCH   3   4
ATOM      4  CD  LYS A 131      26.681  24.146  18.047  1.00 24.33     0.041 C 
BRANCH   4   5
ATOM      5  CE  LYS A 131      25.578  25.200  18.066  1.00 26.91     0.338 C 
ATOM      6  NZ  LYS A 131      24.442  24.776  17.214  1.00 27.40     0.618 N 
ENDBRANCH   4   5
ENDBRANCH   3   4
ENDBRANCH   2   3
ENDBRANCH   1   2
END_RES LYS A 131
BEGIN_RES LYS A 135
REMARK  4 active torsions:
REMARK  status: ('A' for Active; 'I' for Inactive)
REMARK    5  A    between atoms: CA   and  CB  
REMARK    6  A    between atoms: CB   and  CG  
REMARK    7  A    between atoms: CG   and  CD  
REMARK    8  A    between atoms: CD   and  CE  
ROOT
ATOM      7  CA  LYS A 135      33.193  34.663   9.290  1.00 25.02     0.186 C 
ENDROOT
BRANCH   7   8
ATOM      8  CB  LYS A 135      32.060  35.360  10.034  1.00 26.63     0.034 C 
BRANCH   8   9
ATOM      9  CG  LYS A 135      30.696  34.809   9.708  1.00 29.45     0.005 C 
BRANCH   9  10
ATOM     10  CD  LYS A 135      30.587  34.489   8.225  1.00 32.00     0.041 C 
BRANCH  10  11
ATOM     11  CE  LYS A 135      29.370  35.164   7.622  1.00 34.25     0.338 C 
ATOM     12  NZ  LYS A 135      28.966  36.354   8.421  1.00 35.99     0.618 N 
ENDBRANCH  10  11
ENDBRANCH   9  10
ENDBRANCH   8   9
ENDBRANCH   7   8
END_RES LYS A 135
