REMARK VINA RESULT:    -3.988      2.693      7.570
REMARK INTER + INTRA:         -21.882
REMARK INTER:                 -12.390
REMARK INTRA:                  -9.492
REMARK UNBOUND:               -11.833
REMARK SMILES CC(=O)N[C@@H]1[C@@H](O)C[C@](OC[C@H]2O[C@@H](O[C@H]3[C@H](O)[C@@H](O)[C@H](OCCN=[N+]=[N-])O[C@@H]3CO)[C@H](O)[C@@H](O)[C@H]2O)(C(=O)O)O[C@H]1C(O)[C@H](O)CNC(=O)OCc1cn(-c2ccccc2C(N)=O)nn1
REMARK SMILES IDX 9 1 8 2 6 3 5 4 42 5 41 6 10 7 11 8 12 9 14 10 13 11 32 12
REMARK SMILES IDX 34 13 36 14 15 15 16 16 29 17 28 18 21 19 17 20 19 21 30 22
REMARK SMILES IDX 31 23 22 25 23 26 24 27 25 28 26 29 27 30 18 31 20 33 33 35
REMARK SMILES IDX 35 37 37 39 38 41 39 42 40 43 7 45 43 47 44 48 45 50 46 51
REMARK SMILES IDX 47 53 48 54 49 55 50 57 51 58 52 59 53 60 54 61 66 62 55 63
REMARK SMILES IDX 65 64 56 65 61 66 57 67 60 68 58 69 59 70 62 71 64 72 63 73
REMARK SMILES IDX 4 76 2 77 1 79 3 80
REMARK H PARENT 31 24 18 32 20 34 33 36 35 38 37 40 40 44 7 46 44 49 46 52
REMARK H PARENT 48 56 63 74 63 75 4 78
REMARK Flexibility Score: inf
ROOT
ATOM      1  C   UNL     1      23.443  35.780  11.790  1.00  0.00     0.272 C 
ATOM      2  C   UNL     1      22.541  34.862  10.917  1.00  0.00     0.113 C 
ATOM      3  C   UNL     1      21.510  34.310  11.860  1.00  0.00     0.145 C 
ATOM      4  C   UNL     1      22.139  33.329  12.767  1.00  0.00     0.142 C 
ATOM      5  C   UNL     1      23.577  33.821  13.012  1.00  0.00     0.178 C 
ATOM      6  O   UNL     1      23.616  35.202  13.037  1.00  0.00    -0.332 OA
ENDROOT
BRANCH   1   7
ATOM      7  O   UNL     1      22.712  36.948  11.898  1.00  0.00    -0.338 OA
BRANCH   7   8
ATOM      8  C   UNL     1      23.453  38.076  12.085  1.00  0.00     0.199 C 
BRANCH   8   9
ATOM      9  C   UNL     1      23.092  39.186  11.114  1.00  0.00     0.179 C 
ATOM     10  C   UNL     1      24.158  40.574   9.575  1.00  0.00     0.282 C 
ATOM     11  O   UNL     1      24.271  39.496  10.441  1.00  0.00    -0.341 OA
ATOM     12  C   UNL     1      22.787  41.109   9.391  1.00  0.00     0.202 C 
ATOM     13  C   UNL     1      21.686  40.091   9.368  1.00  0.00     0.179 C 
ATOM     14  C   UNL     1      22.074  38.794  10.094  1.00  0.00     0.177 C 
BRANCH  10  15
ATOM     15  O   UNL     1      24.683  40.173   8.360  1.00  0.00    -0.341 OA
BRANCH  15  16
ATOM     16  C   UNL     1      25.696  39.237   8.481  1.00  0.00     0.184 C 
ATOM     17  C   UNL     1      27.006  39.979   8.631  1.00  0.00     0.178 C 
ATOM     18  O   UNL     1      27.677  40.108   7.464  1.00  0.00    -0.341 OA
ATOM     19  C   UNL     1      28.101  38.947   6.929  1.00  0.00     0.281 C 
ATOM     20  C   UNL     1      25.708  38.448   7.176  1.00  0.00     0.180 C 
ATOM     21  C   UNL     1      27.058  37.902   6.876  1.00  0.00     0.202 C 
BRANCH  17  22
ATOM     22  C   UNL     1      27.861  39.304   9.669  1.00  0.00     0.191 C 
BRANCH  22  23
ATOM     23  O   UNL     1      27.091  38.557  10.566  1.00  0.00    -0.394 OA
ATOM     24  H   UNL     1      27.326  37.596  10.389  1.00  0.00     0.210 HD
ENDBRANCH  22  23
ENDBRANCH  17  22
BRANCH  19  25
ATOM     25  O   UNL     1      29.314  38.484   7.461  1.00  0.00    -0.350 OA
BRANCH  25  26
ATOM     26  C   UNL     1      30.421  39.126   6.964  1.00  0.00     0.169 C 
BRANCH  26  27
ATOM     27  C   UNL     1      31.389  39.413   8.062  1.00  0.00     0.119 C 
BRANCH  27  28
ATOM     28  N   UNL     1      31.089  40.696   8.647  1.00  0.00    -0.092 NA
ATOM     29  N   UNL     1      31.125  40.897   9.867  1.00  0.00     0.001 N 
ATOM     30  N   UNL     1      31.419  40.913  11.066  1.00  0.00    -0.003 NA
ENDBRANCH  27  28
ENDBRANCH  26  27
ENDBRANCH  25  26
ENDBRANCH  19  25
BRANCH  20  31
ATOM     31  O   UNL     1      24.797  37.398   7.247  1.00  0.00    -0.387 OA
ATOM     32  H   UNL     1      24.286  37.436   8.115  1.00  0.00     0.211 HD
ENDBRANCH  20  31
BRANCH  21  33
ATOM     33  O   UNL     1      27.017  37.368   5.564  1.00  0.00    -0.385 OA
ATOM     34  H   UNL     1      26.858  38.125   4.929  1.00  0.00     0.211 HD
ENDBRANCH  21  33
ENDBRANCH  15  16
ENDBRANCH  10  15
BRANCH  12  35
ATOM     35  O   UNL     1      22.495  42.159  10.289  1.00  0.00    -0.385 OA
ATOM     36  H   UNL     1      22.046  42.857   9.766  1.00  0.00     0.211 HD
ENDBRANCH  12  35
BRANCH  13  37
ATOM     37  O   UNL     1      21.369  39.736   8.057  1.00  0.00    -0.387 OA
ATOM     38  H   UNL     1      22.160  39.838   7.445  1.00  0.00     0.211 HD
ENDBRANCH  13  37
BRANCH  14  39
ATOM     39  O   UNL     1      22.691  37.933   9.169  1.00  0.00    -0.387 OA
ATOM     40  H   UNL     1      23.370  38.360   8.625  1.00  0.00     0.211 HD
ENDBRANCH  14  39
ENDBRANCH   8   9
ENDBRANCH   7   8
ENDBRANCH   1   7
BRANCH   1  41
ATOM     41  C   UNL     1      24.741  35.950  11.131  1.00  0.00     0.364 C 
ATOM     42  O   UNL     1      25.806  36.099  11.822  1.00  0.00    -0.246 OA
BRANCH  41  43
ATOM     43  O   UNL     1      24.827  35.949   9.735  1.00  0.00    -0.477 OA
ATOM     44  H   UNL     1      23.953  35.823   9.232  1.00  0.00     0.296 HD
ENDBRANCH  41  43
ENDBRANCH   1  41
BRANCH   3  45
ATOM     45  O   UNL     1      21.100  35.401  12.670  1.00  0.00    -0.391 OA
ATOM     46  H   UNL     1      21.387  36.245  12.234  1.00  0.00     0.211 HD
ENDBRANCH   3  45
BRANCH   5  47
ATOM     47  C   UNL     1      24.161  33.147  14.220  1.00  0.00     0.176 C 
BRANCH  47  48
ATOM     48  O   UNL     1      24.779  31.968  13.759  1.00  0.00    -0.388 OA
ATOM     49  H   UNL     1      25.680  32.181  13.393  1.00  0.00     0.211 HD
ENDBRANCH  47  48
BRANCH  47  50
ATOM     50  C   UNL     1      25.304  33.975  14.816  1.00  0.00     0.165 C 
BRANCH  50  51
ATOM     51  O   UNL     1      26.246  34.226  13.806  1.00  0.00    -0.388 OA
ATOM     52  H   UNL     1      26.425  33.346  13.382  1.00  0.00     0.211 HD
ENDBRANCH  50  51
BRANCH  50  53
ATOM     53  C   UNL     1      25.979  33.277  15.947  1.00  0.00     0.154 C 
BRANCH  53  54
ATOM     54  N   UNL     1      27.242  32.720  15.544  1.00  0.00    -0.319 N 
ATOM     55  C   UNL     1      27.680  31.416  15.886  1.00  0.00     0.407 C 
ATOM     56  H   UNL     1      27.877  33.333  14.956  1.00  0.00     0.167 HD
ATOM     57  O   UNL     1      27.047  30.591  16.546  1.00  0.00    -0.225 OA
BRANCH  55  58
ATOM     58  O   UNL     1      28.955  30.986  15.447  1.00  0.00    -0.443 OA
BRANCH  58  59
ATOM     59  C   UNL     1      30.098  31.219  16.272  1.00  0.00     0.294 C 
BRANCH  59  60
ATOM     60  C   UNL     1      30.731  32.509  15.941  1.00  0.00     0.121 A 
ATOM     61  C   UNL     1      30.616  33.250  14.789  1.00  0.00     0.144 A 
ATOM     62  N   UNL     1      31.562  33.212  16.730  1.00  0.00    -0.131 NA
ATOM     63  N   UNL     1      31.365  34.369  14.895  1.00  0.00    -0.220 N 
ATOM     64  N   UNL     1      31.932  34.310  16.104  1.00  0.00    -0.062 NA
BRANCH  63  65
ATOM     65  C   UNL     1      31.552  35.412  13.955  1.00  0.00     0.079 A 
ATOM     66  C   UNL     1      30.712  36.495  13.998  1.00  0.00     0.065 A 
ATOM     67  C   UNL     1      32.553  35.352  13.007  1.00  0.00     0.029 A 
ATOM     68  C   UNL     1      30.848  37.548  13.098  1.00  0.00     0.016 A 
ATOM     69  C   UNL     1      32.705  36.399  12.094  1.00  0.00     0.002 A 
ATOM     70  C   UNL     1      31.851  37.478  12.154  1.00  0.00     0.001 A 
BRANCH  66  71
ATOM     71  C   UNL     1      29.663  36.549  14.996  1.00  0.00     0.250 C 
ATOM     72  O   UNL     1      29.919  37.059  16.116  1.00  0.00    -0.269 OA
ATOM     73  N   UNL     1      28.356  36.061  14.792  1.00  0.00    -0.366 N 
ATOM     74  H   UNL     1      27.550  36.699  14.878  1.00  0.00     0.159 HD
ATOM     75  H   UNL     1      28.211  35.069  14.557  1.00  0.00     0.159 HD
ENDBRANCH  66  71
ENDBRANCH  63  65
ENDBRANCH  59  60
ENDBRANCH  58  59
ENDBRANCH  55  58
ENDBRANCH  53  54
ENDBRANCH  50  53
ENDBRANCH  47  50
ENDBRANCH   5  47
BRANCH   4  76
ATOM     76  N   UNL     1      22.216  31.991  12.329  1.00  0.00    -0.348 N 
ATOM     77  C   UNL     1      21.394  30.957  12.844  1.00  0.00     0.217 C 
ATOM     78  H   UNL     1      22.912  31.740  11.588  1.00  0.00     0.163 HD
ATOM     79  C   UNL     1      21.446  29.544  12.410  1.00  0.00     0.114 C 
ATOM     80  O   UNL     1      20.572  31.334  13.740  1.00  0.00    -0.275 OA
ENDBRANCH   4  76
TORSDOF 31
BEGIN_RES LYS A 131
REMARK  4 active torsions:
REMARK  status: ('A' for Active; 'I' for Inactive)
REMARK    1  A    between atoms: CA   and  CB  
REMARK    2  A    between atoms: CB   and  CG  
REMARK    3  A    between atoms: CG   and  CD  
REMARK    4  A    between atoms: CD   and  CE  
ROOT
ATOM      1  CA  LYS A 131      29.867  25.555  16.977  1.00 20.52     0.186 C 
ENDROOT
BRANCH   1   2
ATOM      2  CB  LYS A 131      28.345  25.722  17.026  1.00 20.94     0.034 C 
BRANCH   2   3
ATOM      3  CG  LYS A 131      27.602  24.399  16.923  1.00 22.96     0.005 C 
BRANCH   3   4
ATOM      4  CD  LYS A 131      26.143  24.541  17.259  1.00 24.33     0.041 C 
BRANCH   4   5
ATOM      5  CE  LYS A 131      25.606  23.208  17.770  1.00 26.91     0.338 C 
ATOM      6  NZ  LYS A 131      25.526  23.215  19.250  1.00 27.40     0.618 N 
ENDBRANCH   4   5
ENDBRANCH   3   4
ENDBRANCH   2   3
ENDBRANCH   1   2
END_RES LYS A 131
BEGIN_RES LYS A 135
REMARK  4 active torsions:
REMARK  status: ('A' for Active; 'I' for Inactive)
REMARK    5  A    between atoms: CA   and  CB  
REMARK    6  A    between atoms: CB   and  CG  
REMARK    7  A    between atoms: CG   and  CD  
REMARK    8  A    between atoms: CD   and  CE  
ROOT
ATOM      7  CA  LYS A 135      33.193  34.663   9.290  1.00 25.02     0.186 C 
ENDROOT
BRANCH   7   8
ATOM      8  CB  LYS A 135      32.060  35.360  10.034  1.00 26.63     0.034 C 
BRANCH   8   9
ATOM      9  CG  LYS A 135      30.694  34.822   9.692  1.00 29.45     0.005 C 
BRANCH   9  10
ATOM     10  CD  LYS A 135      29.635  35.901   9.861  1.00 32.00     0.041 C 
BRANCH  10  11
ATOM     11  CE  LYS A 135      28.293  35.414   9.350  1.00 34.25     0.338 C 
ATOM     12  NZ  LYS A 135      27.980  34.056   9.875  1.00 35.99     0.618 N 
ENDBRANCH  10  11
ENDBRANCH   9  10
ENDBRANCH   8   9
ENDBRANCH   7   8
END_RES LYS A 135
