REMARK VINA RESULT:    -5.338      3.469      9.432
REMARK INTER + INTRA:         -23.304
REMARK INTER:                 -13.759
REMARK INTRA:                  -9.545
REMARK UNBOUND:                -9.852
REMARK SMILES CC(=O)N[C@@H]1[C@@H](O)C[C@](OC[C@H]2O[C@@H](O[C@H]3[C@H](O)[C@@H](O)[C@H](OCCN=[N+]=[N-])O[C@@H]3CO)[C@H](O)[C@@H](O)[C@H]2O)(C(=O)O)O[C@H]1C(O)[C@H](O)CNC(=O)OCc1cn(Cc2ccc3c(c2)OCO3)nn1
REMARK SMILES IDX 9 1 8 2 6 3 5 4 42 5 41 6 10 7 11 8 12 9 14 10 13 11 32 12
REMARK SMILES IDX 34 13 36 14 15 15 16 16 29 17 28 18 21 19 17 20 19 21 30 22
REMARK SMILES IDX 31 23 22 25 23 26 24 27 25 28 26 29 27 30 18 31 20 33 33 35
REMARK SMILES IDX 35 37 37 39 38 41 39 42 40 43 7 45 43 47 44 48 45 50 46 51
REMARK SMILES IDX 47 53 48 54 49 55 50 57 51 58 52 59 53 60 54 61 67 62 55 63
REMARK SMILES IDX 66 64 56 65 57 66 58 67 62 68 59 69 61 70 60 71 63 72 65 73
REMARK SMILES IDX 64 74 4 75 2 76 1 78 3 79
REMARK H PARENT 31 24 18 32 20 34 33 36 35 38 37 40 40 44 7 46 44 49 46 52
REMARK H PARENT 48 56 4 77
REMARK Flexibility Score: inf
ROOT
ATOM      1  C   UNL     1      24.599  36.850   9.620  1.00  0.00     0.272 C 
ATOM      2  C   UNL     1      23.398  36.140   9.029  1.00  0.00     0.113 C 
ATOM      3  C   UNL     1      22.686  37.063   8.087  1.00  0.00     0.145 C 
ATOM      4  C   UNL     1      22.187  38.255   8.946  1.00  0.00     0.142 C 
ATOM      5  C   UNL     1      23.367  38.810   9.660  1.00  0.00     0.178 C 
ATOM      6  O   UNL     1      24.575  38.194   9.339  1.00  0.00    -0.332 OA
ENDROOT
BRANCH   1   7
ATOM      7  O   UNL     1      25.790  36.253   9.179  1.00  0.00    -0.338 OA
BRANCH   7   8
ATOM      8  C   UNL     1      25.723  34.951   8.812  1.00  0.00     0.199 C 
BRANCH   8   9
ATOM      9  C   UNL     1      27.111  34.509   8.320  1.00  0.00     0.179 C 
ATOM     10  C   UNL     1      28.946  35.229   7.134  1.00  0.00     0.282 C 
ATOM     11  O   UNL     1      27.604  35.444   7.450  1.00  0.00    -0.341 OA
ATOM     12  C   UNL     1      29.777  35.455   8.400  1.00  0.00     0.202 C 
ATOM     13  C   UNL     1      29.055  35.139   9.660  1.00  0.00     0.179 C 
ATOM     14  C   UNL     1      28.002  34.107   9.438  1.00  0.00     0.177 C 
BRANCH  10  15
ATOM     15  O   UNL     1      29.342  36.140   6.238  1.00  0.00    -0.341 OA
BRANCH  15  16
ATOM     16  C   UNL     1      28.977  37.448   6.345  1.00  0.00     0.184 C 
ATOM     17  C   UNL     1      29.553  38.158   7.538  1.00  0.00     0.178 C 
ATOM     18  O   UNL     1      28.614  38.540   8.438  1.00  0.00    -0.341 OA
ATOM     19  C   UNL     1      27.640  39.444   7.969  1.00  0.00     0.281 C 
ATOM     20  C   UNL     1      27.474  37.540   6.354  1.00  0.00     0.180 C 
ATOM     21  C   UNL     1      27.094  38.980   6.637  1.00  0.00     0.202 C 
BRANCH  17  22
ATOM     22  C   UNL     1      30.336  39.358   7.065  1.00  0.00     0.191 C 
BRANCH  22  23
ATOM     23  O   UNL     1      30.795  39.155   5.738  1.00  0.00    -0.394 OA
ATOM     24  H   UNL     1      30.514  38.284   5.374  1.00  0.00     0.210 HD
ENDBRANCH  22  23
ENDBRANCH  17  22
BRANCH  19  25
ATOM     25  O   UNL     1      28.095  40.724   7.985  1.00  0.00    -0.350 OA
BRANCH  25  26
ATOM     26  C   UNL     1      27.606  41.674   8.779  1.00  0.00     0.169 C 
BRANCH  26  27
ATOM     27  C   UNL     1      26.452  42.466   8.250  1.00  0.00     0.119 C 
BRANCH  27  28
ATOM     28  N   UNL     1      26.419  42.670   6.845  1.00  0.00    -0.092 NA
ATOM     29  N   UNL     1      25.490  42.332   6.116  1.00  0.00     0.001 N 
ATOM     30  N   UNL     1      24.700  41.589   5.508  1.00  0.00    -0.003 NA
ENDBRANCH  27  28
ENDBRANCH  26  27
ENDBRANCH  25  26
ENDBRANCH  19  25
BRANCH  20  31
ATOM     31  O   UNL     1      27.014  37.199   5.085  1.00  0.00    -0.387 OA
ATOM     32  H   UNL     1      26.835  36.225   5.011  1.00  0.00     0.211 HD
ENDBRANCH  20  31
BRANCH  21  33
ATOM     33  O   UNL     1      25.703  39.019   6.640  1.00  0.00    -0.385 OA
ATOM     34  H   UNL     1      25.351  38.743   5.752  1.00  0.00     0.211 HD
ENDBRANCH  21  33
ENDBRANCH  15  16
ENDBRANCH  10  15
BRANCH  12  35
ATOM     35  O   UNL     1      30.975  34.747   8.321  1.00  0.00    -0.385 OA
ATOM     36  H   UNL     1      31.569  34.991   9.050  1.00  0.00     0.211 HD
ENDBRANCH  12  35
BRANCH  13  37
ATOM     37  O   UNL     1      28.560  36.257  10.313  1.00  0.00    -0.387 OA
ATOM     38  H   UNL     1      29.076  37.051  10.020  1.00  0.00     0.211 HD
ENDBRANCH  13  37
BRANCH  14  39
ATOM     39  O   UNL     1      27.288  33.962  10.637  1.00  0.00    -0.387 OA
ATOM     40  H   UNL     1      27.831  34.327  11.362  1.00  0.00     0.211 HD
ENDBRANCH  14  39
ENDBRANCH   8   9
ENDBRANCH   7   8
ENDBRANCH   1   7
BRANCH   1  41
ATOM     41  C   UNL     1      24.606  36.651  11.081  1.00  0.00     0.364 C 
ATOM     42  O   UNL     1      23.575  36.565  11.760  1.00  0.00    -0.246 OA
BRANCH  41  43
ATOM     43  O   UNL     1      25.807  36.546  11.789  1.00  0.00    -0.477 OA
ATOM     44  H   UNL     1      26.623  36.079  11.359  1.00  0.00     0.296 HD
ENDBRANCH  41  43
ENDBRANCH   1  41
BRANCH   3  45
ATOM     45  O   UNL     1      23.434  37.616   7.089  1.00  0.00    -0.391 OA
ATOM     46  H   UNL     1      24.098  38.282   7.399  1.00  0.00     0.211 HD
ENDBRANCH   3  45
BRANCH   5  47
ATOM     47  C   UNL     1      23.604  40.280   9.237  1.00  0.00     0.176 C 
BRANCH  47  48
ATOM     48  O   UNL     1      23.239  40.524   7.948  1.00  0.00    -0.388 OA
ATOM     49  H   UNL     1      23.782  41.258   7.575  1.00  0.00     0.211 HD
ENDBRANCH  47  48
BRANCH  47  50
ATOM     50  C   UNL     1      23.164  41.295  10.198  1.00  0.00     0.165 C 
BRANCH  50  51
ATOM     51  O   UNL     1      22.489  42.392   9.646  1.00  0.00    -0.388 OA
ATOM     52  H   UNL     1      21.708  42.640  10.206  1.00  0.00     0.211 HD
ENDBRANCH  50  51
BRANCH  50  53
ATOM     53  C   UNL     1      24.208  41.839  11.136  1.00  0.00     0.154 C 
BRANCH  53  54
ATOM     54  N   UNL     1      25.182  40.762  11.378  1.00  0.00    -0.319 N 
ATOM     55  C   UNL     1      25.377  40.204  12.674  1.00  0.00     0.407 C 
ATOM     56  H   UNL     1      25.725  40.417  10.579  1.00  0.00     0.167 HD
ATOM     57  O   UNL     1      24.678  40.672  13.611  1.00  0.00    -0.225 OA
BRANCH  55  58
ATOM     58  O   UNL     1      26.278  39.199  12.931  1.00  0.00    -0.443 OA
BRANCH  58  59
ATOM     59  C   UNL     1      27.168  39.281  14.019  1.00  0.00     0.294 C 
BRANCH  59  60
ATOM     60  C   UNL     1      28.120  38.148  13.936  1.00  0.00     0.120 A 
ATOM     61  C   UNL     1      29.046  37.733  14.886  1.00  0.00     0.138 A 
ATOM     62  N   UNL     1      28.284  37.293  12.906  1.00  0.00    -0.132 NA
ATOM     63  N   UNL     1      29.717  36.668  14.408  1.00  0.00    -0.248 N 
ATOM     64  N   UNL     1      29.239  36.426  13.214  1.00  0.00    -0.067 NA
BRANCH  63  65
ATOM     65  C   UNL     1      30.749  35.953  15.097  1.00  0.00     0.181 C 
BRANCH  65  66
ATOM     66  C   UNL     1      30.463  34.513  15.298  1.00  0.00    -0.023 A 
ATOM     67  C   UNL     1      31.478  33.607  15.291  1.00  0.00     0.010 A 
ATOM     68  C   UNL     1      29.147  34.080  15.494  1.00  0.00     0.056 A 
ATOM     69  C   UNL     1      31.190  32.279  15.477  1.00  0.00     0.051 A 
ATOM     70  C   UNL     1      28.847  32.758  15.680  1.00  0.00     0.166 A 
ATOM     71  C   UNL     1      29.900  31.862  15.667  1.00  0.00     0.165 A 
ATOM     72  O   UNL     1      27.702  32.014  15.893  1.00  0.00    -0.454 OA
ATOM     73  O   UNL     1      29.400  30.570  15.871  1.00  0.00    -0.454 OA
ATOM     74  C   UNL     1      28.090  30.730  16.375  1.00  0.00     0.468 C 
ENDBRANCH  65  66
ENDBRANCH  63  65
ENDBRANCH  59  60
ENDBRANCH  58  59
ENDBRANCH  55  58
ENDBRANCH  53  54
ENDBRANCH  50  53
ENDBRANCH  47  50
ENDBRANCH   5  47
BRANCH   4  75
ATOM     75  N   UNL     1      21.161  37.690   9.775  1.00  0.00    -0.348 N 
ATOM     76  C   UNL     1      19.792  37.882   9.388  1.00  0.00     0.217 C 
ATOM     77  H   UNL     1      21.288  37.141  10.645  1.00  0.00     0.163 HD
ATOM     78  C   UNL     1      18.698  37.304  10.240  1.00  0.00     0.114 C 
ATOM     79  O   UNL     1      19.513  38.525   8.349  1.00  0.00    -0.275 OA
ENDBRANCH   4  75
TORSDOF 31
BEGIN_RES LYS A 131
REMARK  4 active torsions:
REMARK  status: ('A' for Active; 'I' for Inactive)
REMARK    1  A    between atoms: CA   and  CB  
REMARK    2  A    between atoms: CB   and  CG  
REMARK    3  A    between atoms: CG   and  CD  
REMARK    4  A    between atoms: CD   and  CE  
ROOT
ATOM      1  CA  LYS A 131      29.867  25.555  16.977  1.00 20.52     0.186 C 
ENDROOT
BRANCH   1   2
ATOM      2  CB  LYS A 131      28.345  25.722  17.026  1.00 20.94     0.034 C 
BRANCH   2   3
ATOM      3  CG  LYS A 131      27.601  24.402  16.894  1.00 22.96     0.005 C 
BRANCH   3   4
ATOM      4  CD  LYS A 131      26.499  24.269  17.908  1.00 24.33     0.041 C 
BRANCH   4   5
ATOM      5  CE  LYS A 131      25.677  23.020  17.606  1.00 26.91     0.338 C 
ATOM      6  NZ  LYS A 131      24.910  22.602  18.803  1.00 27.40     0.618 N 
ENDBRANCH   4   5
ENDBRANCH   3   4
ENDBRANCH   2   3
ENDBRANCH   1   2
END_RES LYS A 131
BEGIN_RES LYS A 135
REMARK  4 active torsions:
REMARK  status: ('A' for Active; 'I' for Inactive)
REMARK    5  A    between atoms: CA   and  CB  
REMARK    6  A    between atoms: CB   and  CG  
REMARK    7  A    between atoms: CG   and  CD  
REMARK    8  A    between atoms: CD   and  CE  
ROOT
ATOM      7  CA  LYS A 135      33.193  34.663   9.290  1.00 25.02     0.186 C 
ENDROOT
BRANCH   7   8
ATOM      8  CB  LYS A 135      32.060  35.360  10.034  1.00 26.63     0.034 C 
BRANCH   8   9
ATOM      9  CG  LYS A 135      32.362  35.616  11.488  1.00 29.45     0.005 C 
BRANCH   9  10
ATOM     10  CD  LYS A 135      32.296  37.104  11.796  1.00 32.00     0.041 C 
BRANCH  10  11
ATOM     11  CE  LYS A 135      31.743  37.869  10.609  1.00 34.25     0.338 C 
ATOM     12  NZ  LYS A 135      30.741  38.882  11.043  1.00 35.99     0.618 N 
ENDBRANCH  10  11
ENDBRANCH   9  10
ENDBRANCH   8   9
ENDBRANCH   7   8
END_RES LYS A 135
