REMARK VINA RESULT:    -5.378      5.503     11.428
REMARK INTER + INTRA:         -22.826
REMARK INTER:                 -10.475
REMARK INTRA:                 -12.350
REMARK UNBOUND:                -8.960
REMARK SMILES CC(=O)N[C@@H]1[C@@H](O)C[C@](OC[C@H]2O[C@@H](O[C@H]3[C@H](O)[C@@H](O)[C@H](OCCN=[N+]=[N-])O[C@@H]3CO)[C@H](O)[C@@H](O)[C@H]2O)(C(=O)O)O[C@H]1C(O)[C@H](O)CNC(=O)OCc1cn(Cc2cccc(C#N)c2)nn1
REMARK SMILES IDX 9 1 8 2 6 3 5 4 42 5 41 6 10 7 11 8 12 9 14 10 13 11 32 12
REMARK SMILES IDX 34 13 36 14 15 15 16 16 29 17 28 18 21 19 17 20 19 21 30 22
REMARK SMILES IDX 31 23 22 25 23 26 24 27 25 28 26 29 27 30 18 31 20 33 33 35
REMARK SMILES IDX 35 37 37 39 38 41 39 42 40 43 7 45 43 47 44 48 45 50 46 51
REMARK SMILES IDX 47 53 48 54 49 55 50 57 51 58 52 59 53 60 54 61 66 62 55 63
REMARK SMILES IDX 65 64 56 65 57 66 58 67 64 68 59 69 61 70 60 71 62 72 63 73
REMARK SMILES IDX 4 74 2 75 1 77 3 78
REMARK H PARENT 31 24 18 32 20 34 33 36 35 38 37 40 40 44 7 46 44 49 46 52
REMARK H PARENT 48 56 4 76
REMARK Flexibility Score: inf
ROOT
ATOM      1  C   UNL     1      26.141  39.671   8.324  1.00  0.00     0.272 C 
ATOM      2  C   UNL     1      25.073  40.063   9.316  1.00  0.00     0.113 C 
ATOM      3  C   UNL     1      24.703  39.074  10.339  1.00  0.00     0.145 C 
ATOM      4  C   UNL     1      24.845  37.637   9.827  1.00  0.00     0.142 C 
ATOM      5  C   UNL     1      26.103  37.401   9.120  1.00  0.00     0.178 C 
ATOM      6  O   UNL     1      26.685  38.435   8.463  1.00  0.00    -0.332 OA
ENDROOT
BRANCH   1   7
ATOM      7  O   UNL     1      27.113  40.563   8.374  1.00  0.00    -0.338 OA
BRANCH   7   8
ATOM      8  C   UNL     1      27.968  41.182   9.036  1.00  0.00     0.199 C 
BRANCH   8   9
ATOM      9  C   UNL     1      29.463  41.026   8.998  1.00  0.00     0.179 C 
ATOM     10  C   UNL     1      31.212  40.393  10.270  1.00  0.00     0.282 C 
ATOM     11  O   UNL     1      29.840  40.166  10.097  1.00  0.00    -0.341 OA
ATOM     12  C   UNL     1      32.010  39.832   9.143  1.00  0.00     0.202 C 
ATOM     13  C   UNL     1      31.376  40.099   7.792  1.00  0.00     0.179 C 
ATOM     14  C   UNL     1      29.886  40.131   7.817  1.00  0.00     0.177 C 
BRANCH  10  15
ATOM     15  O   UNL     1      31.618  39.818  11.472  1.00  0.00    -0.341 OA
BRANCH  15  16
ATOM     16  C   UNL     1      30.671  39.922  12.458  1.00  0.00     0.184 C 
ATOM     17  C   UNL     1      31.124  40.739  13.612  1.00  0.00     0.178 C 
ATOM     18  O   UNL     1      30.220  40.788  14.649  1.00  0.00    -0.341 OA
ATOM     19  C   UNL     1      29.743  39.574  15.090  1.00  0.00     0.281 C 
ATOM     20  C   UNL     1      30.537  38.478  13.039  1.00  0.00     0.180 C 
ATOM     21  C   UNL     1      29.387  38.593  14.019  1.00  0.00     0.202 C 
BRANCH  17  22
ATOM     22  C   UNL     1      31.377  42.168  13.187  1.00  0.00     0.191 C 
BRANCH  22  23
ATOM     23  O   UNL     1      32.718  42.323  12.825  1.00  0.00    -0.394 OA
ATOM     24  H   UNL     1      33.318  41.736  13.313  1.00  0.00     0.210 HD
ENDBRANCH  22  23
ENDBRANCH  17  22
BRANCH  19  25
ATOM     25  O   UNL     1      28.544  39.845  15.784  1.00  0.00    -0.350 OA
BRANCH  25  26
ATOM     26  C   UNL     1      27.618  40.377  14.925  1.00  0.00     0.169 C 
BRANCH  26  27
ATOM     27  C   UNL     1      26.209  39.993  15.279  1.00  0.00     0.119 C 
BRANCH  27  28
ATOM     28  N   UNL     1      25.705  38.893  14.492  1.00  0.00    -0.092 NA
ATOM     29  N   UNL     1      25.967  37.737  14.851  1.00  0.00     0.001 N 
ATOM     30  N   UNL     1      26.236  36.531  15.054  1.00  0.00    -0.003 NA
ENDBRANCH  27  28
ENDBRANCH  26  27
ENDBRANCH  25  26
ENDBRANCH  19  25
BRANCH  20  31
ATOM     31  O   UNL     1      30.295  37.631  11.991  1.00  0.00    -0.387 OA
ATOM     32  H   UNL     1      29.685  38.039  11.312  1.00  0.00     0.211 HD
ENDBRANCH  20  31
BRANCH  21  33
ATOM     33  O   UNL     1      29.209  37.340  14.600  1.00  0.00    -0.385 OA
ATOM     34  H   UNL     1      30.052  37.134  15.099  1.00  0.00     0.211 HD
ENDBRANCH  21  33
ENDBRANCH  15  16
ENDBRANCH  10  15
BRANCH  12  35
ATOM     35  O   UNL     1      33.244  40.521   9.102  1.00  0.00    -0.385 OA
ATOM     36  H   UNL     1      33.867  39.992   9.659  1.00  0.00     0.211 HD
ENDBRANCH  12  35
BRANCH  13  37
ATOM     37  O   UNL     1      31.755  39.024   6.972  1.00  0.00    -0.387 OA
ATOM     38  H   UNL     1      31.015  38.426   6.753  1.00  0.00     0.211 HD
ENDBRANCH  13  37
BRANCH  14  39
ATOM     39  O   UNL     1      29.453  38.828   8.108  1.00  0.00    -0.387 OA
ATOM     40  H   UNL     1      29.636  38.573   9.033  1.00  0.00     0.211 HD
ENDBRANCH  14  39
ENDBRANCH   8   9
ENDBRANCH   7   8
ENDBRANCH   1   7
BRANCH   1  41
ATOM     41  C   UNL     1      25.461  39.648   6.980  1.00  0.00     0.364 C 
ATOM     42  O   UNL     1      26.055  40.094   5.941  1.00  0.00    -0.246 OA
BRANCH  41  43
ATOM     43  O   UNL     1      24.194  39.156   6.819  1.00  0.00    -0.477 OA
ATOM     44  H   UNL     1      23.669  38.923   7.679  1.00  0.00     0.296 HD
ENDBRANCH  41  43
ENDBRANCH   1  41
BRANCH   3  45
ATOM     45  O   UNL     1      25.499  39.228  11.465  1.00  0.00    -0.391 OA
ATOM     46  H   UNL     1      26.223  39.887  11.345  1.00  0.00     0.211 HD
ENDBRANCH   3  45
BRANCH   5  47
ATOM     47  C   UNL     1      27.233  36.866   9.976  1.00  0.00     0.176 C 
BRANCH  47  48
ATOM     48  O   UNL     1      27.934  38.045  10.395  1.00  0.00    -0.388 OA
ATOM     49  H   UNL     1      27.289  38.597  10.893  1.00  0.00     0.211 HD
ENDBRANCH  47  48
BRANCH  47  50
ATOM     50  C   UNL     1      26.907  36.153  11.221  1.00  0.00     0.165 C 
BRANCH  50  51
ATOM     51  O   UNL     1      27.297  37.124  12.243  1.00  0.00    -0.388 OA
ATOM     52  H   UNL     1      28.239  37.401  12.031  1.00  0.00     0.211 HD
ENDBRANCH  50  51
BRANCH  50  53
ATOM     53  C   UNL     1      27.699  34.950  11.583  1.00  0.00     0.154 C 
BRANCH  53  54
ATOM     54  N   UNL     1      28.054  34.792  12.956  1.00  0.00    -0.319 N 
ATOM     55  C   UNL     1      29.424  34.563  13.315  1.00  0.00     0.407 C 
ATOM     56  H   UNL     1      27.377  34.838  13.726  1.00  0.00     0.167 HD
ATOM     57  O   UNL     1      30.258  34.514  12.381  1.00  0.00    -0.225 OA
BRANCH  55  58
ATOM     58  O   UNL     1      29.845  34.403  14.603  1.00  0.00    -0.443 OA
BRANCH  58  59
ATOM     59  C   UNL     1      31.177  33.945  14.917  1.00  0.00     0.294 C 
BRANCH  59  60
ATOM     60  C   UNL     1      31.971  35.092  15.442  1.00  0.00     0.120 A 
ATOM     61  C   UNL     1      32.628  35.161  16.649  1.00  0.00     0.138 A 
ATOM     62  N   UNL     1      32.188  36.266  14.841  1.00  0.00    -0.132 NA
ATOM     63  N   UNL     1      33.234  36.376  16.762  1.00  0.00    -0.248 N 
ATOM     64  N   UNL     1      32.947  37.025  15.644  1.00  0.00    -0.067 NA
BRANCH  63  65
ATOM     65  C   UNL     1      34.008  36.838  17.878  1.00  0.00     0.181 C 
BRANCH  65  66
ATOM     66  C   UNL     1      35.327  36.165  17.873  1.00  0.00    -0.025 A 
ATOM     67  C   UNL     1      35.901  35.626  18.994  1.00  0.00     0.006 A 
ATOM     68  C   UNL     1      36.034  36.070  16.679  1.00  0.00     0.025 A 
ATOM     69  C   UNL     1      37.124  35.010  18.981  1.00  0.00     0.002 A 
ATOM     70  C   UNL     1      37.260  35.452  16.665  1.00  0.00     0.052 A 
ATOM     71  C   UNL     1      37.851  34.902  17.803  1.00  0.00     0.019 A 
BRANCH  70  72
ATOM     72  C   UNL     1      37.983  35.353  15.424  1.00  0.00     0.099 C 
ATOM     73  N   UNL     1      38.583  35.271  14.424  1.00  0.00    -0.192 NA
ENDBRANCH  70  72
ENDBRANCH  65  66
ENDBRANCH  63  65
ENDBRANCH  59  60
ENDBRANCH  58  59
ENDBRANCH  55  58
ENDBRANCH  53  54
ENDBRANCH  50  53
ENDBRANCH  47  50
ENDBRANCH   5  47
BRANCH   4  74
ATOM     74  N   UNL     1      23.623  37.280   9.109  1.00  0.00    -0.348 N 
ATOM     75  C   UNL     1      23.028  36.022   9.342  1.00  0.00     0.217 C 
ATOM     76  H   UNL     1      23.143  37.896   8.425  1.00  0.00     0.163 HD
ATOM     77  C   UNL     1      21.784  35.574   8.655  1.00  0.00     0.114 C 
ATOM     78  O   UNL     1      23.564  35.250  10.154  1.00  0.00    -0.275 OA
ENDBRANCH   4  74
TORSDOF 32
BEGIN_RES LYS A 131
REMARK  4 active torsions:
REMARK  status: ('A' for Active; 'I' for Inactive)
REMARK    1  A    between atoms: CA   and  CB  
REMARK    2  A    between atoms: CB   and  CG  
REMARK    3  A    between atoms: CG   and  CD  
REMARK    4  A    between atoms: CD   and  CE  
ROOT
ATOM      1  CA  LYS A 131      29.867  25.555  16.977  1.00 20.52     0.186 C 
ENDROOT
BRANCH   1   2
ATOM      2  CB  LYS A 131      28.345  25.722  17.026  1.00 20.94     0.034 C 
BRANCH   2   3
ATOM      3  CG  LYS A 131      27.601  24.402  16.894  1.00 22.96     0.005 C 
BRANCH   3   4
ATOM      4  CD  LYS A 131      26.489  24.276  17.899  1.00 24.33     0.041 C 
BRANCH   4   5
ATOM      5  CE  LYS A 131      25.166  24.655  17.243  1.00 26.91     0.338 C 
ATOM      6  NZ  LYS A 131      24.556  25.813  17.937  1.00 27.40     0.618 N 
ENDBRANCH   4   5
ENDBRANCH   3   4
ENDBRANCH   2   3
ENDBRANCH   1   2
END_RES LYS A 131
BEGIN_RES LYS A 135
REMARK  4 active torsions:
REMARK  status: ('A' for Active; 'I' for Inactive)
REMARK    5  A    between atoms: CA   and  CB  
REMARK    6  A    between atoms: CB   and  CG  
REMARK    7  A    between atoms: CG   and  CD  
REMARK    8  A    between atoms: CD   and  CE  
ROOT
ATOM      7  CA  LYS A 135      33.193  34.663   9.290  1.00 25.02     0.186 C 
ENDROOT
BRANCH   7   8
ATOM      8  CB  LYS A 135      32.060  35.360  10.034  1.00 26.63     0.034 C 
BRANCH   8   9
ATOM      9  CG  LYS A 135      30.835  35.591   9.187  1.00 29.45     0.005 C 
BRANCH   9  10
ATOM     10  CD  LYS A 135      30.166  34.270   8.839  1.00 32.00     0.041 C 
BRANCH  10  11
ATOM     11  CE  LYS A 135      28.867  34.511   8.094  1.00 34.25     0.338 C 
ATOM     12  NZ  LYS A 135      29.042  35.538   7.030  1.00 35.99     0.618 N 
ENDBRANCH  10  11
ENDBRANCH   9  10
ENDBRANCH   8   9
ENDBRANCH   7   8
END_RES LYS A 135
