REMARK VINA RESULT:    -4.483      3.560     11.200
REMARK INTER + INTRA:         -23.832
REMARK INTER:                 -11.733
REMARK INTRA:                 -12.099
REMARK UNBOUND:               -11.748
REMARK SMILES CC(=O)N[C@@H]1[C@@H](O)C[C@](OC[C@H]2O[C@@H](O[C@H]3[C@H](O)[C@@H](O)[C@H](OCCN=[N+]=[N-])O[C@@H]3CO)[C@H](O)[C@@H](O)[C@H]2O)(C(=O)O)O[C@H]1C(O)[C@H](O)CNC(=O)OCc1cn([C@@H](C)C(=O)OCc2ccccc2)nn1
REMARK SMILES IDX 43 1 42 2 9 3 8 4 41 5 6 6 5 7 10 8 11 9 12 10 14 11 13 12
REMARK SMILES IDX 32 13 34 14 36 15 15 16 16 17 29 18 28 19 21 20 17 21 19 22
REMARK SMILES IDX 30 23 31 24 22 26 23 27 24 28 25 29 26 30 27 31 18 32 20 34
REMARK SMILES IDX 33 36 35 38 37 40 38 42 39 43 40 44 7 46 4 48 2 49 1 51 3 52
REMARK SMILES IDX 44 53 45 55 46 56 47 58 48 59 49 60 50 62 51 63 52 64 53 65
REMARK SMILES IDX 54 66 69 67 55 68 68 69 56 70 57 71 58 72 59 73 60 74 61 75
REMARK SMILES IDX 62 76 63 77 67 78 64 79 66 80 65 81
REMARK H PARENT 31 25 18 33 20 35 33 37 35 39 37 41 40 45 7 47 4 50 44 54
REMARK H PARENT 46 57 48 61
REMARK Flexibility Score: inf
ROOT
ATOM      1  C   UNL     1      24.637  36.970  12.147  1.00  0.00     0.176 C 
ENDROOT
BRANCH   1   2
ATOM      2  C   UNL     1      25.334  35.835  12.788  1.00  0.00     0.178 C 
ATOM      3  C   UNL     1      27.493  35.994  11.915  1.00  0.00     0.272 C 
ATOM      4  C   UNL     1      27.271  34.716  11.203  1.00  0.00     0.113 C 
ATOM      5  O   UNL     1      26.657  36.025  13.087  1.00  0.00    -0.332 OA
ATOM      6  C   UNL     1      25.828  34.465  10.834  1.00  0.00     0.145 C 
ATOM      7  C   UNL     1      25.010  34.541  12.088  1.00  0.00     0.142 C 
BRANCH   3   8
ATOM      8  O   UNL     1      27.303  37.148  11.328  1.00  0.00    -0.338 OA
BRANCH   8   9
ATOM      9  C   UNL     1      27.948  37.796  10.402  1.00  0.00     0.199 C 
BRANCH   9  10
ATOM     10  C   UNL     1      27.274  38.454   9.231  1.00  0.00     0.179 C 
ATOM     11  C   UNL     1      25.238  38.361   8.107  1.00  0.00     0.282 C 
ATOM     12  O   UNL     1      26.220  37.687   8.830  1.00  0.00    -0.341 OA
ATOM     13  C   UNL     1      25.745  39.603   7.467  1.00  0.00     0.202 C 
ATOM     14  C   UNL     1      26.207  40.594   8.499  1.00  0.00     0.179 C 
ATOM     15  C   UNL     1      26.810  39.867   9.647  1.00  0.00     0.177 C 
BRANCH  11  16
ATOM     16  O   UNL     1      24.149  38.482   8.927  1.00  0.00    -0.341 OA
BRANCH  16  17
ATOM     17  C   UNL     1      22.938  38.270   8.338  1.00  0.00     0.184 C 
ATOM     18  C   UNL     1      21.847  38.450   9.363  1.00  0.00     0.178 C 
ATOM     19  O   UNL     1      20.612  38.087   8.814  1.00  0.00    -0.341 OA
ATOM     20  C   UNL     1      20.556  36.677   8.961  1.00  0.00     0.281 C 
ATOM     21  C   UNL     1      22.790  36.865   7.777  1.00  0.00     0.180 C 
ATOM     22  C   UNL     1      21.806  36.009   8.482  1.00  0.00     0.202 C 
BRANCH  18  23
ATOM     23  C   UNL     1      21.801  39.813   9.987  1.00  0.00     0.191 C 
BRANCH  23  24
ATOM     24  O   UNL     1      23.012  39.984  10.664  1.00  0.00    -0.394 OA
ATOM     25  H   UNL     1      22.897  40.092  11.638  1.00  0.00     0.210 HD
ENDBRANCH  23  24
ENDBRANCH  18  23
BRANCH  20  26
ATOM     26  O   UNL     1      19.415  36.245   8.363  1.00  0.00    -0.350 OA
BRANCH  26  27
ATOM     27  C   UNL     1      18.720  37.097   7.571  1.00  0.00     0.169 C 
BRANCH  27  28
ATOM     28  C   UNL     1      17.300  37.370   7.914  1.00  0.00     0.119 C 
BRANCH  28  29
ATOM     29  N   UNL     1      16.996  37.646   9.272  1.00  0.00    -0.092 NA
ATOM     30  N   UNL     1      17.445  38.623   9.860  1.00  0.00     0.001 N 
ATOM     31  N   UNL     1      17.725  39.677  10.460  1.00  0.00    -0.003 NA
ENDBRANCH  28  29
ENDBRANCH  27  28
ENDBRANCH  26  27
ENDBRANCH  20  26
BRANCH  21  32
ATOM     32  O   UNL     1      22.472  36.892   6.416  1.00  0.00    -0.387 OA
ATOM     33  H   UNL     1      23.127  36.417   5.857  1.00  0.00     0.211 HD
ENDBRANCH  21  32
BRANCH  22  34
ATOM     34  O   UNL     1      22.457  35.285   9.487  1.00  0.00    -0.385 OA
ATOM     35  H   UNL     1      23.202  34.796   9.046  1.00  0.00     0.211 HD
ENDBRANCH  22  34
ENDBRANCH  16  17
ENDBRANCH  11  16
BRANCH  13  36
ATOM     36  O   UNL     1      26.804  39.250   6.596  1.00  0.00    -0.385 OA
ATOM     37  H   UNL     1      26.632  39.789   5.765  1.00  0.00     0.211 HD
ENDBRANCH  13  36
BRANCH  14  38
ATOM     38  O   UNL     1      25.144  41.401   8.848  1.00  0.00    -0.387 OA
ATOM     39  H   UNL     1      24.594  41.665   8.061  1.00  0.00     0.211 HD
ENDBRANCH  14  38
BRANCH  15  40
ATOM     40  O   UNL     1      25.972  39.820  10.753  1.00  0.00    -0.387 OA
ATOM     41  H   UNL     1      25.786  38.858  10.983  1.00  0.00     0.211 HD
ENDBRANCH  15  40
ENDBRANCH   9  10
ENDBRANCH   8   9
ENDBRANCH   3   8
BRANCH   3  42
ATOM     42  C   UNL     1      28.842  35.901  12.601  1.00  0.00     0.364 C 
ATOM     43  O   UNL     1      29.250  34.837  13.086  1.00  0.00    -0.246 OA
BRANCH  42  44
ATOM     44  O   UNL     1      29.666  37.020  12.704  1.00  0.00    -0.477 OA
ATOM     45  H   UNL     1      30.658  36.973  12.913  1.00  0.00     0.296 HD
ENDBRANCH  42  44
ENDBRANCH   3  42
BRANCH   6  46
ATOM     46  O   UNL     1      25.366  35.319   9.838  1.00  0.00    -0.391 OA
ATOM     47  H   UNL     1      25.884  35.113   9.025  1.00  0.00     0.211 HD
ENDBRANCH   6  46
BRANCH   7  48
ATOM     48  N   UNL     1      25.328  33.389  12.922  1.00  0.00    -0.348 N 
ATOM     49  C   UNL     1      24.297  32.434  13.185  1.00  0.00     0.217 C 
ATOM     50  H   UNL     1      26.264  33.219  13.341  1.00  0.00     0.163 HD
ATOM     51  C   UNL     1      24.622  31.254  14.041  1.00  0.00     0.114 C 
ATOM     52  O   UNL     1      23.143  32.595  12.702  1.00  0.00    -0.275 OA
ENDBRANCH   7  48
ENDBRANCH   1   2
BRANCH   1  53
ATOM     53  O   UNL     1      23.311  36.574  11.849  1.00  0.00    -0.388 OA
ATOM     54  H   UNL     1      22.849  37.283  11.322  1.00  0.00     0.211 HD
ENDBRANCH   1  53
BRANCH   1  55
ATOM     55  C   UNL     1      24.451  38.182  13.074  1.00  0.00     0.165 C 
BRANCH  55  56
ATOM     56  O   UNL     1      25.618  38.592  13.637  1.00  0.00    -0.388 OA
ATOM     57  H   UNL     1      26.325  37.911  13.531  1.00  0.00     0.211 HD
ENDBRANCH  55  56
BRANCH  55  58
ATOM     58  C   UNL     1      23.312  37.962  14.016  1.00  0.00     0.154 C 
BRANCH  58  59
ATOM     59  N   UNL     1      23.687  37.063  15.071  1.00  0.00    -0.319 N 
ATOM     60  C   UNL     1      23.184  35.756  15.269  1.00  0.00     0.407 C 
ATOM     61  H   UNL     1      24.411  37.363  15.799  1.00  0.00     0.167 HD
ATOM     62  O   UNL     1      22.330  35.280  14.518  1.00  0.00    -0.225 OA
BRANCH  60  63
ATOM     63  O   UNL     1      23.642  34.957  16.329  1.00  0.00    -0.443 OA
BRANCH  63  64
ATOM     64  C   UNL     1      24.876  35.188  16.960  1.00  0.00     0.294 C 
BRANCH  64  65
ATOM     65  C   UNL     1      25.774  34.061  16.618  1.00  0.00     0.120 A 
ATOM     66  C   UNL     1      25.817  32.806  17.183  1.00  0.00     0.139 A 
ATOM     67  N   UNL     1      26.724  34.088  15.676  1.00  0.00    -0.132 NA
ATOM     68  N   UNL     1      26.800  32.092  16.568  1.00  0.00    -0.238 N 
ATOM     69  N   UNL     1      27.330  32.892  15.662  1.00  0.00    -0.066 NA
BRANCH  68  70
ATOM     70  C   UNL     1      27.109  30.733  16.939  1.00  0.00     0.215 C 
ATOM     71  C   UNL     1      27.942  30.048  15.872  1.00  0.00     0.046 C 
BRANCH  70  72
ATOM     72  C   UNL     1      27.849  30.701  18.251  1.00  0.00     0.331 C 
ATOM     73  O   UNL     1      27.647  29.757  19.033  1.00  0.00    -0.250 OA
BRANCH  72  74
ATOM     74  O   UNL     1      28.739  31.691  18.596  1.00  0.00    -0.459 OA
BRANCH  74  75
ATOM     75  C   UNL     1      30.139  31.574  18.543  1.00  0.00     0.268 C 
BRANCH  75  76
ATOM     76  C   UNL     1      30.763  32.385  17.477  1.00  0.00    -0.011 A 
ATOM     77  C   UNL     1      30.847  31.954  16.179  1.00  0.00     0.007 A 
ATOM     78  C   UNL     1      31.288  33.619  17.773  1.00  0.00     0.007 A 
ATOM     79  C   UNL     1      31.430  32.706  15.184  1.00  0.00     0.000 A 
ATOM     80  C   UNL     1      31.879  34.406  16.811  1.00  0.00     0.000 A 
ATOM     81  C   UNL     1      31.946  33.934  15.506  1.00  0.00     0.000 A 
ENDBRANCH  75  76
ENDBRANCH  74  75
ENDBRANCH  72  74
ENDBRANCH  70  72
ENDBRANCH  68  70
ENDBRANCH  64  65
ENDBRANCH  63  64
ENDBRANCH  60  63
ENDBRANCH  58  59
ENDBRANCH  55  58
ENDBRANCH   1  55
TORSDOF 34
BEGIN_RES LYS A 131
REMARK  4 active torsions:
REMARK  status: ('A' for Active; 'I' for Inactive)
REMARK    1  A    between atoms: CA   and  CB  
REMARK    2  A    between atoms: CB   and  CG  
REMARK    3  A    between atoms: CG   and  CD  
REMARK    4  A    between atoms: CD   and  CE  
ROOT
ATOM      1  CA  LYS A 131      29.867  25.555  16.977  1.00 20.52     0.186 C 
ENDROOT
BRANCH   1   2
ATOM      2  CB  LYS A 131      28.345  25.722  17.026  1.00 20.94     0.034 C 
BRANCH   2   3
ATOM      3  CG  LYS A 131      27.601  24.402  16.897  1.00 22.96     0.005 C 
BRANCH   3   4
ATOM      4  CD  LYS A 131      26.526  24.253  17.938  1.00 24.33     0.041 C 
BRANCH   4   5
ATOM      5  CE  LYS A 131      25.170  24.120  17.252  1.00 26.91     0.338 C 
ATOM      6  NZ  LYS A 131      24.406  25.385  17.363  1.00 27.40     0.618 N 
ENDBRANCH   4   5
ENDBRANCH   3   4
ENDBRANCH   2   3
ENDBRANCH   1   2
END_RES LYS A 131
BEGIN_RES LYS A 135
REMARK  4 active torsions:
REMARK  status: ('A' for Active; 'I' for Inactive)
REMARK    5  A    between atoms: CA   and  CB  
REMARK    6  A    between atoms: CB   and  CG  
REMARK    7  A    between atoms: CG   and  CD  
REMARK    8  A    between atoms: CD   and  CE  
ROOT
ATOM      7  CA  LYS A 135      33.193  34.663   9.290  1.00 25.02     0.186 C 
ENDROOT
BRANCH   7   8
ATOM      8  CB  LYS A 135      32.060  35.360  10.034  1.00 26.63     0.034 C 
BRANCH   8   9
ATOM      9  CG  LYS A 135      30.725  34.679   9.873  1.00 29.45     0.005 C 
BRANCH   9  10
ATOM     10  CD  LYS A 135      30.393  34.491   8.401  1.00 32.00     0.041 C 
BRANCH  10  11
ATOM     11  CE  LYS A 135      29.452  35.580   7.924  1.00 34.25     0.338 C 
ATOM     12  NZ  LYS A 135      28.085  35.040   7.681  1.00 35.99     0.618 N 
ENDBRANCH  10  11
ENDBRANCH   9  10
ENDBRANCH   8   9
ENDBRANCH   7   8
END_RES LYS A 135
