REMARK VINA RESULT:    -7.324      3.014      6.870
REMARK INTER + INTRA:         -20.947
REMARK INTER:                 -10.519
REMARK INTRA:                 -10.428
REMARK UNBOUND:                -1.206
REMARK SMILES CC(=O)N[C@@H]1[C@@H](O)C[C@](OC[C@H]2O[C@@H](O[C@H]3[C@H](O)[C@@H](O)[C@H](OCCN=[N+]=[N-])O[C@@H]3CO)[C@H](O)[C@@H](O)[C@H]2O)(C(=O)O)O[C@H]1C(O)[C@H](O)CNC(=O)OCc1cn(C2CCc3ccccc3NC2=O)nn1
REMARK SMILES IDX 43 1 42 2 9 3 8 4 41 5 6 6 5 7 10 8 11 9 12 10 14 11 13 12
REMARK SMILES IDX 32 13 34 14 36 15 15 16 16 17 29 18 28 19 21 20 17 21 19 22
REMARK SMILES IDX 30 23 31 24 22 26 23 27 24 28 25 29 26 30 27 31 18 32 20 34
REMARK SMILES IDX 33 36 35 38 37 40 38 42 39 43 40 44 7 46 4 48 2 49 1 51 3 52
REMARK SMILES IDX 44 53 45 55 46 56 47 58 48 59 49 60 50 62 51 63 52 64 53 65
REMARK SMILES IDX 54 66 69 67 55 68 68 69 56 70 57 71 66 73 65 74 67 75 64 77
REMARK SMILES IDX 59 78 63 79 60 80 62 81 61 82 58 83
REMARK H PARENT 31 25 18 33 20 35 33 37 35 39 37 41 40 45 7 47 4 50 44 54
REMARK H PARENT 46 57 48 61 65 76
REMARK Flexibility Score: 90.00
ROOT
ATOM      1  C   UNL     1      27.802  37.573   5.375  1.00  0.00     0.176 C 
ENDROOT
BRANCH   1   2
ATOM      2  C   UNL     1      28.989  37.200   6.285  1.00  0.00     0.178 C 
ATOM      3  C   UNL     1      28.737  35.888   8.261  1.00  0.00     0.272 C 
ATOM      4  C   UNL     1      29.087  37.050   9.099  1.00  0.00     0.113 C 
ATOM      5  O   UNL     1      28.869  36.027   6.878  1.00  0.00    -0.332 OA
ATOM      6  C   UNL     1      28.709  38.351   8.475  1.00  0.00     0.145 C 
ATOM      7  C   UNL     1      29.366  38.404   7.103  1.00  0.00     0.142 C 
BRANCH   3   8
ATOM      8  O   UNL     1      27.503  35.374   8.446  1.00  0.00    -0.338 OA
BRANCH   8   9
ATOM      9  C   UNL     1      26.835  35.373   9.589  1.00  0.00     0.199 C 
BRANCH   9  10
ATOM     10  C   UNL     1      25.461  35.843   9.787  1.00  0.00     0.179 C 
ATOM     11  C   UNL     1      24.347  37.685  10.634  1.00  0.00     0.282 C 
ATOM     12  O   UNL     1      25.573  37.226  10.155  1.00  0.00    -0.341 OA
ATOM     13  C   UNL     1      23.164  36.871  10.288  1.00  0.00     0.202 C 
ATOM     14  C   UNL     1      23.200  36.121   9.000  1.00  0.00     0.179 C 
ATOM     15  C   UNL     1      24.616  35.941   8.517  1.00  0.00     0.177 C 
BRANCH  11  16
ATOM     16  O   UNL     1      24.227  39.050  10.301  1.00  0.00    -0.341 OA
BRANCH  16  17
ATOM     17  C   UNL     1      22.922  39.455  10.205  1.00  0.00     0.184 C 
ATOM     18  C   UNL     1      22.653  40.541   9.197  1.00  0.00     0.178 C 
ATOM     19  O   UNL     1      21.265  40.691   9.159  1.00  0.00    -0.341 OA
ATOM     20  C   UNL     1      20.797  41.400  10.256  1.00  0.00     0.281 C 
ATOM     21  C   UNL     1      22.404  39.966  11.541  1.00  0.00     0.180 C 
ATOM     22  C   UNL     1      21.678  41.259  11.461  1.00  0.00     0.202 C 
BRANCH  18  23
ATOM     23  C   UNL     1      23.081  40.137   7.800  1.00  0.00     0.191 C 
BRANCH  23  24
ATOM     24  O   UNL     1      24.335  40.650   7.474  1.00  0.00    -0.394 OA
ATOM     25  H   UNL     1      24.832  40.978   8.253  1.00  0.00     0.210 HD
ENDBRANCH  23  24
ENDBRANCH  18  23
BRANCH  20  26
ATOM     26  O   UNL     1      19.493  41.013  10.505  1.00  0.00    -0.350 OA
BRANCH  26  27
ATOM     27  C   UNL     1      18.917  40.404   9.404  1.00  0.00     0.169 C 
BRANCH  27  28
ATOM     28  C   UNL     1      17.900  39.356   9.722  1.00  0.00     0.119 C 
BRANCH  28  29
ATOM     29  N   UNL     1      18.438  38.051   9.375  1.00  0.00    -0.092 NA
ATOM     30  N   UNL     1      19.347  37.519  10.037  1.00  0.00     0.001 N 
ATOM     31  N   UNL     1      19.850  36.942  11.012  1.00  0.00    -0.003 NA
ENDBRANCH  28  29
ENDBRANCH  27  28
ENDBRANCH  26  27
ENDBRANCH  20  26
BRANCH  21  32
ATOM     32  O   UNL     1      21.673  38.977  12.216  1.00  0.00    -0.387 OA
ATOM     33  H   UNL     1      22.146  38.111  12.112  1.00  0.00     0.211 HD
ENDBRANCH  21  32
BRANCH  22  34
ATOM     34  O   UNL     1      22.546  42.374  11.534  1.00  0.00    -0.385 OA
ATOM     35  H   UNL     1      23.260  42.329  10.870  1.00  0.00     0.211 HD
ENDBRANCH  22  34
ENDBRANCH  16  17
ENDBRANCH  11  16
BRANCH  13  36
ATOM     36  O   UNL     1      22.806  36.066  11.374  1.00  0.00    -0.385 OA
ATOM     37  H   UNL     1      21.828  35.896  11.354  1.00  0.00     0.211 HD
ENDBRANCH  13  36
BRANCH  14  38
ATOM     38  O   UNL     1      22.367  36.666   8.024  1.00  0.00    -0.387 OA
ATOM     39  H   UNL     1      22.708  36.330   7.154  1.00  0.00     0.211 HD
ENDBRANCH  14  38
BRANCH  15  40
ATOM     40  O   UNL     1      25.021  37.086   7.787  1.00  0.00    -0.387 OA
ATOM     41  H   UNL     1      24.592  37.848   8.232  1.00  0.00     0.211 HD
ENDBRANCH  15  40
ENDBRANCH   9  10
ENDBRANCH   8   9
ENDBRANCH   3   8
BRANCH   3  42
ATOM     42  C   UNL     1      29.805  34.849   8.525  1.00  0.00     0.364 C 
ATOM     43  O   UNL     1      29.550  33.784   9.037  1.00  0.00    -0.246 OA
BRANCH  42  44
ATOM     44  O   UNL     1      31.131  35.119   8.173  1.00  0.00    -0.477 OA
ATOM     45  H   UNL     1      31.767  34.398   7.873  1.00  0.00     0.296 HD
ENDBRANCH  42  44
ENDBRANCH   3  42
BRANCH   6  46
ATOM     46  O   UNL     1      27.311  38.357   8.335  1.00  0.00    -0.391 OA
ATOM     47  H   UNL     1      26.850  38.678   9.128  1.00  0.00     0.211 HD
ENDBRANCH   6  46
BRANCH   7  48
ATOM     48  N   UNL     1      30.765  38.600   7.288  1.00  0.00    -0.348 N 
ATOM     49  C   UNL     1      31.413  39.750   6.757  1.00  0.00     0.217 C 
ATOM     50  H   UNL     1      31.348  37.906   7.812  1.00  0.00     0.163 HD
ATOM     51  C   UNL     1      32.871  39.998   6.922  1.00  0.00     0.114 C 
ATOM     52  O   UNL     1      30.721  40.567   6.138  1.00  0.00    -0.275 OA
ENDBRANCH   7  48
ENDBRANCH   1   2
BRANCH   1  53
ATOM     53  O   UNL     1      26.708  36.759   5.684  1.00  0.00    -0.388 OA
ATOM     54  H   UNL     1      25.922  36.929   5.120  1.00  0.00     0.211 HD
ENDBRANCH   1  53
BRANCH   1  55
ATOM     55  C   UNL     1      27.379  38.990   5.515  1.00  0.00     0.165 C 
BRANCH  55  56
ATOM     56  O   UNL     1      26.115  39.177   6.060  1.00  0.00    -0.388 OA
ATOM     57  H   UNL     1      25.463  39.181   5.309  1.00  0.00     0.211 HD
ENDBRANCH  55  56
BRANCH  55  58
ATOM     58  C   UNL     1      27.469  39.833   4.285  1.00  0.00     0.154 C 
BRANCH  58  59
ATOM     59  N   UNL     1      27.480  41.247   4.505  1.00  0.00    -0.319 N 
ATOM     60  C   UNL     1      26.319  42.034   4.689  1.00  0.00     0.407 C 
ATOM     61  H   UNL     1      28.400  41.731   4.531  1.00  0.00     0.167 HD
ATOM     62  O   UNL     1      25.176  41.516   4.670  1.00  0.00    -0.225 OA
BRANCH  60  63
ATOM     63  O   UNL     1      26.454  43.387   4.893  1.00  0.00    -0.443 OA
BRANCH  63  64
ATOM     64  C   UNL     1      27.159  43.944   5.946  1.00  0.00     0.294 C 
BRANCH  64  65
ATOM     65  C   UNL     1      26.541  43.595   7.227  1.00  0.00     0.120 A 
ATOM     66  C   UNL     1      27.184  43.110   8.340  1.00  0.00     0.139 A 
ATOM     67  N   UNL     1      25.235  43.670   7.579  1.00  0.00    -0.132 NA
ATOM     68  N   UNL     1      26.277  42.904   9.328  1.00  0.00    -0.240 N 
ATOM     69  N   UNL     1      25.109  43.253   8.829  1.00  0.00    -0.066 NA
BRANCH  68  70
ATOM     70  C   UNL     1      26.548  42.394  10.683  1.00  0.00     0.198 C 
BRANCH  70  71
ATOM     71  C   UNL     1      27.004  40.993  10.519  1.00  0.00     0.042 CG0
ATOM     72  G   UNL     1      27.688  40.365  11.682  1.00  0.00     0.000 G0
ENDBRANCH  70  71
BRANCH  70  73
ATOM     73  C   UNL     1      27.508  43.330  11.275  1.00  0.00     0.249 C 
ATOM     74  N   UNL     1      28.917  43.232  11.413  1.00  0.00    -0.324 N 
ATOM     75  O   UNL     1      26.998  44.388  11.733  1.00  0.00    -0.272 OA
ATOM     76  H   UNL     1      29.474  44.108  11.511  1.00  0.00     0.170 HD
BRANCH  74  77
ATOM     77  C   UNL     1      29.638  41.981  11.426  1.00  0.00     0.044 A 
ATOM     78  C   UNL     1      29.147  40.687  11.548  1.00  0.00    -0.024 A 
ATOM     79  C   UNL     1      30.996  42.177  11.295  1.00  0.00     0.026 A 
ATOM     80  C   UNL     1      29.981  39.594  11.541  1.00  0.00     0.006 A 
ATOM     81  C   UNL     1      31.857  41.097  11.284  1.00  0.00     0.002 A 
ATOM     82  C   UNL     1      31.332  39.806  11.409  1.00  0.00     0.000 A 
BRANCH  78  83
ATOM     83  C   UNL     1      27.697  40.371  11.694  1.00  0.00     0.040 CG0
ATOM     84  G   UNL     1      27.002  40.977  10.525  1.00  0.00     0.000 G0
ENDBRANCH  78  83
ENDBRANCH  74  77
ENDBRANCH  70  73
ENDBRANCH  68  70
ENDBRANCH  64  65
ENDBRANCH  63  64
ENDBRANCH  60  63
ENDBRANCH  58  59
ENDBRANCH  55  58
ENDBRANCH   1  55
TORSDOF 30
BEGIN_RES LYS A 131
REMARK  4 active torsions:
REMARK  status: ('A' for Active; 'I' for Inactive)
REMARK    1  A    between atoms: CA   and  CB  
REMARK    2  A    between atoms: CB   and  CG  
REMARK    3  A    between atoms: CG   and  CD  
REMARK    4  A    between atoms: CD   and  CE  
ROOT
ATOM      1  CA  LYS A 131      29.867  25.555  16.977  1.00 20.52     0.186 C 
ENDROOT
BRANCH   1   2
ATOM      2  CB  LYS A 131      28.345  25.722  17.026  1.00 20.94     0.034 C 
BRANCH   2   3
ATOM      3  CG  LYS A 131      27.599  24.422  16.767  1.00 22.96     0.005 C 
BRANCH   3   4
ATOM      4  CD  LYS A 131      27.150  23.763  18.042  1.00 24.33     0.041 C 
BRANCH   4   5
ATOM      5  CE  LYS A 131      25.648  23.959  18.215  1.00 26.91     0.338 C 
ATOM      6  NZ  LYS A 131      25.030  24.382  16.936  1.00 27.40     0.618 N 
ENDBRANCH   4   5
ENDBRANCH   3   4
ENDBRANCH   2   3
ENDBRANCH   1   2
END_RES LYS A 131
BEGIN_RES LYS A 135
REMARK  4 active torsions:
REMARK  status: ('A' for Active; 'I' for Inactive)
REMARK    5  A    between atoms: CA   and  CB  
REMARK    6  A    between atoms: CB   and  CG  
REMARK    7  A    between atoms: CG   and  CD  
REMARK    8  A    between atoms: CD   and  CE  
ROOT
ATOM      7  CA  LYS A 135      33.193  34.663   9.290  1.00 25.02     0.186 C 
ENDROOT
BRANCH   7   8
ATOM      8  CB  LYS A 135      32.060  35.360  10.034  1.00 26.63     0.034 C 
BRANCH   8   9
ATOM      9  CG  LYS A 135      32.414  35.744  11.448  1.00 29.45     0.005 C 
BRANCH   9  10
ATOM     10  CD  LYS A 135      31.157  35.954  12.277  1.00 32.00     0.041 C 
BRANCH  10  11
ATOM     11  CE  LYS A 135      30.364  34.665  12.380  1.00 34.25     0.338 C 
ATOM     12  NZ  LYS A 135      29.053  34.893  13.049  1.00 35.99     0.618 N 
ENDBRANCH  10  11
ENDBRANCH   9  10
ENDBRANCH   8   9
ENDBRANCH   7   8
END_RES LYS A 135
