REMARK VINA RESULT:    -4.191      4.391      9.746
REMARK INTER + INTRA:         -22.119
REMARK INTER:                 -10.706
REMARK INTRA:                 -11.414
REMARK UNBOUND:               -11.069
REMARK SMILES COCC(C(N)=O)n1cc(COC(=O)NC[C@@H](O)C(O)[C@@H]2O[C@@](OC[C@H]3O[C@@H](O[C@H]4[C@H](O)[C@@H](O)[C@H](OCCN=[N+]=[N-])O[C@@H]4CO)[C@H](O)[C@@H](O)[C@H]3O)(C(=O)O)C[C@H](O)[C@H]2NC(C)=O)nn1
REMARK SMILES IDX 23 1 55 2 56 3 58 4 21 5 22 6 24 7 25 8 26 9 28 10 27 11
REMARK SMILES IDX 46 12 48 13 50 14 29 15 30 16 43 17 42 18 35 19 31 20 33 21
REMARK SMILES IDX 44 22 45 23 36 25 37 26 38 27 39 28 40 29 41 30 32 31 34 33
REMARK SMILES IDX 47 35 49 37 51 39 52 41 53 42 54 43 57 45 19 47 20 48 17 50
REMARK SMILES IDX 18 51 16 53 15 54 13 55 14 57 12 58 11 59 10 60 9 61 63 62
REMARK SMILES IDX 8 63 64 64 4 65 3 66 2 67 1 68 5 69 7 70 6 71 59 74 60 75
REMARK SMILES IDX 61 77 62 78
REMARK H PARENT 45 24 32 32 34 34 47 36 49 38 51 40 54 44 57 46 20 49 18 52
REMARK H PARENT 15 56 6 72 6 73 59 76
REMARK Flexibility Score: inf
ROOT
ATOM      1  C   UNL     1      24.014  37.045   8.609  1.00  0.00     0.272 C 
ATOM      2  C   UNL     1      23.053  37.900   7.877  1.00  0.00     0.113 C 
ATOM      3  C   UNL     1      23.426  39.323   7.678  1.00  0.00     0.145 C 
ATOM      4  C   UNL     1      24.126  39.851   8.902  1.00  0.00     0.142 C 
ATOM      5  C   UNL     1      23.830  38.883  10.037  1.00  0.00     0.178 C 
ATOM      6  O   UNL     1      24.432  37.680   9.778  1.00  0.00    -0.332 OA
ENDROOT
BRANCH   1   7
ATOM      7  O   UNL     1      25.137  36.643   7.941  1.00  0.00    -0.338 OA
BRANCH   7   8
ATOM      8  C   UNL     1      26.251  36.374   8.665  1.00  0.00     0.199 C 
BRANCH   8   9
ATOM      9  C   UNL     1      27.242  35.480   7.906  1.00  0.00     0.179 C 
ATOM     10  C   UNL     1      29.218  36.678   7.666  1.00  0.00     0.282 C 
ATOM     11  O   UNL     1      28.051  36.207   7.079  1.00  0.00    -0.341 OA
ATOM     12  C   UNL     1      30.017  35.609   8.327  1.00  0.00     0.202 C 
ATOM     13  C   UNL     1      29.226  34.860   9.348  1.00  0.00     0.179 C 
ATOM     14  C   UNL     1      27.908  34.476   8.777  1.00  0.00     0.177 C 
BRANCH  10  15
ATOM     15  O   UNL     1      28.993  37.747   8.514  1.00  0.00    -0.341 OA
BRANCH  15  16
ATOM     16  C   UNL     1      29.211  38.957   7.857  1.00  0.00     0.184 C 
ATOM     17  C   UNL     1      30.122  39.899   8.548  1.00  0.00     0.178 C 
ATOM     18  O   UNL     1      30.430  40.982   7.763  1.00  0.00    -0.341 OA
ATOM     19  C   UNL     1      29.416  41.372   6.887  1.00  0.00     0.281 C 
ATOM     20  C   UNL     1      27.835  39.640   7.787  1.00  0.00     0.180 C 
ATOM     21  C   UNL     1      28.046  41.084   7.481  1.00  0.00     0.202 C 
BRANCH  17  22
ATOM     22  C   UNL     1      31.440  39.295   8.995  1.00  0.00     0.191 C 
BRANCH  22  23
ATOM     23  O   UNL     1      32.016  38.585   7.943  1.00  0.00    -0.394 OA
ATOM     24  H   UNL     1      32.538  39.167   7.343  1.00  0.00     0.210 HD
ENDBRANCH  22  23
ENDBRANCH  17  22
BRANCH  19  25
ATOM     25  O   UNL     1      29.611  40.800   5.680  1.00  0.00    -0.350 OA
BRANCH  25  26
ATOM     26  C   UNL     1      29.871  41.554   4.589  1.00  0.00     0.169 C 
BRANCH  26  27
ATOM     27  C   UNL     1      28.801  42.463   4.091  1.00  0.00     0.119 C 
BRANCH  27  28
ATOM     28  N   UNL     1      27.754  41.779   3.400  1.00  0.00    -0.092 NA
ATOM     29  N   UNL     1      26.938  41.108   4.026  1.00  0.00     0.001 N 
ATOM     30  N   UNL     1      25.859  40.836   4.577  1.00  0.00    -0.003 NA
ENDBRANCH  27  28
ENDBRANCH  26  27
ENDBRANCH  25  26
ENDBRANCH  19  25
BRANCH  20  31
ATOM     31  O   UNL     1      27.055  39.018   6.814  1.00  0.00    -0.387 OA
ATOM     32  H   UNL     1      27.338  38.075   6.796  1.00  0.00     0.211 HD
ENDBRANCH  20  31
BRANCH  21  33
ATOM     33  O   UNL     1      27.953  41.865   8.653  1.00  0.00    -0.385 OA
ATOM     34  H   UNL     1      27.902  41.256   9.446  1.00  0.00     0.211 HD
ENDBRANCH  21  33
ENDBRANCH  15  16
ENDBRANCH  10  15
BRANCH  12  35
ATOM     35  O   UNL     1      30.367  34.682   7.327  1.00  0.00    -0.385 OA
ATOM     36  H   UNL     1      30.723  35.140   6.537  1.00  0.00     0.211 HD
ENDBRANCH  12  35
BRANCH  13  37
ATOM     37  O   UNL     1      29.149  35.528  10.569  1.00  0.00    -0.387 OA
ATOM     38  H   UNL     1      28.982  34.832  11.261  1.00  0.00     0.211 HD
ENDBRANCH  13  37
BRANCH  14  39
ATOM     39  O   UNL     1      27.018  34.099   9.785  1.00  0.00    -0.387 OA
ATOM     40  H   UNL     1      26.287  33.536   9.415  1.00  0.00     0.211 HD
ENDBRANCH  14  39
ENDBRANCH   8   9
ENDBRANCH   7   8
ENDBRANCH   1   7
BRANCH   1  41
ATOM     41  C   UNL     1      23.247  35.842   9.098  1.00  0.00     0.364 C 
ATOM     42  O   UNL     1      22.292  35.372   8.452  1.00  0.00    -0.246 OA
BRANCH  41  43
ATOM     43  O   UNL     1      23.623  35.267  10.283  1.00  0.00    -0.477 OA
ATOM     44  H   UNL     1      23.373  34.325  10.540  1.00  0.00     0.296 HD
ENDBRANCH  41  43
ENDBRANCH   1  41
BRANCH   3  45
ATOM     45  O   UNL     1      24.147  39.565   6.513  1.00  0.00    -0.391 OA
ATOM     46  H   UNL     1      24.104  40.527   6.283  1.00  0.00     0.211 HD
ENDBRANCH   3  45
BRANCH   5  47
ATOM     47  C   UNL     1      24.365  39.447  11.338  1.00  0.00     0.176 C 
BRANCH  47  48
ATOM     48  O   UNL     1      23.389  39.761  12.234  1.00  0.00    -0.388 OA
ATOM     49  H   UNL     1      23.282  40.685  12.496  1.00  0.00     0.211 HD
ENDBRANCH  47  48
BRANCH  47  50
ATOM     50  C   UNL     1      25.353  38.492  11.950  1.00  0.00     0.165 C 
BRANCH  50  51
ATOM     51  O   UNL     1      24.592  37.417  12.473  1.00  0.00    -0.388 OA
ATOM     52  H   UNL     1      24.433  36.751  11.750  1.00  0.00     0.211 HD
ENDBRANCH  50  51
BRANCH  50  53
ATOM     53  C   UNL     1      26.130  39.047  13.096  1.00  0.00     0.154 C 
BRANCH  53  54
ATOM     54  N   UNL     1      27.118  38.187  13.658  1.00  0.00    -0.319 N 
ATOM     55  C   UNL     1      26.910  37.447  14.854  1.00  0.00     0.407 C 
ATOM     56  H   UNL     1      28.059  38.070  13.193  1.00  0.00     0.167 HD
ATOM     57  O   UNL     1      25.826  37.547  15.446  1.00  0.00    -0.225 OA
BRANCH  55  58
ATOM     58  O   UNL     1      27.896  36.608  15.383  1.00  0.00    -0.443 OA
BRANCH  58  59
ATOM     59  C   UNL     1      28.168  35.342  14.861  1.00  0.00     0.294 C 
BRANCH  59  60
ATOM     60  C   UNL     1      27.128  34.798  13.980  1.00  0.00     0.120 A 
ATOM     61  C   UNL     1      26.258  33.797  14.335  1.00  0.00     0.139 A 
ATOM     62  N   UNL     1      26.869  35.184  12.725  1.00  0.00    -0.132 NA
ATOM     63  N   UNL     1      25.480  33.594  13.270  1.00  0.00    -0.237 N 
ATOM     64  N   UNL     1      25.860  34.438  12.308  1.00  0.00    -0.066 NA
BRANCH  63  65
ATOM     65  C   UNL     1      24.408  32.619  13.189  1.00  0.00     0.223 C 
BRANCH  65  66
ATOM     66  C   UNL     1      24.341  31.878  14.484  1.00  0.00     0.197 C 
BRANCH  66  67
ATOM     67  O   UNL     1      24.762  30.578  14.356  1.00  0.00    -0.382 OA
ATOM     68  C   UNL     1      25.197  30.067  15.550  1.00  0.00     0.195 C 
ENDBRANCH  66  67
ENDBRANCH  65  66
BRANCH  65  69
ATOM     69  C   UNL     1      23.145  33.396  12.957  1.00  0.00     0.244 C 
ATOM     70  O   UNL     1      22.159  32.806  12.471  1.00  0.00    -0.273 OA
ATOM     71  N   UNL     1      23.112  34.772  13.297  1.00  0.00    -0.368 N 
ATOM     72  H   UNL     1      23.123  35.542  12.608  1.00  0.00     0.159 HD
ATOM     73  H   UNL     1      23.077  35.017  14.310  1.00  0.00     0.159 HD
ENDBRANCH  65  69
ENDBRANCH  63  65
ENDBRANCH  59  60
ENDBRANCH  58  59
ENDBRANCH  55  58
ENDBRANCH  53  54
ENDBRANCH  50  53
ENDBRANCH  47  50
ENDBRANCH   5  47
BRANCH   4  74
ATOM     74  N   UNL     1      23.685  41.207   9.218  1.00  0.00    -0.348 N 
ATOM     75  C   UNL     1      24.193  42.366   8.571  1.00  0.00     0.217 C 
ATOM     76  H   UNL     1      22.954  41.370   9.954  1.00  0.00     0.163 HD
ATOM     77  C   UNL     1      23.763  43.742   8.871  1.00  0.00     0.114 C 
ATOM     78  O   UNL     1      25.080  42.185   7.669  1.00  0.00    -0.275 OA
ENDBRANCH   4  74
TORSDOF 33
BEGIN_RES LYS A 131
REMARK  4 active torsions:
REMARK  status: ('A' for Active; 'I' for Inactive)
REMARK    1  A    between atoms: CA   and  CB  
REMARK    2  A    between atoms: CB   and  CG  
REMARK    3  A    between atoms: CG   and  CD  
REMARK    4  A    between atoms: CD   and  CE  
ROOT
ATOM      1  CA  LYS A 131      29.867  25.555  16.977  1.00 20.52     0.186 C 
ENDROOT
BRANCH   1   2
ATOM      2  CB  LYS A 131      28.345  25.722  17.026  1.00 20.94     0.034 C 
BRANCH   2   3
ATOM      3  CG  LYS A 131      27.601  24.401  16.906  1.00 22.96     0.005 C 
BRANCH   3   4
ATOM      4  CD  LYS A 131      26.142  24.540  17.238  1.00 24.33     0.041 C 
BRANCH   4   5
ATOM      5  CE  LYS A 131      25.897  24.065  18.667  1.00 26.91     0.338 C 
ATOM      6  NZ  LYS A 131      25.774  25.222  19.585  1.00 27.40     0.618 N 
ENDBRANCH   4   5
ENDBRANCH   3   4
ENDBRANCH   2   3
ENDBRANCH   1   2
END_RES LYS A 131
BEGIN_RES LYS A 135
REMARK  4 active torsions:
REMARK  status: ('A' for Active; 'I' for Inactive)
REMARK    5  A    between atoms: CA   and  CB  
REMARK    6  A    between atoms: CB   and  CG  
REMARK    7  A    between atoms: CG   and  CD  
REMARK    8  A    between atoms: CD   and  CE  
ROOT
ATOM      7  CA  LYS A 135      33.193  34.663   9.290  1.00 25.02     0.186 C 
ENDROOT
BRANCH   7   8
ATOM      8  CB  LYS A 135      32.060  35.360  10.034  1.00 26.63     0.034 C 
BRANCH   8   9
ATOM      9  CG  LYS A 135      32.390  35.683  11.468  1.00 29.45     0.005 C 
BRANCH   9  10
ATOM     10  CD  LYS A 135      32.042  37.129  11.787  1.00 32.00     0.041 C 
BRANCH  10  11
ATOM     11  CE  LYS A 135      31.500  37.248  13.198  1.00 34.25     0.338 C 
ATOM     12  NZ  LYS A 135      31.686  35.978  13.953  1.00 35.99     0.618 N 
ENDBRANCH  10  11
ENDBRANCH   9  10
ENDBRANCH   8   9
ENDBRANCH   7   8
END_RES LYS A 135
