REMARK VINA RESULT:    -4.826      4.137     10.503
REMARK INTER + INTRA:         -23.015
REMARK INTER:                 -10.936
REMARK INTRA:                 -12.079
REMARK UNBOUND:               -10.853
REMARK SMILES CC(=O)N[C@@H]1[C@@H](O)C[C@](OC[C@H]2O[C@@H](O[C@H]3[C@H](O)[C@@H](O)[C@H](OCCN=[N+]=[N-])O[C@@H]3CO)[C@H](O)[C@@H](O)[C@H]2O)(C(=O)O)O[C@H]1C(O)[C@H](O)CNC(=O)OCc1cn(-c2ncn3c2c(=O)n(C(C)C)c2ccccc23)nn1
REMARK SMILES IDX 9 1 8 2 6 3 5 4 42 5 41 6 10 7 11 8 12 9 14 10 13 11 32 12
REMARK SMILES IDX 34 13 36 14 15 15 16 16 29 17 28 18 21 19 17 20 19 21 30 22
REMARK SMILES IDX 31 23 22 25 23 26 24 27 25 28 26 29 27 30 18 31 20 33 33 35
REMARK SMILES IDX 35 37 37 39 38 41 39 42 40 43 7 45 43 47 44 48 45 50 46 51
REMARK SMILES IDX 47 53 48 54 49 55 50 57 51 58 52 59 53 60 54 61 74 62 55 63
REMARK SMILES IDX 73 64 56 65 57 66 60 67 58 68 59 69 61 70 72 71 63 72 62 73
REMARK SMILES IDX 71 74 67 75 70 76 68 77 69 78 64 79 65 80 66 81 4 82 2 83
REMARK SMILES IDX 1 85 3 86
REMARK H PARENT 31 24 18 32 20 34 33 36 35 38 37 40 40 44 7 46 44 49 46 52
REMARK H PARENT 48 56 4 84
REMARK Flexibility Score: inf
ROOT
ATOM      1  C   UNL     1      30.612  33.977  14.437  1.00  0.00     0.272 C 
ATOM      2  C   UNL     1      31.764  34.434  15.290  1.00  0.00     0.113 C 
ATOM      3  C   UNL     1      31.806  35.893  15.466  1.00  0.00     0.145 C 
ATOM      4  C   UNL     1      30.480  36.530  15.768  1.00  0.00     0.142 C 
ATOM      5  C   UNL     1      29.317  35.788  15.214  1.00  0.00     0.178 C 
ATOM      6  O   UNL     1      29.421  34.470  15.058  1.00  0.00    -0.332 OA
ENDROOT
BRANCH   1   7
ATOM      7  O   UNL     1      30.490  32.632  14.652  1.00  0.00    -0.338 OA
BRANCH   7   8
ATOM      8  C   UNL     1      30.991  31.938  15.633  1.00  0.00     0.199 C 
BRANCH   8   9
ATOM      9  C   UNL     1      30.232  31.097  16.601  1.00  0.00     0.179 C 
ATOM     10  C   UNL     1      29.210  31.397  18.672  1.00  0.00     0.282 C 
ATOM     11  O   UNL     1      29.923  32.001  17.670  1.00  0.00    -0.341 OA
ATOM     12  C   UNL     1      27.844  30.927  18.207  1.00  0.00     0.202 C 
ATOM     13  C   UNL     1      27.967  30.070  16.960  1.00  0.00     0.179 C 
ATOM     14  C   UNL     1      28.869  30.776  15.985  1.00  0.00     0.177 C 
BRANCH  10  15
ATOM     15  O   UNL     1      29.014  32.352  19.664  1.00  0.00    -0.341 OA
BRANCH  15  16
ATOM     16  C   UNL     1      29.900  32.183  20.696  1.00  0.00     0.184 C 
ATOM     17  C   UNL     1      29.489  32.987  21.876  1.00  0.00     0.178 C 
ATOM     18  O   UNL     1      30.118  34.195  22.038  1.00  0.00    -0.341 OA
ATOM     19  C   UNL     1      30.608  34.780  20.900  1.00  0.00     0.281 C 
ATOM     20  C   UNL     1      31.336  32.443  20.287  1.00  0.00     0.180 C 
ATOM     21  C   UNL     1      31.579  33.901  20.150  1.00  0.00     0.202 C 
BRANCH  17  22
ATOM     22  C   UNL     1      29.618  32.172  23.145  1.00  0.00     0.191 C 
BRANCH  22  23
ATOM     23  O   UNL     1      30.818  32.612  23.753  1.00  0.00    -0.394 OA
ATOM     24  H   UNL     1      31.060  31.919  24.409  1.00  0.00     0.210 HD
ENDBRANCH  22  23
ENDBRANCH  17  22
BRANCH  19  25
ATOM     25  O   UNL     1      31.347  35.908  21.298  1.00  0.00    -0.350 OA
BRANCH  25  26
ATOM     26  C   UNL     1      32.600  35.620  21.764  1.00  0.00     0.169 C 
BRANCH  26  27
ATOM     27  C   UNL     1      33.544  36.776  21.861  1.00  0.00     0.119 C 
BRANCH  27  28
ATOM     28  N   UNL     1      33.781  37.222  20.479  1.00  0.00    -0.092 NA
ATOM     29  N   UNL     1      34.177  36.492  19.595  1.00  0.00     0.001 N 
ATOM     30  N   UNL     1      34.831  35.921  18.716  1.00  0.00    -0.003 NA
ENDBRANCH  27  28
ENDBRANCH  26  27
ENDBRANCH  25  26
ENDBRANCH  19  25
BRANCH  20  31
ATOM     31  O   UNL     1      32.185  31.815  21.207  1.00  0.00    -0.387 OA
ATOM     32  H   UNL     1      32.356  32.508  21.911  1.00  0.00     0.211 HD
ENDBRANCH  20  31
BRANCH  21  33
ATOM     33  O   UNL     1      31.477  34.216  18.783  1.00  0.00    -0.385 OA
ATOM     34  H   UNL     1      31.090  35.120  18.644  1.00  0.00     0.211 HD
ENDBRANCH  21  33
ENDBRANCH  15  16
ENDBRANCH  10  15
BRANCH  12  35
ATOM     35  O   UNL     1      27.330  30.095  19.199  1.00  0.00    -0.385 OA
ATOM     36  H   UNL     1      28.039  29.681  19.745  1.00  0.00     0.211 HD
ENDBRANCH  12  35
BRANCH  13  37
ATOM     37  O   UNL     1      26.690  30.042  16.370  1.00  0.00    -0.387 OA
ATOM     38  H   UNL     1      26.599  30.789  15.717  1.00  0.00     0.211 HD
ENDBRANCH  13  37
BRANCH  14  39
ATOM     39  O   UNL     1      28.233  32.012  15.697  1.00  0.00    -0.387 OA
ATOM     40  H   UNL     1      27.592  31.899  14.955  1.00  0.00     0.211 HD
ENDBRANCH  14  39
ENDBRANCH   8   9
ENDBRANCH   7   8
ENDBRANCH   1   7
BRANCH   1  41
ATOM     41  C   UNL     1      30.625  34.477  13.069  1.00  0.00     0.364 C 
ATOM     42  O   UNL     1      29.620  34.757  12.415  1.00  0.00    -0.246 OA
BRANCH  41  43
ATOM     43  O   UNL     1      31.846  34.674  12.397  1.00  0.00    -0.477 OA
ATOM     44  H   UNL     1      32.030  34.165  11.542  1.00  0.00     0.296 HD
ENDBRANCH  41  43
ENDBRANCH   1  41
BRANCH   3  45
ATOM     45  O   UNL     1      32.698  36.149  16.540  1.00  0.00    -0.391 OA
ATOM     46  H   UNL     1      32.215  36.163  17.398  1.00  0.00     0.211 HD
ENDBRANCH   3  45
BRANCH   5  47
ATOM     47  C   UNL     1      28.030  36.098  15.958  1.00  0.00     0.176 C 
BRANCH  47  48
ATOM     48  O   UNL     1      27.767  37.448  15.893  1.00  0.00    -0.388 OA
ATOM     49  H   UNL     1      27.053  37.682  15.249  1.00  0.00     0.211 HD
ENDBRANCH  47  48
BRANCH  47  50
ATOM     50  C   UNL     1      27.998  35.618  17.367  1.00  0.00     0.165 C 
BRANCH  50  51
ATOM     51  O   UNL     1      28.756  34.516  17.656  1.00  0.00    -0.388 OA
ATOM     52  H   UNL     1      28.261  33.783  18.090  1.00  0.00     0.211 HD
ENDBRANCH  50  51
BRANCH  50  53
ATOM     53  C   UNL     1      26.614  35.458  17.919  1.00  0.00     0.154 C 
BRANCH  53  54
ATOM     54  N   UNL     1      25.640  35.294  16.834  1.00  0.00    -0.319 N 
ATOM     55  C   UNL     1      25.208  34.035  16.386  1.00  0.00     0.407 C 
ATOM     56  H   UNL     1      25.237  36.157  16.360  1.00  0.00     0.167 HD
ATOM     57  O   UNL     1      25.655  32.975  16.895  1.00  0.00    -0.225 OA
BRANCH  55  58
ATOM     58  O   UNL     1      24.262  33.989  15.352  1.00  0.00    -0.443 OA
BRANCH  58  59
ATOM     59  C   UNL     1      24.633  33.588  14.064  1.00  0.00     0.294 C 
BRANCH  59  60
ATOM     60  C   UNL     1      24.664  34.742  13.088  1.00  0.00     0.121 A 
ATOM     61  C   UNL     1      25.398  34.806  11.925  1.00  0.00     0.146 A 
ATOM     62  N   UNL     1      23.994  35.903  13.156  1.00  0.00    -0.131 NA
ATOM     63  N   UNL     1      25.161  36.001  11.307  1.00  0.00    -0.200 N 
ATOM     64  N   UNL     1      24.307  36.633  12.088  1.00  0.00    -0.060 NA
BRANCH  63  65
ATOM     65  C   UNL     1      25.739  36.429  10.074  1.00  0.00     0.186 A 
ATOM     66  N   UNL     1      25.247  36.144   8.856  1.00  0.00    -0.216 NA
ATOM     67  C   UNL     1      26.868  37.171   9.834  1.00  0.00     0.158 A 
ATOM     68  C   UNL     1      26.036  36.685   7.908  1.00  0.00     0.207 A 
ATOM     69  N   UNL     1      27.061  37.335   8.500  1.00  0.00    -0.291 N 
ATOM     70  C   UNL     1      27.758  37.724  10.718  1.00  0.00     0.279 A 
ATOM     71  C   UNL     1      28.108  38.029   8.022  1.00  0.00     0.071 A 
ATOM     72  N   UNL     1      28.825  38.430  10.264  1.00  0.00    -0.302 N 
ATOM     73  O   UNL     1      27.602  37.587  11.971  1.00  0.00    -0.267 OA
ATOM     74  C   UNL     1      28.307  38.191   6.677  1.00  0.00     0.029 A 
ATOM     75  C   UNL     1      28.989  38.573   8.931  1.00  0.00     0.068 A 
ATOM     76  C   UNL     1      29.404  38.910   6.178  1.00  0.00     0.002 A 
ATOM     77  C   UNL     1      30.067  39.281   8.434  1.00  0.00     0.028 A 
ATOM     78  C   UNL     1      30.291  39.459   7.074  1.00  0.00     0.002 A 
BRANCH  72  79
ATOM     79  C   UNL     1      29.771  39.027  11.208  1.00  0.00     0.085 C 
ATOM     80  C   UNL     1      29.132  39.953  12.190  1.00  0.00     0.031 C 
ATOM     81  C   UNL     1      30.691  38.002  11.822  1.00  0.00     0.031 C 
ENDBRANCH  72  79
ENDBRANCH  63  65
ENDBRANCH  59  60
ENDBRANCH  58  59
ENDBRANCH  55  58
ENDBRANCH  53  54
ENDBRANCH  50  53
ENDBRANCH  47  50
ENDBRANCH   5  47
BRANCH   4  82
ATOM     82  N   UNL     1      30.526  37.910  15.332  1.00  0.00    -0.348 N 
ATOM     83  C   UNL     1      30.875  38.984  16.182  1.00  0.00     0.217 C 
ATOM     84  H   UNL     1      30.291  38.148  14.338  1.00  0.00     0.163 HD
ATOM     85  C   UNL     1      30.917  40.402  15.719  1.00  0.00     0.114 C 
ATOM     86  O   UNL     1      31.160  38.713  17.385  1.00  0.00    -0.275 OA
ENDBRANCH   4  82
TORSDOF 31
BEGIN_RES LYS A 131
REMARK  4 active torsions:
REMARK  status: ('A' for Active; 'I' for Inactive)
REMARK    1  A    between atoms: CA   and  CB  
REMARK    2  A    between atoms: CB   and  CG  
REMARK    3  A    between atoms: CG   and  CD  
REMARK    4  A    between atoms: CD   and  CE  
ROOT
ATOM      1  CA  LYS A 131      29.867  25.555  16.977  1.00 20.52     0.186 C 
ENDROOT
BRANCH   1   2
ATOM      2  CB  LYS A 131      28.345  25.722  17.026  1.00 20.94     0.034 C 
BRANCH   2   3
ATOM      3  CG  LYS A 131      27.601  24.403  16.885  1.00 22.96     0.005 C 
BRANCH   3   4
ATOM      4  CD  LYS A 131      26.146  24.532  17.240  1.00 24.33     0.041 C 
BRANCH   4   5
ATOM      5  CE  LYS A 131      25.573  23.154  17.552  1.00 26.91     0.338 C 
ATOM      6  NZ  LYS A 131      24.162  23.065  17.106  1.00 27.40     0.618 N 
ENDBRANCH   4   5
ENDBRANCH   3   4
ENDBRANCH   2   3
ENDBRANCH   1   2
END_RES LYS A 131
BEGIN_RES LYS A 135
REMARK  4 active torsions:
REMARK  status: ('A' for Active; 'I' for Inactive)
REMARK    5  A    between atoms: CA   and  CB  
REMARK    6  A    between atoms: CB   and  CG  
REMARK    7  A    between atoms: CG   and  CD  
REMARK    8  A    between atoms: CD   and  CE  
ROOT
ATOM      7  CA  LYS A 135      33.193  34.663   9.290  1.00 25.02     0.186 C 
ENDROOT
BRANCH   7   8
ATOM      8  CB  LYS A 135      32.060  35.360  10.034  1.00 26.63     0.034 C 
BRANCH   8   9
ATOM      9  CG  LYS A 135      30.798  35.493   9.222  1.00 29.45     0.005 C 
BRANCH   9  10
ATOM     10  CD  LYS A 135      30.199  34.125   8.932  1.00 32.00     0.041 C 
BRANCH  10  11
ATOM     11  CE  LYS A 135      28.729  34.250   8.583  1.00 34.25     0.338 C 
ATOM     12  NZ  LYS A 135      27.874  33.618   9.625  1.00 35.99     0.618 N 
ENDBRANCH  10  11
ENDBRANCH   9  10
ENDBRANCH   8   9
ENDBRANCH   7   8
END_RES LYS A 135
