REMARK VINA RESULT:    -4.741      3.742      8.279
REMARK INTER + INTRA:         -22.868
REMARK INTER:                 -13.384
REMARK INTRA:                  -9.484
REMARK UNBOUND:               -11.198
REMARK SMILES CC(=O)N[C@@H]1[C@@H](O)C[C@](OC[C@H]2O[C@@H](O[C@H]3[C@H](O)[C@@H](O)[C@H](OCCN=[N+]=[N-])O[C@@H]3CO)[C@H](O)[C@@H](O)[C@H]2O)(C(=O)O)O[C@H]1C(O)[C@H](O)CNC(=O)OCc1cn(C23CC4CC(CC(C4)C2)C3)nn1
REMARK SMILES IDX 9 1 8 2 6 3 5 4 42 5 41 6 10 7 11 8 12 9 14 10 13 11 32 12
REMARK SMILES IDX 34 13 36 14 15 15 16 16 29 17 28 18 21 19 17 20 19 21 30 22
REMARK SMILES IDX 31 23 22 25 23 26 24 27 25 28 26 29 27 30 18 31 20 33 33 35
REMARK SMILES IDX 35 37 37 39 38 41 39 42 40 43 7 45 43 47 44 48 45 50 46 51
REMARK SMILES IDX 47 53 48 54 49 55 50 57 51 58 52 59 53 60 54 61 67 62 55 63
REMARK SMILES IDX 66 64 56 65 65 66 64 67 57 68 60 69 62 70 58 71 59 72 61 73
REMARK SMILES IDX 63 74 4 75 2 76 1 78 3 79
REMARK H PARENT 31 24 18 32 20 34 33 36 35 38 37 40 40 44 7 46 44 49 46 52
REMARK H PARENT 48 56 4 77
REMARK Flexibility Score: inf
ROOT
ATOM      1  C   UNL     1      23.790  32.624  16.331  1.00  0.00     0.272 C 
ATOM      2  C   UNL     1      23.880  31.138  16.262  1.00  0.00     0.113 C 
ATOM      3  C   UNL     1      24.393  30.695  14.906  1.00  0.00     0.145 C 
ATOM      4  C   UNL     1      23.218  30.922  13.944  1.00  0.00     0.142 C 
ATOM      5  C   UNL     1      22.698  32.291  14.265  1.00  0.00     0.178 C 
ATOM      6  O   UNL     1      23.545  33.091  14.990  1.00  0.00    -0.332 OA
ENDROOT
BRANCH   1   7
ATOM      7  O   UNL     1      24.871  33.292  16.711  1.00  0.00    -0.338 OA
BRANCH   7   8
ATOM      8  C   UNL     1      25.313  34.468  16.344  1.00  0.00     0.199 C 
BRANCH   8   9
ATOM      9  C   UNL     1      26.663  34.705  15.754  1.00  0.00     0.179 C 
ATOM     10  C   UNL     1      28.460  33.798  14.754  1.00  0.00     0.282 C 
ATOM     11  O   UNL     1      27.193  33.455  15.269  1.00  0.00    -0.341 OA
ATOM     12  C   UNL     1      28.225  34.176  13.328  1.00  0.00     0.202 C 
ATOM     13  C   UNL     1      26.901  34.914  13.265  1.00  0.00     0.179 C 
ATOM     14  C   UNL     1      26.609  35.644  14.554  1.00  0.00     0.177 C 
BRANCH  10  15
ATOM     15  O   UNL     1      29.370  32.764  14.938  1.00  0.00    -0.341 OA
BRANCH  15  16
ATOM     16  C   UNL     1      29.516  32.516  16.271  1.00  0.00     0.184 C 
ATOM     17  C   UNL     1      30.882  32.631  16.843  1.00  0.00     0.178 C 
ATOM     18  O   UNL     1      30.709  32.767  18.240  1.00  0.00    -0.341 OA
ATOM     19  C   UNL     1      30.283  31.546  18.814  1.00  0.00     0.281 C 
ATOM     20  C   UNL     1      29.041  31.109  16.650  1.00  0.00     0.180 C 
ATOM     21  C   UNL     1      29.068  31.010  18.136  1.00  0.00     0.202 C 
BRANCH  17  22
ATOM     22  C   UNL     1      31.750  33.701  16.296  1.00  0.00     0.191 C 
BRANCH  22  23
ATOM     23  O   UNL     1      32.168  33.296  15.018  1.00  0.00    -0.394 OA
ATOM     24  H   UNL     1      33.093  32.939  15.033  1.00  0.00     0.210 HD
ENDBRANCH  22  23
ENDBRANCH  17  22
BRANCH  19  25
ATOM     25  O   UNL     1      29.962  31.862  20.114  1.00  0.00    -0.350 OA
BRANCH  25  26
ATOM     26  C   UNL     1      30.889  31.601  21.054  1.00  0.00     0.169 C 
BRANCH  26  27
ATOM     27  C   UNL     1      31.691  30.374  20.759  1.00  0.00     0.119 C 
BRANCH  27  28
ATOM     28  N   UNL     1      31.312  29.285  21.667  1.00  0.00    -0.092 NA
ATOM     29  N   UNL     1      31.579  28.142  21.319  1.00  0.00     0.001 N 
ATOM     30  N   UNL     1      31.528  26.928  21.027  1.00  0.00    -0.003 NA
ENDBRANCH  27  28
ENDBRANCH  26  27
ENDBRANCH  25  26
ENDBRANCH  19  25
BRANCH  20  31
ATOM     31  O   UNL     1      27.739  30.878  16.209  1.00  0.00    -0.387 OA
ATOM     32  H   UNL     1      27.558  29.913  16.241  1.00  0.00     0.211 HD
ENDBRANCH  20  31
BRANCH  21  33
ATOM     33  O   UNL     1      28.927  29.661  18.457  1.00  0.00    -0.385 OA
ATOM     34  H   UNL     1      29.028  29.520  19.418  1.00  0.00     0.211 HD
ENDBRANCH  21  33
ENDBRANCH  15  16
ENDBRANCH  10  15
BRANCH  12  35
ATOM     35  O   UNL     1      29.237  34.878  12.724  1.00  0.00    -0.385 OA
ATOM     36  H   UNL     1      29.717  34.305  12.080  1.00  0.00     0.211 HD
ENDBRANCH  12  35
BRANCH  13  37
ATOM     37  O   UNL     1      25.846  34.089  12.898  1.00  0.00    -0.387 OA
ATOM     38  H   UNL     1      26.026  33.721  11.974  1.00  0.00     0.211 HD
ENDBRANCH  13  37
BRANCH  14  39
ATOM     39  O   UNL     1      25.320  36.151  14.474  1.00  0.00    -0.387 OA
ATOM     40  H   UNL     1      24.638  35.454  14.664  1.00  0.00     0.211 HD
ENDBRANCH  14  39
ENDBRANCH   8   9
ENDBRANCH   7   8
ENDBRANCH   1   7
BRANCH   1  41
ATOM     41  C   UNL     1      22.553  33.021  17.023  1.00  0.00     0.364 C 
ATOM     42  O   UNL     1      21.889  32.323  17.800  1.00  0.00    -0.246 OA
BRANCH  41  43
ATOM     43  O   UNL     1      22.107  34.346  16.743  1.00  0.00    -0.477 OA
ATOM     44  H   UNL     1      21.485  34.782  17.390  1.00  0.00     0.296 HD
ENDBRANCH  41  43
ENDBRANCH   1  41
BRANCH   3  45
ATOM     45  O   UNL     1      25.421  31.537  14.503  1.00  0.00    -0.391 OA
ATOM     46  H   UNL     1      25.018  32.237  13.929  1.00  0.00     0.211 HD
ENDBRANCH   3  45
BRANCH   5  47
ATOM     47  C   UNL     1      22.465  33.119  12.944  1.00  0.00     0.176 C 
BRANCH  47  48
ATOM     48  O   UNL     1      23.104  34.331  13.279  1.00  0.00    -0.388 OA
ATOM     49  H   UNL     1      22.479  35.041  12.991  1.00  0.00     0.211 HD
ENDBRANCH  47  48
BRANCH  47  50
ATOM     50  C   UNL     1      21.036  33.347  12.736  1.00  0.00     0.165 C 
BRANCH  50  51
ATOM     51  O   UNL     1      20.431  32.550  11.747  1.00  0.00    -0.388 OA
ATOM     52  H   UNL     1      21.113  32.334  11.043  1.00  0.00     0.211 HD
ENDBRANCH  50  51
BRANCH  50  53
ATOM     53  C   UNL     1      20.574  34.744  12.566  1.00  0.00     0.154 C 
BRANCH  53  54
ATOM     54  N   UNL     1      21.177  35.449  11.496  1.00  0.00    -0.319 N 
ATOM     55  C   UNL     1      20.762  35.514  10.158  1.00  0.00     0.407 C 
ATOM     56  H   UNL     1      22.082  36.009  11.761  1.00  0.00     0.167 HD
ATOM     57  O   UNL     1      19.761  34.894   9.766  1.00  0.00    -0.225 OA
BRANCH  55  58
ATOM     58  O   UNL     1      21.512  36.306   9.255  1.00  0.00    -0.443 OA
BRANCH  58  59
ATOM     59  C   UNL     1      22.476  37.178   9.791  1.00  0.00     0.294 C 
BRANCH  59  60
ATOM     60  C   UNL     1      23.795  36.527   9.772  1.00  0.00     0.120 A 
ATOM     61  C   UNL     1      24.858  36.908   8.994  1.00  0.00     0.138 A 
ATOM     62  N   UNL     1      24.212  35.467  10.488  1.00  0.00    -0.132 NA
ATOM     63  N   UNL     1      25.870  36.079   9.261  1.00  0.00    -0.246 N 
ATOM     64  N   UNL     1      25.451  35.219  10.167  1.00  0.00    -0.066 NA
BRANCH  63  65
ATOM     65  C   UNL     1      27.169  36.177   8.623  1.00  0.00     0.065 C 
ATOM     66  C   UNL     1      27.674  34.795   8.350  1.00  0.00     0.034 C 
ATOM     67  C   UNL     1      27.073  37.035   7.378  1.00  0.00     0.034 C 
ATOM     68  C   UNL     1      28.148  36.859   9.561  1.00  0.00     0.034 C 
ATOM     69  C   UNL     1      29.010  34.849   7.654  1.00  0.00    -0.008 C 
ATOM     70  C   UNL     1      28.395  37.022   6.668  1.00  0.00    -0.008 C 
ATOM     71  C   UNL     1      29.477  36.939   8.850  1.00  0.00    -0.008 C 
ATOM     72  C   UNL     1      29.996  35.560   8.548  1.00  0.00     0.007 C 
ATOM     73  C   UNL     1      28.830  35.620   6.367  1.00  0.00     0.007 C 
ATOM     74  C   UNL     1      29.409  37.716   7.565  1.00  0.00     0.007 C 
ENDBRANCH  63  65
ENDBRANCH  59  60
ENDBRANCH  58  59
ENDBRANCH  55  58
ENDBRANCH  53  54
ENDBRANCH  50  53
ENDBRANCH  47  50
ENDBRANCH   5  47
BRANCH   4  75
ATOM     75  N   UNL     1      22.196  29.912  14.242  1.00  0.00    -0.348 N 
ATOM     76  C   UNL     1      21.346  29.400  13.223  1.00  0.00     0.217 C 
ATOM     77  H   UNL     1      22.077  29.556  15.223  1.00  0.00     0.163 HD
ATOM     78  C   UNL     1      20.297  28.368  13.551  1.00  0.00     0.114 C 
ATOM     79  O   UNL     1      21.494  29.829  12.058  1.00  0.00    -0.275 OA
ENDBRANCH   4  75
TORSDOF 30
BEGIN_RES LYS A 131
REMARK  4 active torsions:
REMARK  status: ('A' for Active; 'I' for Inactive)
REMARK    1  A    between atoms: CA   and  CB  
REMARK    2  A    between atoms: CB   and  CG  
REMARK    3  A    between atoms: CG   and  CD  
REMARK    4  A    between atoms: CD   and  CE  
ROOT
ATOM      1  CA  LYS A 131      29.867  25.555  16.977  1.00 20.52     0.186 C 
ENDROOT
BRANCH   1   2
ATOM      2  CB  LYS A 131      28.345  25.722  17.026  1.00 20.94     0.034 C 
BRANCH   2   3
ATOM      3  CG  LYS A 131      27.602  24.400  16.913  1.00 22.96     0.005 C 
BRANCH   3   4
ATOM      4  CD  LYS A 131      26.632  24.197  18.045  1.00 24.33     0.041 C 
BRANCH   4   5
ATOM      5  CE  LYS A 131      25.309  24.878  17.709  1.00 26.91     0.338 C 
ATOM      6  NZ  LYS A 131      24.454  23.979  16.898  1.00 27.40     0.618 N 
ENDBRANCH   4   5
ENDBRANCH   3   4
ENDBRANCH   2   3
ENDBRANCH   1   2
END_RES LYS A 131
BEGIN_RES LYS A 135
REMARK  4 active torsions:
REMARK  status: ('A' for Active; 'I' for Inactive)
REMARK    5  A    between atoms: CA   and  CB  
REMARK    6  A    between atoms: CB   and  CG  
REMARK    7  A    between atoms: CG   and  CD  
REMARK    8  A    between atoms: CD   and  CE  
ROOT
ATOM      7  CA  LYS A 135      33.193  34.663   9.290  1.00 25.02     0.186 C 
ENDROOT
BRANCH   7   8
ATOM      8  CB  LYS A 135      32.060  35.360  10.034  1.00 26.63     0.034 C 
BRANCH   8   9
ATOM      9  CG  LYS A 135      32.448  35.841  11.408  1.00 29.45     0.005 C 
BRANCH   9  10
ATOM     10  CD  LYS A 135      32.074  37.305  11.590  1.00 32.00     0.041 C 
BRANCH  10  11
ATOM     11  CE  LYS A 135      31.505  37.541  12.975  1.00 34.25     0.338 C 
ATOM     12  NZ  LYS A 135      32.157  36.658  13.981  1.00 35.99     0.618 N 
ENDBRANCH  10  11
ENDBRANCH   9  10
ENDBRANCH   8   9
ENDBRANCH   7   8
END_RES LYS A 135
