REMARK VINA RESULT:    -5.047      2.958      9.821
REMARK INTER + INTRA:         -22.570
REMARK INTER:                 -10.920
REMARK INTRA:                 -11.650
REMARK UNBOUND:                -9.852
REMARK SMILES CC(=O)N[C@@H]1[C@@H](O)C[C@](OC[C@H]2O[C@@H](O[C@H]3[C@H](O)[C@@H](O)[C@H](OCCN=[N+]=[N-])O[C@@H]3CO)[C@H](O)[C@@H](O)[C@H]2O)(C(=O)O)O[C@H]1C(O)[C@H](O)CNC(=O)OCc1cn(Cc2ccc3c(c2)OCO3)nn1
REMARK SMILES IDX 9 1 8 2 6 3 5 4 42 5 41 6 10 7 11 8 12 9 14 10 13 11 32 12
REMARK SMILES IDX 34 13 36 14 15 15 16 16 29 17 28 18 21 19 17 20 19 21 30 22
REMARK SMILES IDX 31 23 22 25 23 26 24 27 25 28 26 29 27 30 18 31 20 33 33 35
REMARK SMILES IDX 35 37 37 39 38 41 39 42 40 43 7 45 43 47 44 48 45 50 46 51
REMARK SMILES IDX 47 53 48 54 49 55 50 57 51 58 52 59 53 60 54 61 67 62 55 63
REMARK SMILES IDX 66 64 56 65 57 66 58 67 62 68 59 69 61 70 60 71 63 72 65 73
REMARK SMILES IDX 64 74 4 75 2 76 1 78 3 79
REMARK H PARENT 31 24 18 32 20 34 33 36 35 38 37 40 40 44 7 46 44 49 46 52
REMARK H PARENT 48 56 4 77
REMARK Flexibility Score: inf
ROOT
ATOM      1  C   UNL     1      24.461  38.239   7.767  1.00  0.00     0.272 C 
ATOM      2  C   UNL     1      25.524  37.179   7.556  1.00  0.00     0.113 C 
ATOM      3  C   UNL     1      26.012  36.692   8.887  1.00  0.00     0.145 C 
ATOM      4  C   UNL     1      26.662  37.916   9.583  1.00  0.00     0.142 C 
ATOM      5  C   UNL     1      25.648  39.003   9.602  1.00  0.00     0.178 C 
ATOM      6  O   UNL     1      24.409  38.642   9.079  1.00  0.00    -0.332 OA
ENDROOT
BRANCH   1   7
ATOM      7  O   UNL     1      23.213  37.781   7.318  1.00  0.00    -0.338 OA
BRANCH   7   8
ATOM      8  C   UNL     1      22.184  37.846   8.196  1.00  0.00     0.199 C 
BRANCH   8   9
ATOM      9  C   UNL     1      21.892  36.428   8.713  1.00  0.00     0.179 C 
ATOM     10  C   UNL     1      21.643  35.200  10.642  1.00  0.00     0.282 C 
ATOM     11  O   UNL     1      22.100  36.385  10.066  1.00  0.00    -0.341 OA
ATOM     12  C   UNL     1      20.117  35.166  10.520  1.00  0.00     0.202 C 
ATOM     13  C   UNL     1      19.591  35.886   9.331  1.00  0.00     0.179 C 
ATOM     14  C   UNL     1      20.589  35.909   8.224  1.00  0.00     0.177 C 
BRANCH  10  15
ATOM     15  O   UNL     1      21.931  35.201  11.948  1.00  0.00    -0.341 OA
BRANCH  15  16
ATOM     16  C   UNL     1      22.764  34.271  12.493  1.00  0.00     0.184 C 
ATOM     17  C   UNL     1      22.075  33.249  13.354  1.00  0.00     0.178 C 
ATOM     18  O   UNL     1      22.430  33.323  14.660  1.00  0.00    -0.341 OA
ATOM     19  C   UNL     1      23.795  33.109  14.942  1.00  0.00     0.281 C 
ATOM     20  C   UNL     1      23.844  34.973  13.273  1.00  0.00     0.180 C 
ATOM     21  C   UNL     1      24.656  33.921  14.000  1.00  0.00     0.202 C 
BRANCH  17  22
ATOM     22  C   UNL     1      22.369  31.872  12.814  1.00  0.00     0.191 C 
BRANCH  22  23
ATOM     23  O   UNL     1      21.590  30.898  13.492  1.00  0.00    -0.394 OA
ATOM     24  H   UNL     1      21.262  31.223  14.362  1.00  0.00     0.210 HD
ENDBRANCH  22  23
ENDBRANCH  17  22
BRANCH  19  25
ATOM     25  O   UNL     1      24.095  31.785  14.993  1.00  0.00    -0.350 OA
BRANCH  25  26
ATOM     26  C   UNL     1      24.822  31.228  15.959  1.00  0.00     0.169 C 
BRANCH  26  27
ATOM     27  C   UNL     1      25.364  29.860  15.690  1.00  0.00     0.119 C 
BRANCH  27  28
ATOM     28  N   UNL     1      26.682  29.603  16.151  1.00  0.00    -0.092 NA
ATOM     29  N   UNL     1      26.951  29.008  17.191  1.00  0.00     0.001 N 
ATOM     30  N   UNL     1      27.031  28.774  18.410  1.00  0.00    -0.003 NA
ENDBRANCH  27  28
ENDBRANCH  26  27
ENDBRANCH  25  26
ENDBRANCH  19  25
BRANCH  20  31
ATOM     31  O   UNL     1      24.672  35.629  12.366  1.00  0.00    -0.387 OA
ATOM     32  H   UNL     1      24.916  35.043  11.604  1.00  0.00     0.211 HD
ENDBRANCH  20  31
BRANCH  21  33
ATOM     33  O   UNL     1      25.637  34.611  14.708  1.00  0.00    -0.385 OA
ATOM     34  H   UNL     1      25.363  35.558  14.836  1.00  0.00     0.211 HD
ENDBRANCH  21  33
ENDBRANCH  15  16
ENDBRANCH  10  15
BRANCH  12  35
ATOM     35  O   UNL     1      19.662  33.848  10.546  1.00  0.00    -0.385 OA
ATOM     36  H   UNL     1      18.798  33.790  10.986  1.00  0.00     0.211 HD
ENDBRANCH  12  35
BRANCH  13  37
ATOM     37  O   UNL     1      19.102  37.150   9.618  1.00  0.00    -0.387 OA
ATOM     38  H   UNL     1      18.139  37.179   9.384  1.00  0.00     0.211 HD
ENDBRANCH  13  37
BRANCH  14  39
ATOM     39  O   UNL     1      20.069  36.711   7.198  1.00  0.00    -0.387 OA
ATOM     40  H   UNL     1      20.814  37.031   6.653  1.00  0.00     0.211 HD
ENDBRANCH  14  39
ENDBRANCH   8   9
ENDBRANCH   7   8
ENDBRANCH   1   7
BRANCH   1  41
ATOM     41  C   UNL     1      24.760  39.398   6.906  1.00  0.00     0.364 C 
ATOM     42  O   UNL     1      24.035  40.399   6.838  1.00  0.00    -0.246 OA
BRANCH  41  43
ATOM     43  O   UNL     1      25.904  39.425   6.103  1.00  0.00    -0.477 OA
ATOM     44  H   UNL     1      25.815  39.483   5.074  1.00  0.00     0.296 HD
ENDBRANCH  41  43
ENDBRANCH   1  41
BRANCH   3  45
ATOM     45  O   UNL     1      25.066  36.233   9.757  1.00  0.00    -0.391 OA
ATOM     46  H   UNL     1      24.713  36.922  10.374  1.00  0.00     0.211 HD
ENDBRANCH   3  45
BRANCH   5  47
ATOM     47  C   UNL     1      25.309  39.392  11.061  1.00  0.00     0.176 C 
BRANCH  47  48
ATOM     48  O   UNL     1      25.980  40.500  11.482  1.00  0.00    -0.388 OA
ATOM     49  H   UNL     1      26.477  40.900  10.731  1.00  0.00     0.211 HD
ENDBRANCH  47  48
BRANCH  47  50
ATOM     50  C   UNL     1      23.886  39.370  11.410  1.00  0.00     0.165 C 
BRANCH  50  51
ATOM     51  O   UNL     1      23.146  40.481  10.982  1.00  0.00    -0.388 OA
ATOM     52  H   UNL     1      23.703  41.302  11.006  1.00  0.00     0.211 HD
ENDBRANCH  50  51
BRANCH  50  53
ATOM     53  C   UNL     1      23.545  39.137  12.857  1.00  0.00     0.154 C 
BRANCH  53  54
ATOM     54  N   UNL     1      24.724  38.521  13.490  1.00  0.00    -0.319 N 
ATOM     55  C   UNL     1      25.334  39.084  14.647  1.00  0.00     0.407 C 
ATOM     56  H   UNL     1      25.100  37.663  13.071  1.00  0.00     0.167 HD
ATOM     57  O   UNL     1      24.822  40.138  15.110  1.00  0.00    -0.225 OA
BRANCH  55  58
ATOM     58  O   UNL     1      26.434  38.533  15.259  1.00  0.00    -0.443 OA
BRANCH  58  59
ATOM     59  C   UNL     1      27.699  38.558  14.641  1.00  0.00     0.294 C 
BRANCH  59  60
ATOM     60  C   UNL     1      27.940  37.241  14.008  1.00  0.00     0.120 A 
ATOM     61  C   UNL     1      28.986  36.354  14.241  1.00  0.00     0.138 A 
ATOM     62  N   UNL     1      27.190  36.639  13.063  1.00  0.00    -0.132 NA
ATOM     63  N   UNL     1      28.830  35.276  13.448  1.00  0.00    -0.248 N 
ATOM     64  N   UNL     1      27.742  35.475  12.749  1.00  0.00    -0.067 NA
BRANCH  63  65
ATOM     65  C   UNL     1      29.703  34.141  13.403  1.00  0.00     0.181 C 
BRANCH  65  66
ATOM     66  C   UNL     1      29.979  33.532  14.724  1.00  0.00    -0.023 A 
ATOM     67  C   UNL     1      31.260  33.403  15.163  1.00  0.00     0.010 A 
ATOM     68  C   UNL     1      28.923  33.084  15.526  1.00  0.00     0.056 A 
ATOM     69  C   UNL     1      31.494  32.834  16.389  1.00  0.00     0.051 A 
ATOM     70  C   UNL     1      29.142  32.513  16.750  1.00  0.00     0.166 A 
ATOM     71  C   UNL     1      30.456  32.397  17.167  1.00  0.00     0.165 A 
ATOM     72  O   UNL     1      28.362  31.983  17.759  1.00  0.00    -0.454 OA
ATOM     73  O   UNL     1      30.478  31.795  18.432  1.00  0.00    -0.454 OA
ATOM     74  C   UNL     1      29.162  31.885  18.935  1.00  0.00     0.468 C 
ENDBRANCH  65  66
ENDBRANCH  63  65
ENDBRANCH  59  60
ENDBRANCH  58  59
ENDBRANCH  55  58
ENDBRANCH  53  54
ENDBRANCH  50  53
ENDBRANCH  47  50
ENDBRANCH   5  47
BRANCH   4  75
ATOM     75  N   UNL     1      27.845  38.176   8.813  1.00  0.00    -0.348 N 
ATOM     76  C   UNL     1      29.119  38.041   9.460  1.00  0.00     0.217 C 
ATOM     77  H   UNL     1      27.897  38.455   7.816  1.00  0.00     0.163 HD
ATOM     78  C   UNL     1      30.374  38.310   8.678  1.00  0.00     0.114 C 
ATOM     79  O   UNL     1      29.185  37.702  10.665  1.00  0.00    -0.275 OA
ENDBRANCH   4  75
TORSDOF 31
BEGIN_RES LYS A 131
REMARK  4 active torsions:
REMARK  status: ('A' for Active; 'I' for Inactive)
REMARK    1  A    between atoms: CA   and  CB  
REMARK    2  A    between atoms: CB   and  CG  
REMARK    3  A    between atoms: CG   and  CD  
REMARK    4  A    between atoms: CD   and  CE  
ROOT
ATOM      1  CA  LYS A 131      29.867  25.555  16.977  1.00 20.52     0.186 C 
ENDROOT
BRANCH   1   2
ATOM      2  CB  LYS A 131      28.345  25.722  17.026  1.00 20.94     0.034 C 
BRANCH   2   3
ATOM      3  CG  LYS A 131      27.602  24.397  16.942  1.00 22.96     0.005 C 
BRANCH   3   4
ATOM      4  CD  LYS A 131      26.157  24.533  17.334  1.00 24.33     0.041 C 
BRANCH   4   5
ATOM      5  CE  LYS A 131      25.708  23.273  18.067  1.00 26.91     0.338 C 
ATOM      6  NZ  LYS A 131      24.574  22.635  17.356  1.00 27.40     0.618 N 
ENDBRANCH   4   5
ENDBRANCH   3   4
ENDBRANCH   2   3
ENDBRANCH   1   2
END_RES LYS A 131
BEGIN_RES LYS A 135
REMARK  4 active torsions:
REMARK  status: ('A' for Active; 'I' for Inactive)
REMARK    5  A    between atoms: CA   and  CB  
REMARK    6  A    between atoms: CB   and  CG  
REMARK    7  A    between atoms: CG   and  CD  
REMARK    8  A    between atoms: CD   and  CE  
ROOT
ATOM      7  CA  LYS A 135      33.193  34.663   9.290  1.00 25.02     0.186 C 
ENDROOT
BRANCH   7   8
ATOM      8  CB  LYS A 135      32.060  35.360  10.034  1.00 26.63     0.034 C 
BRANCH   8   9
ATOM      9  CG  LYS A 135      30.734  34.654   9.910  1.00 29.45     0.005 C 
BRANCH   9  10
ATOM     10  CD  LYS A 135      30.333  34.518   8.450  1.00 32.00     0.041 C 
BRANCH  10  11
ATOM     11  CE  LYS A 135      28.823  34.532   8.308  1.00 34.25     0.338 C 
ATOM     12  NZ  LYS A 135      28.172  33.818   9.441  1.00 35.99     0.618 N 
ENDBRANCH  10  11
ENDBRANCH   9  10
ENDBRANCH   8   9
ENDBRANCH   7   8
END_RES LYS A 135
