REMARK VINA RESULT:    -4.909      3.548      6.210
REMARK INTER + INTRA:         -21.206
REMARK INTER:                 -10.848
REMARK INTRA:                 -10.358
REMARK UNBOUND:                -9.122
REMARK SMILES CC(=O)N[C@@H]1[C@@H](O)C[C@](OC[C@H]2O[C@@H](O[C@H]3[C@H](O)[C@@H](O)[C@H](OCCN=[N+]=[N-])O[C@@H]3CO)[C@H](O)[C@@H](O)[C@H]2O)(C(=O)O)O[C@H]1C(O)[C@H](O)CNC(=O)OCc1cn(-c2ccc(Cl)cc2)nn1
REMARK SMILES IDX 9 1 8 2 6 3 5 4 42 5 41 6 10 7 11 8 12 9 14 10 13 11 32 12
REMARK SMILES IDX 34 13 36 14 15 15 16 16 29 17 28 18 21 19 17 20 19 21 30 22
REMARK SMILES IDX 31 23 22 25 23 26 24 27 25 28 26 29 27 30 18 31 20 33 33 35
REMARK SMILES IDX 35 37 37 39 38 41 39 42 40 43 7 45 43 47 44 48 45 50 46 51
REMARK SMILES IDX 47 53 48 54 49 55 50 57 51 58 52 59 53 60 54 61 64 62 55 63
REMARK SMILES IDX 63 64 56 65 57 66 62 67 58 68 61 69 59 70 60 71 4 72 2 73
REMARK SMILES IDX 1 75 3 76
REMARK H PARENT 31 24 18 32 20 34 33 36 35 38 37 40 40 44 7 46 44 49 46 52
REMARK H PARENT 48 56 4 74
REMARK Flexibility Score: inf
ROOT
ATOM      1  C   UNL     1      24.357  35.877  12.949  1.00  0.00     0.272 C 
ATOM      2  C   UNL     1      23.839  36.526  14.166  1.00  0.00     0.113 C 
ATOM      3  C   UNL     1      24.713  37.416  14.950  1.00  0.00     0.145 C 
ATOM      4  C   UNL     1      26.012  37.662  14.214  1.00  0.00     0.142 C 
ATOM      5  C   UNL     1      26.458  36.262  13.737  1.00  0.00     0.178 C 
ATOM      6  O   UNL     1      25.650  36.124  12.567  1.00  0.00    -0.332 OA
ENDROOT
BRANCH   1   7
ATOM      7  O   UNL     1      23.495  36.248  11.880  1.00  0.00    -0.338 OA
BRANCH   7   8
ATOM      8  C   UNL     1      22.465  37.059  12.268  1.00  0.00     0.199 C 
BRANCH   8   9
ATOM      9  C   UNL     1      21.641  37.542  11.078  1.00  0.00     0.179 C 
ATOM     10  C   UNL     1      21.849  37.068   8.783  1.00  0.00     0.282 C 
ATOM     11  O   UNL     1      22.382  37.632   9.942  1.00  0.00    -0.341 OA
ATOM     12  C   UNL     1      21.632  35.633   9.028  1.00  0.00     0.202 C 
ATOM     13  C   UNL     1      20.632  35.459  10.163  1.00  0.00     0.179 C 
ATOM     14  C   UNL     1      20.378  36.729  10.911  1.00  0.00     0.177 C 
BRANCH  10  15
ATOM     15  O   UNL     1      22.778  37.413   7.803  1.00  0.00    -0.341 OA
BRANCH  15  16
ATOM     16  C   UNL     1      23.941  37.914   8.205  1.00  0.00     0.184 C 
ATOM     17  C   UNL     1      24.375  39.128   7.463  1.00  0.00     0.178 C 
ATOM     18  O   UNL     1      25.416  39.775   8.122  1.00  0.00    -0.341 OA
ATOM     19  C   UNL     1      26.541  39.041   8.310  1.00  0.00     0.281 C 
ATOM     20  C   UNL     1      25.128  36.932   8.117  1.00  0.00     0.180 C 
ATOM     21  C   UNL     1      26.398  37.645   7.821  1.00  0.00     0.202 C 
BRANCH  17  22
ATOM     22  C   UNL     1      23.319  40.135   7.132  1.00  0.00     0.191 C 
BRANCH  22  23
ATOM     23  O   UNL     1      22.426  40.333   8.184  1.00  0.00    -0.394 OA
ATOM     24  H   UNL     1      22.393  39.518   8.738  1.00  0.00     0.210 HD
ENDBRANCH  22  23
ENDBRANCH  17  22
BRANCH  19  25
ATOM     25  O   UNL     1      26.864  38.987   9.671  1.00  0.00    -0.350 OA
BRANCH  25  26
ATOM     26  C   UNL     1      27.903  39.850   9.984  1.00  0.00     0.169 C 
BRANCH  26  27
ATOM     27  C   UNL     1      29.022  39.840   8.989  1.00  0.00     0.119 C 
BRANCH  27  28
ATOM     28  N   UNL     1      29.709  38.558   9.133  1.00  0.00    -0.092 NA
ATOM     29  N   UNL     1      30.946  38.628   9.248  1.00  0.00     0.001 N 
ATOM     30  N   UNL     1      32.105  38.670   9.712  1.00  0.00    -0.003 NA
ENDBRANCH  27  28
ENDBRANCH  26  27
ENDBRANCH  25  26
ENDBRANCH  19  25
BRANCH  20  31
ATOM     31  O   UNL     1      25.216  36.313   9.352  1.00  0.00    -0.387 OA
ATOM     32  H   UNL     1      24.298  36.380   9.766  1.00  0.00     0.211 HD
ENDBRANCH  20  31
BRANCH  21  33
ATOM     33  O   UNL     1      26.744  37.587   6.456  1.00  0.00    -0.385 OA
ATOM     34  H   UNL     1      27.530  36.999   6.415  1.00  0.00     0.211 HD
ENDBRANCH  21  33
ENDBRANCH  15  16
ENDBRANCH  10  15
BRANCH  12  35
ATOM     35  O   UNL     1      21.167  34.899   7.935  1.00  0.00    -0.385 OA
ATOM     36  H   UNL     1      21.886  34.798   7.231  1.00  0.00     0.211 HD
ENDBRANCH  12  35
BRANCH  13  37
ATOM     37  O   UNL     1      21.074  34.414  10.972  1.00  0.00    -0.387 OA
ATOM     38  H   UNL     1      21.464  33.665  10.495  1.00  0.00     0.211 HD
ENDBRANCH  13  37
BRANCH  14  39
ATOM     39  O   UNL     1      19.959  36.424  12.230  1.00  0.00    -0.387 OA
ATOM     40  H   UNL     1      19.057  36.063  12.158  1.00  0.00     0.211 HD
ENDBRANCH  14  39
ENDBRANCH   8   9
ENDBRANCH   7   8
ENDBRANCH   1   7
BRANCH   1  41
ATOM     41  C   UNL     1      24.182  34.387  13.089  1.00  0.00     0.364 C 
ATOM     42  O   UNL     1      24.530  33.775  14.123  1.00  0.00    -0.246 OA
BRANCH  41  43
ATOM     43  O   UNL     1      23.626  33.678  12.054  1.00  0.00    -0.477 OA
ATOM     44  H   UNL     1      24.127  33.432  11.202  1.00  0.00     0.296 HD
ENDBRANCH  41  43
ENDBRANCH   1  41
BRANCH   3  45
ATOM     45  O   UNL     1      24.122  38.664  15.146  1.00  0.00    -0.391 OA
ATOM     46  H   UNL     1      23.833  38.720  16.077  1.00  0.00     0.211 HD
ENDBRANCH   3  45
BRANCH   5  47
ATOM     47  C   UNL     1      27.886  36.211  13.329  1.00  0.00     0.176 C 
BRANCH  47  48
ATOM     48  O   UNL     1      28.183  34.902  12.979  1.00  0.00    -0.388 OA
ATOM     49  H   UNL     1      27.792  34.219  13.577  1.00  0.00     0.211 HD
ENDBRANCH  47  48
BRANCH  47  50
ATOM     50  C   UNL     1      28.397  37.166  12.337  1.00  0.00     0.165 C 
BRANCH  50  51
ATOM     51  O   UNL     1      28.073  36.578  11.060  1.00  0.00    -0.388 OA
ATOM     52  H   UNL     1      27.102  36.645  10.900  1.00  0.00     0.211 HD
ENDBRANCH  50  51
BRANCH  50  53
ATOM     53  C   UNL     1      29.917  37.224  12.278  1.00  0.00     0.154 C 
BRANCH  53  54
ATOM     54  N   UNL     1      30.573  36.737  13.459  1.00  0.00    -0.319 N 
ATOM     55  C   UNL     1      31.930  36.335  13.372  1.00  0.00     0.407 C 
ATOM     56  H   UNL     1      30.099  36.658  14.391  1.00  0.00     0.167 HD
ATOM     57  O   UNL     1      32.573  36.379  12.280  1.00  0.00    -0.225 OA
BRANCH  55  58
ATOM     58  O   UNL     1      32.606  35.876  14.487  1.00  0.00    -0.443 OA
BRANCH  58  59
ATOM     59  C   UNL     1      32.911  34.492  14.675  1.00  0.00     0.294 C 
BRANCH  59  60
ATOM     60  C   UNL     1      31.669  33.730  14.995  1.00  0.00     0.121 A 
ATOM     61  C   UNL     1      31.470  32.969  16.138  1.00  0.00     0.144 A 
ATOM     62  N   UNL     1      30.547  33.637  14.268  1.00  0.00    -0.131 NA
ATOM     63  N   UNL     1      30.241  32.440  16.069  1.00  0.00    -0.220 N 
ATOM     64  N   UNL     1      29.717  32.852  14.951  1.00  0.00    -0.062 NA
BRANCH  63  65
ATOM     65  C   UNL     1      29.708  31.595  17.091  1.00  0.00     0.066 A 
ATOM     66  C   UNL     1      30.334  31.462  18.305  1.00  0.00     0.030 A 
ATOM     67  C   UNL     1      28.553  30.896  16.877  1.00  0.00     0.030 A 
ATOM     68  C   UNL     1      29.837  30.645  19.323  1.00  0.00     0.023 A 
ATOM     69  C   UNL     1      28.037  30.075  17.871  1.00  0.00     0.023 A 
ATOM     70  C   UNL     1      28.680  29.946  19.102  1.00  0.00     0.041 A 
ATOM     71  Cl  UNL     1      28.014  28.899  20.357  1.00  0.00    -0.084 Cl
ENDBRANCH  63  65
ENDBRANCH  59  60
ENDBRANCH  58  59
ENDBRANCH  55  58
ENDBRANCH  53  54
ENDBRANCH  50  53
ENDBRANCH  47  50
ENDBRANCH   5  47
BRANCH   4  72
ATOM     72  N   UNL     1      26.952  38.339  15.024  1.00  0.00    -0.348 N 
ATOM     73  C   UNL     1      27.229  39.731  14.781  1.00  0.00     0.217 C 
ATOM     74  H   UNL     1      27.469  37.919  15.813  1.00  0.00     0.163 HD
ATOM     75  C   UNL     1      28.214  40.476  15.617  1.00  0.00     0.114 C 
ATOM     76  O   UNL     1      26.618  40.305  13.844  1.00  0.00    -0.275 OA
ENDBRANCH   4  72
TORSDOF 30
BEGIN_RES LYS A 131
REMARK  4 active torsions:
REMARK  status: ('A' for Active; 'I' for Inactive)
REMARK    1  A    between atoms: CA   and  CB  
REMARK    2  A    between atoms: CB   and  CG  
REMARK    3  A    between atoms: CG   and  CD  
REMARK    4  A    between atoms: CD   and  CE  
ROOT
ATOM      1  CA  LYS A 131      29.867  25.555  16.977  1.00 20.52     0.186 C 
ENDROOT
BRANCH   1   2
ATOM      2  CB  LYS A 131      28.345  25.722  17.026  1.00 20.94     0.034 C 
BRANCH   2   3
ATOM      3  CG  LYS A 131      27.601  24.401  16.906  1.00 22.96     0.005 C 
BRANCH   3   4
ATOM      4  CD  LYS A 131      26.157  24.525  17.306  1.00 24.33     0.041 C 
BRANCH   4   5
ATOM      5  CE  LYS A 131      26.069  24.977  18.760  1.00 26.91     0.338 C 
ATOM      6  NZ  LYS A 131      25.205  26.175  18.879  1.00 27.40     0.618 N 
ENDBRANCH   4   5
ENDBRANCH   3   4
ENDBRANCH   2   3
ENDBRANCH   1   2
END_RES LYS A 131
BEGIN_RES LYS A 135
REMARK  4 active torsions:
REMARK  status: ('A' for Active; 'I' for Inactive)
REMARK    5  A    between atoms: CA   and  CB  
REMARK    6  A    between atoms: CB   and  CG  
REMARK    7  A    between atoms: CG   and  CD  
REMARK    8  A    between atoms: CD   and  CE  
ROOT
ATOM      7  CA  LYS A 135      33.193  34.663   9.290  1.00 25.02     0.186 C 
ENDROOT
BRANCH   7   8
ATOM      8  CB  LYS A 135      32.060  35.360  10.034  1.00 26.63     0.034 C 
BRANCH   8   9
ATOM      9  CG  LYS A 135      30.694  34.826   9.688  1.00 29.45     0.005 C 
BRANCH   9  10
ATOM     10  CD  LYS A 135      30.598  34.519   8.202  1.00 32.00     0.041 C 
BRANCH  10  11
ATOM     11  CE  LYS A 135      29.320  35.092   7.621  1.00 34.25     0.338 C 
ATOM     12  NZ  LYS A 135      28.122  34.555   8.325  1.00 35.99     0.618 N 
ENDBRANCH  10  11
ENDBRANCH   9  10
ENDBRANCH   8   9
ENDBRANCH   7   8
END_RES LYS A 135
