REMARK VINA RESULT:    -5.180      2.414      4.527
REMARK INTER + INTRA:         -26.462
REMARK INTER:                 -13.220
REMARK INTRA:                 -13.242
REMARK UNBOUND:               -12.046
REMARK SMILES CC(=O)N[C@@H]1[C@@H](O)C[C@](OC[C@H]2O[C@@H](O[C@H]3[C@H](O)[C@@H](O)[C@H](OCCN=[N+]=[N-])O[C@@H]3CO)[C@H](O)[C@@H](O)[C@H]2O)(C(=O)O)O[C@H]1C(O)[C@H](O)CNC(=O)OCc1cn(C[C@@H](C(=O)O)C(c2ccccc2)c2ccccc2)nn1
REMARK SMILES IDX 43 1 42 2 9 3 8 4 41 5 6 6 5 7 10 8 11 9 12 10 14 11 13 12
REMARK SMILES IDX 32 13 34 14 36 15 15 16 16 17 29 18 28 19 21 20 17 21 19 22
REMARK SMILES IDX 30 23 31 24 22 26 23 27 24 28 25 29 26 30 27 31 18 32 20 34
REMARK SMILES IDX 33 36 35 38 37 40 38 42 39 43 40 44 7 46 4 48 2 49 1 51 3 52
REMARK SMILES IDX 44 53 45 55 46 56 47 58 48 59 49 60 50 62 51 63 52 64 53 65
REMARK SMILES IDX 54 66 75 67 55 68 74 69 56 70 57 71 58 72 59 73 60 74 61 76
REMARK SMILES IDX 62 77 63 78 67 79 64 80 66 81 65 82 68 83 69 84 73 85 70 86
REMARK SMILES IDX 72 87 71 88
REMARK H PARENT 31 25 18 33 20 35 33 37 35 39 37 41 40 45 7 47 4 50 44 54
REMARK H PARENT 46 57 48 61 60 75
REMARK Flexibility Score: inf
ROOT
ATOM      1  C   UNL     1      31.865  27.561  21.134  1.00  0.00     0.176 C 
ENDROOT
BRANCH   1   2
ATOM      2  C   UNL     1      31.617  29.049  21.459  1.00  0.00     0.178 C 
ATOM      3  C   UNL     1      30.692  31.073  20.833  1.00  0.00     0.272 C 
ATOM      4  C   UNL     1      31.214  31.322  22.287  1.00  0.00     0.113 C 
ATOM      5  O   UNL     1      30.991  29.742  20.489  1.00  0.00    -0.332 OA
ATOM      6  C   UNL     1      32.660  30.992  22.425  1.00  0.00     0.145 C 
ATOM      7  C   UNL     1      32.940  29.613  21.920  1.00  0.00     0.142 C 
BRANCH   3   8
ATOM      8  O   UNL     1      31.177  31.996  20.072  1.00  0.00    -0.338 OA
BRANCH   8   9
ATOM      9  C   UNL     1      30.852  32.759  19.104  1.00  0.00     0.199 C 
BRANCH   9  10
ATOM     10  C   UNL     1      30.744  34.260  19.178  1.00  0.00     0.179 C 
ATOM     11  C   UNL     1      30.608  35.962  17.532  1.00  0.00     0.282 C 
ATOM     12  O   UNL     1      31.143  34.826  18.006  1.00  0.00    -0.341 OA
ATOM     13  C   UNL     1      29.645  36.730  18.350  1.00  0.00     0.202 C 
ATOM     14  C   UNL     1      29.170  36.047  19.600  1.00  0.00     0.179 C 
ATOM     15  C   UNL     1      29.240  34.578  19.332  1.00  0.00     0.177 C 
BRANCH  11  16
ATOM     16  O   UNL     1      29.908  35.572  16.352  1.00  0.00    -0.341 OA
BRANCH  16  17
ATOM     17  C   UNL     1      30.650  34.795  15.508  1.00  0.00     0.184 C 
ATOM     18  C   UNL     1      30.831  35.529  14.210  1.00  0.00     0.178 C 
ATOM     19  O   UNL     1      29.775  35.328  13.329  1.00  0.00    -0.341 OA
ATOM     20  C   UNL     1      28.561  35.036  13.968  1.00  0.00     0.281 C 
ATOM     21  C   UNL     1      29.974  33.467  15.194  1.00  0.00     0.180 C 
ATOM     22  C   UNL     1      28.582  33.708  14.644  1.00  0.00     0.202 C 
BRANCH  18  23
ATOM     23  C   UNL     1      32.122  35.228  13.503  1.00  0.00     0.191 C 
BRANCH  23  24
ATOM     24  O   UNL     1      31.939  34.651  12.262  1.00  0.00    -0.394 OA
ATOM     25  H   UNL     1      32.476  35.193  11.609  1.00  0.00     0.210 HD
ENDBRANCH  23  24
ENDBRANCH  18  23
BRANCH  20  26
ATOM     26  O   UNL     1      27.568  35.020  13.016  1.00  0.00    -0.350 OA
BRANCH  26  27
ATOM     27  C   UNL     1      26.639  36.012  13.073  1.00  0.00     0.169 C 
BRANCH  27  28
ATOM     28  C   UNL     1      25.337  35.614  13.689  1.00  0.00     0.119 C 
BRANCH  28  29
ATOM     29  N   UNL     1      25.115  36.547  14.812  1.00  0.00    -0.092 NA
ATOM     30  N   UNL     1      25.875  36.443  15.778  1.00  0.00     0.001 N 
ATOM     31  N   UNL     1      26.526  36.258  16.804  1.00  0.00    -0.003 NA
ENDBRANCH  28  29
ENDBRANCH  27  28
ENDBRANCH  26  27
ENDBRANCH  20  26
BRANCH  21  32
ATOM     32  O   UNL     1      30.721  32.857  14.190  1.00  0.00    -0.387 OA
ATOM     33  H   UNL     1      30.453  31.924  14.024  1.00  0.00     0.211 HD
ENDBRANCH  21  32
BRANCH  22  34
ATOM     34  O   UNL     1      27.653  33.701  15.676  1.00  0.00    -0.385 OA
ATOM     35  H   UNL     1      27.211  34.608  15.673  1.00  0.00     0.211 HD
ENDBRANCH  22  34
ENDBRANCH  16  17
ENDBRANCH  11  16
BRANCH  13  36
ATOM     36  O   UNL     1      30.228  37.948  18.775  1.00  0.00    -0.385 OA
ATOM     37  H   UNL     1      29.602  38.708  18.603  1.00  0.00     0.211 HD
ENDBRANCH  13  36
BRANCH  14  38
ATOM     38  O   UNL     1      27.879  36.436  19.893  1.00  0.00    -0.387 OA
ATOM     39  H   UNL     1      27.894  37.039  20.682  1.00  0.00     0.211 HD
ENDBRANCH  14  38
BRANCH  15  40
ATOM     40  O   UNL     1      28.555  34.301  18.157  1.00  0.00    -0.387 OA
ATOM     41  H   UNL     1      27.650  34.666  18.240  1.00  0.00     0.211 HD
ENDBRANCH  15  40
ENDBRANCH   9  10
ENDBRANCH   8   9
ENDBRANCH   3   8
BRANCH   3  42
ATOM     42  C   UNL     1      29.227  31.091  21.025  1.00  0.00     0.364 C 
ATOM     43  O   UNL     1      28.602  31.910  21.729  1.00  0.00    -0.246 OA
BRANCH  42  44
ATOM     44  O   UNL     1      28.436  30.119  20.375  1.00  0.00    -0.477 OA
ATOM     45  H   UNL     1      28.762  29.777  19.496  1.00  0.00     0.296 HD
ENDBRANCH  42  44
ENDBRANCH   3  42
BRANCH   6  46
ATOM     46  O   UNL     1      33.485  31.937  21.798  1.00  0.00    -0.391 OA
ATOM     47  H   UNL     1      32.968  32.570  21.246  1.00  0.00     0.211 HD
ENDBRANCH   6  46
BRANCH   7  48
ATOM     48  N   UNL     1      33.421  28.795  23.010  1.00  0.00    -0.348 N 
ATOM     49  C   UNL     1      34.775  28.840  23.423  1.00  0.00     0.217 C 
ATOM     50  H   UNL     1      32.736  28.153  23.501  1.00  0.00     0.163 HD
ATOM     51  C   UNL     1      35.281  27.991  24.556  1.00  0.00     0.114 C 
ATOM     52  O   UNL     1      35.542  29.621  22.803  1.00  0.00    -0.275 OA
ENDBRANCH   7  48
ENDBRANCH   1   2
BRANCH   1  53
ATOM     53  O   UNL     1      32.256  27.401  19.832  1.00  0.00    -0.388 OA
ATOM     54  H   UNL     1      32.878  26.653  19.684  1.00  0.00     0.211 HD
ENDBRANCH   1  53
BRANCH   1  55
ATOM     55  C   UNL     1      30.655  26.757  21.412  1.00  0.00     0.165 C 
BRANCH  55  56
ATOM     56  O   UNL     1      29.714  26.783  20.362  1.00  0.00    -0.388 OA
ATOM     57  H   UNL     1      29.942  25.973  19.807  1.00  0.00     0.211 HD
ENDBRANCH  55  56
BRANCH  55  58
ATOM     58  C   UNL     1      29.942  26.880  22.706  1.00  0.00     0.154 C 
BRANCH  58  59
ATOM     59  N   UNL     1      28.542  26.670  22.690  1.00  0.00    -0.319 N 
ATOM     60  C   UNL     1      27.542  27.639  22.924  1.00  0.00     0.407 C 
ATOM     61  H   UNL     1      28.191  25.658  22.472  1.00  0.00     0.167 HD
ATOM     62  O   UNL     1      27.799  28.818  23.222  1.00  0.00    -0.225 OA
BRANCH  60  63
ATOM     63  O   UNL     1      26.224  27.250  22.809  1.00  0.00    -0.443 OA
BRANCH  63  64
ATOM     64  C   UNL     1      25.366  27.806  21.877  1.00  0.00     0.294 C 
BRANCH  64  65
ATOM     65  C   UNL     1      25.900  27.873  20.509  1.00  0.00     0.120 A 
ATOM     66  C   UNL     1      25.402  28.523  19.406  1.00  0.00     0.138 A 
ATOM     67  N   UNL     1      27.028  27.242  20.056  1.00  0.00    -0.132 NA
ATOM     68  N   UNL     1      26.194  28.287  18.355  1.00  0.00    -0.251 N 
ATOM     69  N   UNL     1      27.172  27.507  18.778  1.00  0.00    -0.067 NA
BRANCH  68  70
ATOM     70  C   UNL     1      26.050  28.779  16.971  1.00  0.00     0.162 C 
BRANCH  70  71
ATOM     71  C   UNL     1      26.233  30.261  16.939  1.00  0.00     0.132 C 
BRANCH  71  72
ATOM     72  C   UNL     1      27.665  30.615  16.701  1.00  0.00     0.309 C 
ATOM     73  O   UNL     1      28.313  31.352  17.462  1.00  0.00    -0.252 OA
BRANCH  72  74
ATOM     74  O   UNL     1      28.313  30.107  15.589  1.00  0.00    -0.481 OA
ATOM     75  H   UNL     1      28.177  29.126  15.331  1.00  0.00     0.296 HD
ENDBRANCH  72  74
ENDBRANCH  71  72
BRANCH  71  76
ATOM     76  C   UNL     1      25.299  31.064  16.113  1.00  0.00     0.065 C 
BRANCH  76  77
ATOM     77  C   UNL     1      24.500  30.362  15.107  1.00  0.00    -0.040 A 
ATOM     78  C   UNL     1      23.448  29.512  15.482  1.00  0.00     0.004 A 
ATOM     79  C   UNL     1      24.716  30.469  13.731  1.00  0.00     0.004 A 
ATOM     80  C   UNL     1      22.685  28.837  14.584  1.00  0.00     0.000 A 
ATOM     81  C   UNL     1      23.939  29.781  12.831  1.00  0.00     0.000 A 
ATOM     82  C   UNL     1      22.914  28.956  13.248  1.00  0.00     0.000 A 
ENDBRANCH  76  77
BRANCH  76  83
ATOM     83  C   UNL     1      24.563  32.102  16.882  1.00  0.00    -0.040 A 
ATOM     84  C   UNL     1      23.986  33.122  16.155  1.00  0.00     0.004 A 
ATOM     85  C   UNL     1      24.439  32.067  18.245  1.00  0.00     0.004 A 
ATOM     86  C   UNL     1      23.282  34.113  16.776  1.00  0.00     0.000 A 
ATOM     87  C   UNL     1      23.718  33.084  18.865  1.00  0.00     0.000 A 
ATOM     88  C   UNL     1      23.140  34.105  18.144  1.00  0.00     0.000 A 
ENDBRANCH  76  83
ENDBRANCH  71  76
ENDBRANCH  70  71
ENDBRANCH  68  70
ENDBRANCH  64  65
ENDBRANCH  63  64
ENDBRANCH  60  63
ENDBRANCH  58  59
ENDBRANCH  55  58
ENDBRANCH   1  55
TORSDOF 36
BEGIN_RES LYS A 131
REMARK  4 active torsions:
REMARK  status: ('A' for Active; 'I' for Inactive)
REMARK    1  A    between atoms: CA   and  CB  
REMARK    2  A    between atoms: CB   and  CG  
REMARK    3  A    between atoms: CG   and  CD  
REMARK    4  A    between atoms: CD   and  CE  
ROOT
ATOM      1  CA  LYS A 131      29.867  25.555  16.977  1.00 20.52     0.186 C 
ENDROOT
BRANCH   1   2
ATOM      2  CB  LYS A 131      28.345  25.722  17.026  1.00 20.94     0.034 C 
BRANCH   2   3
ATOM      3  CG  LYS A 131      27.599  24.443  16.679  1.00 22.96     0.005 C 
BRANCH   3   4
ATOM      4  CD  LYS A 131      27.025  23.774  17.896  1.00 24.33     0.041 C 
BRANCH   4   5
ATOM      5  CE  LYS A 131      25.672  24.396  18.229  1.00 26.91     0.338 C 
ATOM      6  NZ  LYS A 131      24.764  24.318  17.061  1.00 27.40     0.618 N 
ENDBRANCH   4   5
ENDBRANCH   3   4
ENDBRANCH   2   3
ENDBRANCH   1   2
END_RES LYS A 131
BEGIN_RES LYS A 135
REMARK  4 active torsions:
REMARK  status: ('A' for Active; 'I' for Inactive)
REMARK    5  A    between atoms: CA   and  CB  
REMARK    6  A    between atoms: CB   and  CG  
REMARK    7  A    between atoms: CG   and  CD  
REMARK    8  A    between atoms: CD   and  CE  
ROOT
ATOM      7  CA  LYS A 135      33.193  34.663   9.290  1.00 25.02     0.186 C 
ENDROOT
BRANCH   7   8
ATOM      8  CB  LYS A 135      32.060  35.360  10.034  1.00 26.63     0.034 C 
BRANCH   8   9
ATOM      9  CG  LYS A 135      30.837  35.596   9.185  1.00 29.45     0.005 C 
BRANCH   9  10
ATOM     10  CD  LYS A 135      30.031  34.315   9.037  1.00 32.00     0.041 C 
BRANCH  10  11
ATOM     11  CE  LYS A 135      28.877  34.295  10.022  1.00 34.25     0.338 C 
ATOM     12  NZ  LYS A 135      27.645  33.746   9.392  1.00 35.99     0.618 N 
ENDBRANCH  10  11
ENDBRANCH   9  10
ENDBRANCH   8   9
ENDBRANCH   7   8
END_RES LYS A 135
