REMARK VINA RESULT:    -4.960      2.909      8.935
REMARK INTER + INTRA:         -21.332
REMARK INTER:                 -12.210
REMARK INTRA:                  -9.122
REMARK UNBOUND:                -9.122
REMARK SMILES CC(=O)N[C@@H]1[C@@H](O)C[C@](OC[C@H]2O[C@@H](O[C@H]3[C@H](O)[C@@H](O)[C@H](OCCN=[N+]=[N-])O[C@@H]3CO)[C@H](O)[C@@H](O)[C@H]2O)(C(=O)O)O[C@H]1C(O)[C@H](O)CNC(=O)OCc1cn(-c2ccc(Cl)cc2)nn1
REMARK SMILES IDX 9 1 8 2 6 3 5 4 42 5 41 6 10 7 11 8 12 9 14 10 13 11 32 12
REMARK SMILES IDX 34 13 36 14 15 15 16 16 29 17 28 18 21 19 17 20 19 21 30 22
REMARK SMILES IDX 31 23 22 25 23 26 24 27 25 28 26 29 27 30 18 31 20 33 33 35
REMARK SMILES IDX 35 37 37 39 38 41 39 42 40 43 7 45 43 47 44 48 45 50 46 51
REMARK SMILES IDX 47 53 48 54 49 55 50 57 51 58 52 59 53 60 54 61 64 62 55 63
REMARK SMILES IDX 63 64 56 65 57 66 62 67 58 68 61 69 59 70 60 71 4 72 2 73
REMARK SMILES IDX 1 75 3 76
REMARK H PARENT 31 24 18 32 20 34 33 36 35 38 37 40 40 44 7 46 44 49 46 52
REMARK H PARENT 48 56 4 74
REMARK Flexibility Score: inf
ROOT
ATOM      1  C   UNL     1      26.002  37.299   8.584  1.00  0.00     0.272 C 
ATOM      2  C   UNL     1      26.308  38.434   7.696  1.00  0.00     0.113 C 
ATOM      3  C   UNL     1      25.218  39.302   7.215  1.00  0.00     0.145 C 
ATOM      4  C   UNL     1      23.922  38.956   7.915  1.00  0.00     0.142 C 
ATOM      5  C   UNL     1      23.849  37.415   7.857  1.00  0.00     0.178 C 
ATOM      6  O   UNL     1      24.701  37.080   8.953  1.00  0.00    -0.332 OA
ENDROOT
BRANCH   1   7
ATOM      7  O   UNL     1      26.779  37.473   9.764  1.00  0.00    -0.338 OA
BRANCH   7   8
ATOM      8  C   UNL     1      26.124  37.102  10.906  1.00  0.00     0.199 C 
BRANCH   8   9
ATOM      9  C   UNL     1      26.894  36.038  11.683  1.00  0.00     0.179 C 
ATOM     10  C   UNL     1      27.605  36.000  13.926  1.00  0.00     0.282 C 
ATOM     11  O   UNL     1      27.674  36.577  12.657  1.00  0.00    -0.341 OA
ATOM     12  C   UNL     1      26.216  36.098  14.401  1.00  0.00     0.202 C 
ATOM     13  C   UNL     1      25.303  35.324  13.459  1.00  0.00     0.179 C 
ATOM     14  C   UNL     1      25.979  34.943  12.180  1.00  0.00     0.177 C 
BRANCH  10  15
ATOM     15  O   UNL     1      28.575  36.694  14.645  1.00  0.00    -0.341 OA
BRANCH  15  16
ATOM     16  C   UNL     1      29.654  36.023  15.035  1.00  0.00     0.184 C 
ATOM     17  C   UNL     1      30.138  36.375  16.396  1.00  0.00     0.178 C 
ATOM     18  O   UNL     1      31.054  35.439  16.863  1.00  0.00    -0.341 OA
ATOM     19  C   UNL     1      32.171  35.281  16.109  1.00  0.00     0.281 C 
ATOM     20  C   UNL     1      30.879  36.182  14.110  1.00  0.00     0.180 C 
ATOM     21  C   UNL     1      32.149  36.113  14.878  1.00  0.00     0.202 C 
BRANCH  17  22
ATOM     22  C   UNL     1      29.098  36.594  17.451  1.00  0.00     0.191 C 
BRANCH  22  23
ATOM     23  O   UNL     1      28.160  35.563  17.492  1.00  0.00    -0.394 OA
ATOM     24  H   UNL     1      28.268  35.062  18.335  1.00  0.00     0.210 HD
ENDBRANCH  22  23
ENDBRANCH  17  22
BRANCH  19  25
ATOM     25  O   UNL     1      32.310  33.944  15.719  1.00  0.00    -0.350 OA
BRANCH  25  26
ATOM     26  C   UNL     1      31.520  33.103  16.489  1.00  0.00     0.169 C 
BRANCH  26  27
ATOM     27  C   UNL     1      30.898  31.980  15.717  1.00  0.00     0.119 C 
BRANCH  27  28
ATOM     28  N   UNL     1      29.879  32.571  14.853  1.00  0.00    -0.092 NA
ATOM     29  N   UNL     1      28.738  32.637  15.345  1.00  0.00     0.001 N 
ATOM     30  N   UNL     1      27.699  33.040  15.910  1.00  0.00    -0.003 NA
ENDBRANCH  27  28
ENDBRANCH  26  27
ENDBRANCH  25  26
ENDBRANCH  19  25
BRANCH  20  31
ATOM     31  O   UNL     1      30.823  35.138  13.203  1.00  0.00    -0.387 OA
ATOM     32  H   UNL     1      29.952  35.244  12.704  1.00  0.00     0.211 HD
ENDBRANCH  20  31
BRANCH  21  33
ATOM     33  O   UNL     1      32.678  37.388  15.163  1.00  0.00    -0.385 OA
ATOM     34  H   UNL     1      32.815  37.398  16.136  1.00  0.00     0.211 HD
ENDBRANCH  21  33
ENDBRANCH  15  16
ENDBRANCH  10  15
BRANCH  12  35
ATOM     35  O   UNL     1      25.989  35.629  15.696  1.00  0.00    -0.385 OA
ATOM     36  H   UNL     1      25.984  36.389  16.363  1.00  0.00     0.211 HD
ENDBRANCH  12  35
BRANCH  13  37
ATOM     37  O   UNL     1      24.141  36.070  13.275  1.00  0.00    -0.387 OA
ATOM     38  H   UNL     1      24.285  37.009  13.080  1.00  0.00     0.211 HD
ENDBRANCH  13  37
BRANCH  14  39
ATOM     39  O   UNL     1      25.007  34.784  11.162  1.00  0.00    -0.387 OA
ATOM     40  H   UNL     1      25.305  35.323  10.408  1.00  0.00     0.211 HD
ENDBRANCH  14  39
ENDBRANCH   8   9
ENDBRANCH   7   8
ENDBRANCH   1   7
BRANCH   1  41
ATOM     41  C   UNL     1      26.534  36.038   7.953  1.00  0.00     0.364 C 
ATOM     42  O   UNL     1      26.248  34.905   8.398  1.00  0.00    -0.246 OA
BRANCH  41  43
ATOM     43  O   UNL     1      27.355  36.133   6.857  1.00  0.00    -0.477 OA
ATOM     44  H   UNL     1      27.075  35.870   5.914  1.00  0.00     0.296 HD
ENDBRANCH  41  43
ENDBRANCH   1  41
BRANCH   3  45
ATOM     45  O   UNL     1      25.478  40.643   7.493  1.00  0.00    -0.391 OA
ATOM     46  H   UNL     1      24.642  41.139   7.406  1.00  0.00     0.211 HD
ENDBRANCH   3  45
BRANCH   5  47
ATOM     47  C   UNL     1      22.490  36.884   8.140  1.00  0.00     0.176 C 
BRANCH  47  48
ATOM     48  O   UNL     1      21.811  36.782   6.933  1.00  0.00    -0.388 OA
ATOM     49  H   UNL     1      22.324  36.344   6.211  1.00  0.00     0.211 HD
ENDBRANCH  47  48
BRANCH  47  50
ATOM     50  C   UNL     1      22.334  35.669   8.951  1.00  0.00     0.165 C 
BRANCH  50  51
ATOM     51  O   UNL     1      21.373  34.868   8.232  1.00  0.00    -0.388 OA
ATOM     52  H   UNL     1      21.562  34.909   7.266  1.00  0.00     0.211 HD
ENDBRANCH  50  51
BRANCH  50  53
ATOM     53  C   UNL     1      21.616  35.910  10.271  1.00  0.00     0.154 C 
BRANCH  53  54
ATOM     54  N   UNL     1      22.222  35.260  11.400  1.00  0.00    -0.319 N 
ATOM     55  C   UNL     1      21.408  34.471  12.253  1.00  0.00     0.407 C 
ATOM     56  H   UNL     1      23.240  35.341  11.633  1.00  0.00     0.167 HD
ATOM     57  O   UNL     1      20.163  34.336  12.055  1.00  0.00    -0.225 OA
BRANCH  55  58
ATOM     58  O   UNL     1      21.951  33.814  13.341  1.00  0.00    -0.443 OA
BRANCH  58  59
ATOM     59  C   UNL     1      22.602  32.547  13.216  1.00  0.00     0.294 C 
BRANCH  59  60
ATOM     60  C   UNL     1      21.604  31.443  13.316  1.00  0.00     0.121 A 
ATOM     61  C   UNL     1      20.930  30.874  12.245  1.00  0.00     0.144 A 
ATOM     62  N   UNL     1      21.179  30.811  14.419  1.00  0.00    -0.131 NA
ATOM     63  N   UNL     1      20.122  29.921  12.728  1.00  0.00    -0.220 N 
ATOM     64  N   UNL     1      20.290  29.906  14.019  1.00  0.00    -0.062 NA
BRANCH  63  65
ATOM     65  C   UNL     1      19.277  29.130  11.890  1.00  0.00     0.066 A 
ATOM     66  C   UNL     1      19.431  27.769  11.804  1.00  0.00     0.030 A 
ATOM     67  C   UNL     1      18.289  29.718  11.151  1.00  0.00     0.030 A 
ATOM     68  C   UNL     1      18.621  26.969  10.995  1.00  0.00     0.023 A 
ATOM     69  C   UNL     1      17.470  28.948  10.338  1.00  0.00     0.023 A 
ATOM     70  C   UNL     1      17.634  27.565  10.257  1.00  0.00     0.041 A 
ATOM     71  Cl  UNL     1      16.585  26.596   9.218  1.00  0.00    -0.084 Cl
ENDBRANCH  63  65
ENDBRANCH  59  60
ENDBRANCH  58  59
ENDBRANCH  55  58
ENDBRANCH  53  54
ENDBRANCH  50  53
ENDBRANCH  47  50
ENDBRANCH   5  47
BRANCH   4  72
ATOM     72  N   UNL     1      22.820  39.624   7.333  1.00  0.00    -0.348 N 
ATOM     73  C   UNL     1      22.289  40.804   7.965  1.00  0.00     0.217 C 
ATOM     74  H   UNL     1      22.350  39.345   6.457  1.00  0.00     0.163 HD
ATOM     75  C   UNL     1      21.128  41.534   7.378  1.00  0.00     0.114 C 
ATOM     76  O   UNL     1      22.830  41.206   9.027  1.00  0.00    -0.275 OA
ENDBRANCH   4  72
TORSDOF 30
BEGIN_RES LYS A 131
REMARK  4 active torsions:
REMARK  status: ('A' for Active; 'I' for Inactive)
REMARK    1  A    between atoms: CA   and  CB  
REMARK    2  A    between atoms: CB   and  CG  
REMARK    3  A    between atoms: CG   and  CD  
REMARK    4  A    between atoms: CD   and  CE  
ROOT
ATOM      1  CA  LYS A 131      29.867  25.555  16.977  1.00 20.52     0.186 C 
ENDROOT
BRANCH   1   2
ATOM      2  CB  LYS A 131      28.345  25.722  17.026  1.00 20.94     0.034 C 
BRANCH   2   3
ATOM      3  CG  LYS A 131      27.602  24.400  16.914  1.00 22.96     0.005 C 
BRANCH   3   4
ATOM      4  CD  LYS A 131      26.144  24.539  17.255  1.00 24.33     0.041 C 
BRANCH   4   5
ATOM      5  CE  LYS A 131      25.609  23.201  17.756  1.00 26.91     0.338 C 
ATOM      6  NZ  LYS A 131      25.547  23.189  19.237  1.00 27.40     0.618 N 
ENDBRANCH   4   5
ENDBRANCH   3   4
ENDBRANCH   2   3
ENDBRANCH   1   2
END_RES LYS A 131
BEGIN_RES LYS A 135
REMARK  4 active torsions:
REMARK  status: ('A' for Active; 'I' for Inactive)
REMARK    5  A    between atoms: CA   and  CB  
REMARK    6  A    between atoms: CB   and  CG  
REMARK    7  A    between atoms: CG   and  CD  
REMARK    8  A    between atoms: CD   and  CE  
ROOT
ATOM      7  CA  LYS A 135      33.193  34.663   9.290  1.00 25.02     0.186 C 
ENDROOT
BRANCH   7   8
ATOM      8  CB  LYS A 135      32.060  35.360  10.034  1.00 26.63     0.034 C 
BRANCH   8   9
ATOM      9  CG  LYS A 135      30.714  35.190   9.378  1.00 29.45     0.005 C 
BRANCH   9  10
ATOM     10  CD  LYS A 135      29.914  36.481   9.453  1.00 32.00     0.041 C 
BRANCH  10  11
ATOM     11  CE  LYS A 135      30.671  37.616   8.791  1.00 34.25     0.338 C 
ATOM     12  NZ  LYS A 135      29.765  38.757   8.481  1.00 35.99     0.618 N 
ENDBRANCH  10  11
ENDBRANCH   9  10
ENDBRANCH   8   9
ENDBRANCH   7   8
END_RES LYS A 135
