REMARK VINA RESULT:    -5.184      2.876      8.375
REMARK INTER + INTRA:         -22.483
REMARK INTER:                 -10.740
REMARK INTRA:                 -11.742
REMARK UNBOUND:                -9.116
REMARK SMILES CC(=O)N[C@@H]1[C@@H](O)C[C@](OC[C@H]2O[C@@H](O[C@H]3[C@H](O)[C@@H](O)[C@H](OCCN=[N+]=[N-])O[C@@H]3CO)[C@H](O)[C@@H](O)[C@H]2O)(C(=O)O)O[C@H]1C(O)[C@H](O)CNC(=O)OCc1cn(CCC2OCCO2)nn1
REMARK SMILES IDX 9 1 8 2 6 3 5 4 42 5 41 6 10 7 11 8 12 9 14 10 13 11 32 12
REMARK SMILES IDX 34 13 36 14 15 15 16 16 29 17 28 18 21 19 17 20 19 21 30 22
REMARK SMILES IDX 31 23 22 25 23 26 24 27 25 28 26 29 27 30 18 31 20 33 33 35
REMARK SMILES IDX 35 37 37 39 38 41 39 42 40 43 7 45 43 47 44 48 45 50 46 51
REMARK SMILES IDX 47 53 48 54 49 55 50 57 51 58 52 59 53 60 54 61 64 62 55 63
REMARK SMILES IDX 63 64 56 65 57 66 58 67 59 68 62 69 60 70 61 71 4 72 2 73
REMARK SMILES IDX 1 75 3 76
REMARK H PARENT 31 24 18 32 20 34 33 36 35 38 37 40 40 44 7 46 44 49 46 52
REMARK H PARENT 48 56 4 74
REMARK Flexibility Score: inf
ROOT
ATOM      1  C   UNL     1      28.903  35.179  13.889  1.00  0.00     0.272 C 
ATOM      2  C   UNL     1      30.045  34.958  12.830  1.00  0.00     0.113 C 
ATOM      3  C   UNL     1      31.358  35.323  13.379  1.00  0.00     0.145 C 
ATOM      4  C   UNL     1      31.645  34.494  14.615  1.00  0.00     0.142 C 
ATOM      5  C   UNL     1      30.400  33.970  15.247  1.00  0.00     0.178 C 
ATOM      6  O   UNL     1      29.276  34.706  15.122  1.00  0.00    -0.332 OA
ENDROOT
BRANCH   1   7
ATOM      7  O   UNL     1      27.903  34.455  13.387  1.00  0.00    -0.338 OA
BRANCH   7   8
ATOM      8  C   UNL     1      26.606  34.631  13.503  1.00  0.00     0.199 C 
BRANCH   8   9
ATOM      9  C   UNL     1      25.760  33.759  14.375  1.00  0.00     0.179 C 
ATOM     10  C   UNL     1      25.741  32.808  16.513  1.00  0.00     0.282 C 
ATOM     11  O   UNL     1      26.476  33.329  15.468  1.00  0.00    -0.341 OA
ATOM     12  C   UNL     1      24.319  32.502  16.217  1.00  0.00     0.202 C 
ATOM     13  C   UNL     1      23.598  33.601  15.485  1.00  0.00     0.179 C 
ATOM     14  C   UNL     1      24.593  34.586  14.969  1.00  0.00     0.177 C 
BRANCH  10  15
ATOM     15  O   UNL     1      25.966  33.594  17.643  1.00  0.00    -0.341 OA
BRANCH  15  16
ATOM     16  C   UNL     1      27.287  33.595  18.068  1.00  0.00     0.184 C 
ATOM     17  C   UNL     1      27.513  32.915  19.384  1.00  0.00     0.178 C 
ATOM     18  O   UNL     1      28.886  32.921  19.637  1.00  0.00    -0.341 OA
ATOM     19  C   UNL     1      29.397  34.190  19.871  1.00  0.00     0.281 C 
ATOM     20  C   UNL     1      27.739  35.065  18.299  1.00  0.00     0.180 C 
ATOM     21  C   UNL     1      29.236  34.964  18.566  1.00  0.00     0.202 C 
BRANCH  17  22
ATOM     22  C   UNL     1      27.128  31.451  19.267  1.00  0.00     0.191 C 
BRANCH  22  23
ATOM     23  O   UNL     1      28.350  30.738  19.347  1.00  0.00    -0.394 OA
ATOM     24  H   UNL     1      28.856  30.949  20.160  1.00  0.00     0.210 HD
ENDBRANCH  22  23
ENDBRANCH  17  22
BRANCH  19  25
ATOM     25  O   UNL     1      30.713  34.080  20.219  1.00  0.00    -0.350 OA
BRANCH  25  26
ATOM     26  C   UNL     1      31.232  32.816  20.225  1.00  0.00     0.169 C 
BRANCH  26  27
ATOM     27  C   UNL     1      32.140  32.507  21.395  1.00  0.00     0.119 C 
BRANCH  27  28
ATOM     28  N   UNL     1      32.133  33.609  22.340  1.00  0.00    -0.092 NA
ATOM     29  N   UNL     1      32.953  33.716  23.248  1.00  0.00     0.001 N 
ATOM     30  N   UNL     1      33.822  33.985  24.073  1.00  0.00    -0.003 NA
ENDBRANCH  27  28
ENDBRANCH  26  27
ENDBRANCH  25  26
ENDBRANCH  19  25
BRANCH  20  31
ATOM     31  O   UNL     1      27.508  35.778  17.148  1.00  0.00    -0.387 OA
ATOM     32  H   UNL     1      26.640  35.482  16.759  1.00  0.00     0.211 HD
ENDBRANCH  20  31
BRANCH  21  33
ATOM     33  O   UNL     1      29.725  36.249  18.659  1.00  0.00    -0.385 OA
ATOM     34  H   UNL     1      29.551  36.583  19.575  1.00  0.00     0.211 HD
ENDBRANCH  21  33
ENDBRANCH  15  16
ENDBRANCH  10  15
BRANCH  12  35
ATOM     35  O   UNL     1      24.246  31.284  15.495  1.00  0.00    -0.385 OA
ATOM     36  H   UNL     1      25.157  30.893  15.563  1.00  0.00     0.211 HD
ENDBRANCH  12  35
BRANCH  13  37
ATOM     37  O   UNL     1      22.608  34.189  16.271  1.00  0.00    -0.387 OA
ATOM     38  H   UNL     1      21.824  34.363  15.686  1.00  0.00     0.211 HD
ENDBRANCH  13  37
BRANCH  14  39
ATOM     39  O   UNL     1      25.098  35.438  15.929  1.00  0.00    -0.387 OA
ATOM     40  H   UNL     1      26.085  35.506  15.929  1.00  0.00     0.211 HD
ENDBRANCH  14  39
ENDBRANCH   8   9
ENDBRANCH   7   8
ENDBRANCH   1   7
BRANCH   1  41
ATOM     41  C   UNL     1      28.816  36.637  13.974  1.00  0.00     0.364 C 
ATOM     42  O   UNL     1      28.953  37.212  15.132  1.00  0.00    -0.246 OA
BRANCH  41  43
ATOM     43  O   UNL     1      28.605  37.543  12.960  1.00  0.00    -0.477 OA
ATOM     44  H   UNL     1      27.664  37.824  12.722  1.00  0.00     0.296 HD
ENDBRANCH  41  43
ENDBRANCH   1  41
BRANCH   3  45
ATOM     45  O   UNL     1      32.314  35.018  12.367  1.00  0.00    -0.391 OA
ATOM     46  H   UNL     1      33.162  34.783  12.855  1.00  0.00     0.211 HD
ENDBRANCH   3  45
BRANCH   5  47
ATOM     47  C   UNL     1      30.241  32.511  14.941  1.00  0.00     0.176 C 
BRANCH  47  48
ATOM     48  O   UNL     1      31.453  31.805  14.986  1.00  0.00    -0.388 OA
ATOM     49  H   UNL     1      31.303  30.860  15.282  1.00  0.00     0.211 HD
ENDBRANCH  47  48
BRANCH  47  50
ATOM     50  C   UNL     1      29.402  31.830  16.059  1.00  0.00     0.165 C 
BRANCH  50  51
ATOM     51  O   UNL     1      30.235  31.549  17.116  1.00  0.00    -0.388 OA
ATOM     52  H   UNL     1      29.771  31.324  17.943  1.00  0.00     0.211 HD
ENDBRANCH  50  51
BRANCH  50  53
ATOM     53  C   UNL     1      28.657  30.709  15.457  1.00  0.00     0.154 C 
BRANCH  53  54
ATOM     54  N   UNL     1      28.495  29.615  16.362  1.00  0.00    -0.319 N 
ATOM     55  C   UNL     1      27.277  29.003  16.657  1.00  0.00     0.407 C 
ATOM     56  H   UNL     1      29.365  29.257  16.829  1.00  0.00     0.167 HD
ATOM     57  O   UNL     1      26.217  29.392  16.142  1.00  0.00    -0.225 OA
BRANCH  55  58
ATOM     58  O   UNL     1      27.156  27.922  17.542  1.00  0.00    -0.443 OA
BRANCH  58  59
ATOM     59  C   UNL     1      25.986  27.744  18.320  1.00  0.00     0.294 C 
BRANCH  59  60
ATOM     60  C   UNL     1      26.237  27.891  19.773  1.00  0.00     0.120 A 
ATOM     61  C   UNL     1      27.335  27.355  20.454  1.00  0.00     0.138 A 
ATOM     62  N   UNL     1      25.524  28.523  20.718  1.00  0.00    -0.132 NA
ATOM     63  N   UNL     1      27.243  27.683  21.771  1.00  0.00    -0.252 N 
ATOM     64  N   UNL     1      26.142  28.387  21.899  1.00  0.00    -0.067 NA
BRANCH  63  65
ATOM     65  C   UNL     1      28.240  27.280  22.752  1.00  0.00     0.151 C 
BRANCH  65  66
ATOM     66  C   UNL     1      29.112  28.466  23.143  1.00  0.00     0.086 C 
BRANCH  66  67
ATOM     67  C   UNL     1      30.374  28.511  22.330  1.00  0.00     0.251 C 
ATOM     68  O   UNL     1      30.669  27.228  21.866  1.00  0.00    -0.350 OA
ATOM     69  O   UNL     1      30.276  29.300  21.202  1.00  0.00    -0.350 OA
ATOM     70  C   UNL     1      31.559  27.429  20.817  1.00  0.00     0.192 C 
ATOM     71  C   UNL     1      31.454  28.915  20.518  1.00  0.00     0.192 C 
ENDBRANCH  66  67
ENDBRANCH  65  66
ENDBRANCH  63  65
ENDBRANCH  59  60
ENDBRANCH  58  59
ENDBRANCH  55  58
ENDBRANCH  53  54
ENDBRANCH  50  53
ENDBRANCH  47  50
ENDBRANCH   5  47
BRANCH   4  72
ATOM     72  N   UNL     1      32.491  35.236  15.548  1.00  0.00    -0.348 N 
ATOM     73  C   UNL     1      33.880  35.334  15.419  1.00  0.00     0.217 C 
ATOM     74  H   UNL     1      31.993  35.714  16.354  1.00  0.00     0.163 HD
ATOM     75  C   UNL     1      34.679  36.114  16.418  1.00  0.00     0.114 C 
ATOM     76  O   UNL     1      34.420  34.747  14.442  1.00  0.00    -0.275 OA
ENDBRANCH   4  72
TORSDOF 32
BEGIN_RES LYS A 131
REMARK  4 active torsions:
REMARK  status: ('A' for Active; 'I' for Inactive)
REMARK    1  A    between atoms: CA   and  CB  
REMARK    2  A    between atoms: CB   and  CG  
REMARK    3  A    between atoms: CG   and  CD  
REMARK    4  A    between atoms: CD   and  CE  
ROOT
ATOM      1  CA  LYS A 131      29.867  25.555  16.977  1.00 20.52     0.186 C 
ENDROOT
BRANCH   1   2
ATOM      2  CB  LYS A 131      28.345  25.722  17.026  1.00 20.94     0.034 C 
BRANCH   2   3
ATOM      3  CG  LYS A 131      27.600  24.411  16.827  1.00 22.96     0.005 C 
BRANCH   3   4
ATOM      4  CD  LYS A 131      26.565  24.181  17.893  1.00 24.33     0.041 C 
BRANCH   4   5
ATOM      5  CE  LYS A 131      25.176  24.180  17.262  1.00 26.91     0.338 C 
ATOM      6  NZ  LYS A 131      24.547  22.845  17.393  1.00 27.40     0.618 N 
ENDBRANCH   4   5
ENDBRANCH   3   4
ENDBRANCH   2   3
ENDBRANCH   1   2
END_RES LYS A 131
BEGIN_RES LYS A 135
REMARK  4 active torsions:
REMARK  status: ('A' for Active; 'I' for Inactive)
REMARK    5  A    between atoms: CA   and  CB  
REMARK    6  A    between atoms: CB   and  CG  
REMARK    7  A    between atoms: CG   and  CD  
REMARK    8  A    between atoms: CD   and  CE  
ROOT
ATOM      7  CA  LYS A 135      33.193  34.663   9.290  1.00 25.02     0.186 C 
ENDROOT
BRANCH   7   8
ATOM      8  CB  LYS A 135      32.060  35.360  10.034  1.00 26.63     0.034 C 
BRANCH   8   9
ATOM      9  CG  LYS A 135      30.801  35.501   9.218  1.00 29.45     0.005 C 
BRANCH   9  10
ATOM     10  CD  LYS A 135      30.133  34.149   9.023  1.00 32.00     0.041 C 
BRANCH  10  11
ATOM     11  CE  LYS A 135      28.666  34.323   8.680  1.00 34.25     0.338 C 
ATOM     12  NZ  LYS A 135      27.795  33.758   9.747  1.00 35.99     0.618 N 
ENDBRANCH  10  11
ENDBRANCH   9  10
ENDBRANCH   8   9
ENDBRANCH   7   8
END_RES LYS A 135
