REMARK VINA RESULT:    -4.241      4.550     10.260
REMARK INTER + INTRA:         -21.857
REMARK INTER:                 -13.950
REMARK INTRA:                  -7.907
REMARK UNBOUND:               -10.427
REMARK SMILES CCN(CC)CCn1cc(COC(=O)NC[C@@H](O)C(O)[C@@H]2O[C@@](OC[C@H]3O[C@@H](O[C@H]4[C@H](O)[C@@H](O)[C@H](OCCN=[N+]=[N-])O[C@@H]4CO)[C@H](O)[C@@H](O)[C@H]3O)(C(=O)O)C[C@H](O)[C@H]2NC(C)=O)nn1
REMARK SMILES IDX 19 1 21 2 23 3 55 4 22 5 56 6 58 7 24 8 25 9 26 10 28 11
REMARK SMILES IDX 27 12 46 13 48 14 50 15 29 16 30 17 43 18 42 19 35 20 31 21
REMARK SMILES IDX 33 22 44 23 45 24 36 26 37 27 38 28 39 29 40 30 41 31 32 32
REMARK SMILES IDX 34 34 47 36 49 38 51 40 52 42 53 43 54 44 57 46 59 48 60 49
REMARK SMILES IDX 61 51 62 52 20 53 17 55 18 56 16 58 15 59 13 60 14 62 12 63
REMARK SMILES IDX 11 64 10 65 9 66 63 67 8 68 64 69 7 70 6 71 3 72 2 73 1 74
REMARK SMILES IDX 4 75 5 76
REMARK H PARENT 45 25 32 33 34 35 47 37 49 39 51 41 54 45 57 47 59 50 20 54
REMARK H PARENT 18 57 15 61
REMARK Flexibility Score: inf
ROOT
ATOM      1  C   UNL     1      28.965  35.322  12.852  1.00  0.00     0.176 C 
ENDROOT
BRANCH   1   2
ATOM      2  C   UNL     1      28.312  35.003  11.533  1.00  0.00     0.178 C 
ATOM      3  C   UNL     1      28.402  35.404   9.268  1.00  0.00     0.272 C 
ATOM      4  C   UNL     1      27.340  34.297   9.345  1.00  0.00     0.113 C 
ATOM      5  O   UNL     1      28.979  35.617  10.501  1.00  0.00    -0.332 OA
ATOM      6  C   UNL     1      26.259  34.574  10.339  1.00  0.00     0.145 C 
ATOM      7  C   UNL     1      26.868  35.446  11.448  1.00  0.00     0.142 C 
BRANCH   3   8
ATOM      8  O   UNL     1      27.782  36.504   8.726  1.00  0.00    -0.338 OA
BRANCH   8   9
ATOM      9  C   UNL     1      28.412  37.709   8.912  1.00  0.00     0.199 C 
BRANCH   9  10
ATOM     10  C   UNL     1      27.585  38.866   8.324  1.00  0.00     0.179 C 
ATOM     11  C   UNL     1      25.321  38.979   7.696  1.00  0.00     0.282 C 
ATOM     12  O   UNL     1      26.530  38.300   7.703  1.00  0.00    -0.341 OA
ATOM     13  C   UNL     1      25.492  40.440   7.811  1.00  0.00     0.202 C 
ATOM     14  C   UNL     1      26.294  40.873   9.007  1.00  0.00     0.179 C 
ATOM     15  C   UNL     1      27.163  39.726   9.477  1.00  0.00     0.177 C 
BRANCH  11  16
ATOM     16  O   UNL     1      24.548  38.335   8.652  1.00  0.00    -0.341 OA
BRANCH  16  17
ATOM     17  C   UNL     1      23.252  38.164   8.312  1.00  0.00     0.184 C 
ATOM     18  C   UNL     1      22.310  38.339   9.475  1.00  0.00     0.178 C 
ATOM     19  O   UNL     1      20.979  38.246   8.974  1.00  0.00    -0.341 OA
ATOM     20  C   UNL     1      20.673  36.911   8.824  1.00  0.00     0.281 C 
ATOM     21  C   UNL     1      22.956  36.791   7.718  1.00  0.00     0.180 C 
ATOM     22  C   UNL     1      21.810  36.097   8.383  1.00  0.00     0.202 C 
BRANCH  18  23
ATOM     23  C   UNL     1      22.499  39.569  10.285  1.00  0.00     0.191 C 
BRANCH  23  24
ATOM     24  O   UNL     1      23.636  39.400  11.065  1.00  0.00    -0.394 OA
ATOM     25  H   UNL     1      24.037  40.250  11.375  1.00  0.00     0.210 HD
ENDBRANCH  23  24
ENDBRANCH  18  23
BRANCH  20  26
ATOM     26  O   UNL     1      19.504  36.725   8.094  1.00  0.00    -0.350 OA
BRANCH  26  27
ATOM     27  C   UNL     1      19.354  35.483   7.554  1.00  0.00     0.169 C 
BRANCH  27  28
ATOM     28  C   UNL     1      18.588  34.533   8.455  1.00  0.00     0.119 C 
BRANCH  28  29
ATOM     29  N   UNL     1      17.205  34.412   8.036  1.00  0.00    -0.092 NA
ATOM     30  N   UNL     1      16.433  35.377   7.986  1.00  0.00     0.001 N 
ATOM     31  N   UNL     1      15.596  36.194   8.375  1.00  0.00    -0.003 NA
ENDBRANCH  28  29
ENDBRANCH  27  28
ENDBRANCH  26  27
ENDBRANCH  20  26
BRANCH  21  32
ATOM     32  O   UNL     1      22.680  36.949   6.374  1.00  0.00    -0.387 OA
ATOM     33  H   UNL     1      21.746  36.780   6.131  1.00  0.00     0.211 HD
ENDBRANCH  21  32
BRANCH  22  34
ATOM     34  O   UNL     1      22.256  35.290   9.459  1.00  0.00    -0.385 OA
ATOM     35  H   UNL     1      21.547  35.347  10.151  1.00  0.00     0.211 HD
ENDBRANCH  22  34
ENDBRANCH  16  17
ENDBRANCH  11  16
BRANCH  13  36
ATOM     36  O   UNL     1      26.204  40.896   6.663  1.00  0.00    -0.385 OA
ATOM     37  H   UNL     1      27.003  40.360   6.512  1.00  0.00     0.211 HD
ENDBRANCH  13  36
BRANCH  14  38
ATOM     38  O   UNL     1      25.533  41.398  10.039  1.00  0.00    -0.387 OA
ATOM     39  H   UNL     1      24.582  41.229   9.943  1.00  0.00     0.211 HD
ENDBRANCH  14  38
BRANCH  15  40
ATOM     40  O   UNL     1      26.412  38.957  10.356  1.00  0.00    -0.387 OA
ATOM     41  H   UNL     1      25.595  39.457  10.641  1.00  0.00     0.211 HD
ENDBRANCH  15  40
ENDBRANCH   9  10
ENDBRANCH   8   9
ENDBRANCH   3   8
BRANCH   3  42
ATOM     42  C   UNL     1      29.429  34.862   8.343  1.00  0.00     0.364 C 
ATOM     43  O   UNL     1      30.275  33.993   8.747  1.00  0.00    -0.246 OA
BRANCH  42  44
ATOM     44  O   UNL     1      29.563  35.229   7.020  1.00  0.00    -0.477 OA
ATOM     45  H   UNL     1      30.131  36.032   6.772  1.00  0.00     0.296 HD
ENDBRANCH  42  44
ENDBRANCH   3  42
BRANCH   6  46
ATOM     46  O   UNL     1      25.103  35.100   9.818  1.00  0.00    -0.391 OA
ATOM     47  H   UNL     1      24.749  34.445   9.163  1.00  0.00     0.211 HD
ENDBRANCH   6  46
BRANCH   7  48
ATOM     48  N   UNL     1      26.136  35.335  12.664  1.00  0.00    -0.348 N 
ATOM     49  C   UNL     1      25.107  36.310  12.931  1.00  0.00     0.217 C 
ATOM     50  H   UNL     1      26.268  34.607  13.389  1.00  0.00     0.163 HD
ATOM     51  C   UNL     1      24.305  36.258  14.179  1.00  0.00     0.114 C 
ATOM     52  O   UNL     1      24.855  37.237  12.117  1.00  0.00    -0.275 OA
ENDBRANCH   7  48
ENDBRANCH   1   2
BRANCH   1  53
ATOM     53  O   UNL     1      28.457  34.457  13.812  1.00  0.00    -0.388 OA
ATOM     54  H   UNL     1      27.510  34.210  13.565  1.00  0.00     0.211 HD
ENDBRANCH   1  53
BRANCH   1  55
ATOM     55  C   UNL     1      30.439  35.058  12.683  1.00  0.00     0.165 C 
BRANCH  55  56
ATOM     56  O   UNL     1      30.621  34.102  11.676  1.00  0.00    -0.388 OA
ATOM     57  H   UNL     1      29.986  34.303  10.947  1.00  0.00     0.211 HD
ENDBRANCH  55  56
BRANCH  55  58
ATOM     58  C   UNL     1      31.159  34.631  13.909  1.00  0.00     0.154 C 
BRANCH  58  59
ATOM     59  N   UNL     1      30.955  33.269  14.266  1.00  0.00    -0.319 N 
ATOM     60  C   UNL     1      31.301  32.830  15.589  1.00  0.00     0.407 C 
ATOM     61  H   UNL     1      30.577  32.588  13.606  1.00  0.00     0.167 HD
ATOM     62  O   UNL     1      31.781  33.622  16.424  1.00  0.00    -0.225 OA
BRANCH  60  63
ATOM     63  O   UNL     1      31.088  31.501  15.916  1.00  0.00    -0.443 OA
BRANCH  63  64
ATOM     64  C   UNL     1      30.151  31.197  16.962  1.00  0.00     0.294 C 
BRANCH  64  65
ATOM     65  C   UNL     1      28.801  31.337  16.401  1.00  0.00     0.120 A 
ATOM     66  C   UNL     1      27.863  30.299  16.369  1.00  0.00     0.138 A 
ATOM     67  N   UNL     1      28.190  32.377  15.840  1.00  0.00    -0.132 NA
ATOM     68  N   UNL     1      26.735  30.755  15.796  1.00  0.00    -0.251 N 
ATOM     69  N   UNL     1      26.957  32.005  15.487  1.00  0.00    -0.067 NA
BRANCH  68  70
ATOM     70  C   UNL     1      25.507  30.022  15.558  1.00  0.00     0.161 C 
BRANCH  70  71
ATOM     71  C   UNL     1      24.414  31.031  15.281  1.00  0.00     0.108 C 
BRANCH  71  72
ATOM     72  N   UNL     1      23.470  30.593  14.295  1.00  0.00    -0.302 NA
BRANCH  72  73
ATOM     73  C   UNL     1      23.430  29.161  14.175  1.00  0.00     0.081 C 
ATOM     74  C   UNL     1      23.357  28.802  12.696  1.00  0.00     0.021 C 
ENDBRANCH  72  73
BRANCH  72  75
ATOM     75  C   UNL     1      23.612  31.265  13.040  1.00  0.00     0.081 C 
ATOM     76  C   UNL     1      24.121  32.679  13.236  1.00  0.00     0.021 C 
ENDBRANCH  72  75
ENDBRANCH  71  72
ENDBRANCH  70  71
ENDBRANCH  68  70
ENDBRANCH  64  65
ENDBRANCH  63  64
ENDBRANCH  60  63
ENDBRANCH  58  59
ENDBRANCH  55  58
ENDBRANCH   1  55
TORSDOF 34
BEGIN_RES LYS A 131
REMARK  4 active torsions:
REMARK  status: ('A' for Active; 'I' for Inactive)
REMARK    1  A    between atoms: CA   and  CB  
REMARK    2  A    between atoms: CB   and  CG  
REMARK    3  A    between atoms: CG   and  CD  
REMARK    4  A    between atoms: CD   and  CE  
ROOT
ATOM      1  CA  LYS A 131      29.867  25.555  16.977  1.00 20.52     0.186 C 
ENDROOT
BRANCH   1   2
ATOM      2  CB  LYS A 131      28.345  25.722  17.026  1.00 20.94     0.034 C 
BRANCH   2   3
ATOM      3  CG  LYS A 131      27.603  24.395  16.973  1.00 22.96     0.005 C 
BRANCH   3   4
ATOM      4  CD  LYS A 131      26.160  24.537  17.372  1.00 24.33     0.041 C 
BRANCH   4   5
ATOM      5  CE  LYS A 131      25.785  23.412  18.332  1.00 26.91     0.338 C 
ATOM      6  NZ  LYS A 131      25.284  22.236  17.582  1.00 27.40     0.618 N 
ENDBRANCH   4   5
ENDBRANCH   3   4
ENDBRANCH   2   3
ENDBRANCH   1   2
END_RES LYS A 131
BEGIN_RES LYS A 135
REMARK  4 active torsions:
REMARK  status: ('A' for Active; 'I' for Inactive)
REMARK    5  A    between atoms: CA   and  CB  
REMARK    6  A    between atoms: CB   and  CG  
REMARK    7  A    between atoms: CG   and  CD  
REMARK    8  A    between atoms: CD   and  CE  
ROOT
ATOM      7  CA  LYS A 135      33.193  34.663   9.290  1.00 25.02     0.186 C 
ENDROOT
BRANCH   7   8
ATOM      8  CB  LYS A 135      32.060  35.360  10.034  1.00 26.63     0.034 C 
BRANCH   8   9
ATOM      9  CG  LYS A 135      32.082  36.860   9.896  1.00 29.45     0.005 C 
BRANCH   9  10
ATOM     10  CD  LYS A 135      32.230  37.523  11.257  1.00 32.00     0.041 C 
BRANCH  10  11
ATOM     11  CE  LYS A 135      31.112  38.521  11.488  1.00 34.25     0.338 C 
ATOM     12  NZ  LYS A 135      30.848  38.705  12.942  1.00 35.99     0.618 N 
ENDBRANCH  10  11
ENDBRANCH   9  10
ENDBRANCH   8   9
ENDBRANCH   7   8
END_RES LYS A 135
