REMARK VINA RESULT:    -5.228      4.978      9.694
REMARK INTER + INTRA:         -22.296
REMARK INTER:                 -10.562
REMARK INTRA:                 -11.734
REMARK UNBOUND:                -9.428
REMARK SMILES CC(=O)N[C@@H]1[C@@H](O)C[C@](OC[C@H]2O[C@@H](O[C@H]3[C@H](O)[C@@H](O)[C@H](OCCN=[N+]=[N-])O[C@@H]3CO)[C@H](O)[C@@H](O)[C@H]2O)(C(=O)O)O[C@H]1C(O)[C@H](O)CNC(=O)OCc1cn(-c2ccc(C)cc2)nn1
REMARK SMILES IDX 9 1 8 2 6 3 5 4 42 5 41 6 10 7 11 8 12 9 14 10 13 11 32 12
REMARK SMILES IDX 34 13 36 14 15 15 16 16 29 17 28 18 21 19 17 20 19 21 30 22
REMARK SMILES IDX 31 23 22 25 23 26 24 27 25 28 26 29 27 30 18 31 20 33 33 35
REMARK SMILES IDX 35 37 37 39 38 41 39 42 40 43 7 45 43 47 44 48 45 50 46 51
REMARK SMILES IDX 47 53 48 54 49 55 50 57 51 58 52 59 53 60 54 61 64 62 55 63
REMARK SMILES IDX 63 64 56 65 57 66 62 67 58 68 61 69 59 70 60 71 4 72 2 73
REMARK SMILES IDX 1 75 3 76
REMARK H PARENT 31 24 18 32 20 34 33 36 35 38 37 40 40 44 7 46 44 49 46 52
REMARK H PARENT 48 56 4 74
REMARK Flexibility Score: inf
ROOT
ATOM      1  C   UNL     1      29.233  31.376  17.147  1.00  0.00     0.272 C 
ATOM      2  C   UNL     1      30.532  31.464  16.354  1.00  0.00     0.113 C 
ATOM      3  C   UNL     1      30.537  32.616  15.424  1.00  0.00     0.145 C 
ATOM      4  C   UNL     1      29.782  33.814  15.882  1.00  0.00     0.142 C 
ATOM      5  C   UNL     1      29.240  33.760  17.306  1.00  0.00     0.178 C 
ATOM      6  O   UNL     1      28.805  32.519  17.629  1.00  0.00    -0.332 OA
ENDROOT
BRANCH   1   7
ATOM      7  O   UNL     1      29.574  30.543  18.258  1.00  0.00    -0.338 OA
BRANCH   7   8
ATOM      8  C   UNL     1      28.978  31.078  19.402  1.00  0.00     0.199 C 
BRANCH   8   9
ATOM      9  C   UNL     1      27.984  30.161  20.007  1.00  0.00     0.179 C 
ATOM     10  C   UNL     1      25.893  29.254  19.769  1.00  0.00     0.282 C 
ATOM     11  O   UNL     1      26.931  29.919  19.124  1.00  0.00    -0.341 OA
ATOM     12  C   UNL     1      26.292  27.863  20.086  1.00  0.00     0.202 C 
ATOM     13  C   UNL     1      27.780  27.695  19.950  1.00  0.00     0.179 C 
ATOM     14  C   UNL     1      28.569  28.865  20.499  1.00  0.00     0.177 C 
BRANCH  10  15
ATOM     15  O   UNL     1      24.773  29.239  18.941  1.00  0.00    -0.341 OA
BRANCH  15  16
ATOM     16  C   UNL     1      24.981  29.994  17.786  1.00  0.00     0.184 C 
ATOM     17  C   UNL     1      23.933  31.042  17.533  1.00  0.00     0.178 C 
ATOM     18  O   UNL     1      23.256  30.773  16.339  1.00  0.00    -0.341 OA
ATOM     19  C   UNL     1      22.560  29.584  16.470  1.00  0.00     0.281 C 
ATOM     20  C   UNL     1      24.936  29.008  16.639  1.00  0.00     0.180 C 
ATOM     21  C   UNL     1      23.516  28.422  16.656  1.00  0.00     0.202 C 
BRANCH  17  22
ATOM     22  C   UNL     1      24.598  32.408  17.292  1.00  0.00     0.191 C 
BRANCH  22  23
ATOM     23  O   UNL     1      25.896  32.414  17.796  1.00  0.00    -0.394 OA
ATOM     24  H   UNL     1      26.502  32.630  17.025  1.00  0.00     0.210 HD
ENDBRANCH  22  23
ENDBRANCH  17  22
BRANCH  19  25
ATOM     25  O   UNL     1      21.717  29.337  15.398  1.00  0.00    -0.350 OA
BRANCH  25  26
ATOM     26  C   UNL     1      21.797  30.279  14.402  1.00  0.00     0.169 C 
BRANCH  26  27
ATOM     27  C   UNL     1      22.309  29.774  13.083  1.00  0.00     0.119 C 
BRANCH  27  28
ATOM     28  N   UNL     1      23.681  30.158  12.854  1.00  0.00    -0.092 NA
ATOM     29  N   UNL     1      24.022  31.321  12.985  1.00  0.00     0.001 N 
ATOM     30  N   UNL     1      24.400  32.473  13.202  1.00  0.00    -0.003 NA
ENDBRANCH  27  28
ENDBRANCH  26  27
ENDBRANCH  25  26
ENDBRANCH  19  25
BRANCH  20  31
ATOM     31  O   UNL     1      25.188  29.597  15.409  1.00  0.00    -0.387 OA
ATOM     32  H   UNL     1      25.839  29.021  14.940  1.00  0.00     0.211 HD
ENDBRANCH  20  31
BRANCH  21  33
ATOM     33  O   UNL     1      23.338  27.956  17.974  1.00  0.00    -0.385 OA
ATOM     34  H   UNL     1      23.740  27.069  18.118  1.00  0.00     0.211 HD
ENDBRANCH  21  33
ENDBRANCH  15  16
ENDBRANCH  10  15
BRANCH  12  35
ATOM     35  O   UNL     1      25.865  27.468  21.368  1.00  0.00    -0.385 OA
ATOM     36  H   UNL     1      25.985  26.463  21.371  1.00  0.00     0.211 HD
ENDBRANCH  12  35
BRANCH  13  37
ATOM     37  O   UNL     1      28.084  27.370  18.651  1.00  0.00    -0.387 OA
ATOM     38  H   UNL     1      27.968  28.131  17.998  1.00  0.00     0.211 HD
ENDBRANCH  13  37
BRANCH  14  39
ATOM     39  O   UNL     1      29.871  28.781  20.044  1.00  0.00    -0.387 OA
ATOM     40  H   UNL     1      30.534  28.563  20.731  1.00  0.00     0.211 HD
ENDBRANCH  14  39
ENDBRANCH   8   9
ENDBRANCH   7   8
ENDBRANCH   1   7
BRANCH   1  41
ATOM     41  C   UNL     1      28.287  30.669  16.261  1.00  0.00     0.364 C 
ATOM     42  O   UNL     1      27.498  31.252  15.484  1.00  0.00    -0.246 OA
BRANCH  41  43
ATOM     43  O   UNL     1      28.289  29.262  16.298  1.00  0.00    -0.477 OA
ATOM     44  H   UNL     1      29.172  28.782  16.480  1.00  0.00     0.296 HD
ENDBRANCH  41  43
ENDBRANCH   1  41
BRANCH   3  45
ATOM     45  O   UNL     1      31.855  32.925  15.019  1.00  0.00    -0.391 OA
ATOM     46  H   UNL     1      31.916  33.932  15.089  1.00  0.00     0.211 HD
ENDBRANCH   3  45
BRANCH   5  47
ATOM     47  C   UNL     1      30.296  34.299  18.249  1.00  0.00     0.176 C 
BRANCH  47  48
ATOM     48  O   UNL     1      31.531  34.513  17.654  1.00  0.00    -0.388 OA
ATOM     49  H   UNL     1      31.565  35.484  17.446  1.00  0.00     0.211 HD
ENDBRANCH  47  48
BRANCH  47  50
ATOM     50  C   UNL     1      29.950  35.314  19.231  1.00  0.00     0.165 C 
BRANCH  50  51
ATOM     51  O   UNL     1      29.344  36.485  18.728  1.00  0.00    -0.388 OA
ATOM     52  H   UNL     1      28.909  36.294  17.856  1.00  0.00     0.211 HD
ENDBRANCH  50  51
BRANCH  50  53
ATOM     53  C   UNL     1      30.899  35.735  20.298  1.00  0.00     0.154 C 
BRANCH  53  54
ATOM     54  N   UNL     1      31.889  36.691  19.879  1.00  0.00    -0.319 N 
ATOM     55  C   UNL     1      33.257  36.319  19.728  1.00  0.00     0.407 C 
ATOM     56  H   UNL     1      31.614  37.680  19.680  1.00  0.00     0.167 HD
ATOM     57  O   UNL     1      33.590  35.129  19.951  1.00  0.00    -0.225 OA
BRANCH  55  58
ATOM     58  O   UNL     1      34.186  37.263  19.348  1.00  0.00    -0.443 OA
BRANCH  58  59
ATOM     59  C   UNL     1      34.952  37.171  18.196  1.00  0.00     0.294 C 
BRANCH  59  60
ATOM     60  C   UNL     1      34.146  36.774  17.041  1.00  0.00     0.121 A 
ATOM     61  C   UNL     1      33.203  37.575  16.369  1.00  0.00     0.144 A 
ATOM     62  N   UNL     1      34.120  35.616  16.396  1.00  0.00    -0.131 NA
ATOM     63  N   UNL     1      32.677  36.859  15.376  1.00  0.00    -0.220 N 
ATOM     64  N   UNL     1      33.247  35.673  15.410  1.00  0.00    -0.062 NA
BRANCH  63  65
ATOM     65  C   UNL     1      31.670  37.352  14.474  1.00  0.00     0.066 A 
ATOM     66  C   UNL     1      30.989  38.512  14.771  1.00  0.00     0.029 A 
ATOM     67  C   UNL     1      31.364  36.706  13.295  1.00  0.00     0.029 A 
ATOM     68  C   UNL     1      30.020  39.008  13.894  1.00  0.00     0.005 A 
ATOM     69  C   UNL     1      30.393  37.201  12.417  1.00  0.00     0.005 A 
ATOM     70  C   UNL     1      29.716  38.360  12.718  1.00  0.00    -0.051 A 
ATOM     71  C   UNL     1      28.686  38.897  11.772  1.00  0.00     0.044 C 
ENDBRANCH  63  65
ENDBRANCH  59  60
ENDBRANCH  58  59
ENDBRANCH  55  58
ENDBRANCH  53  54
ENDBRANCH  50  53
ENDBRANCH  47  50
ENDBRANCH   5  47
BRANCH   4  72
ATOM     72  N   UNL     1      28.782  34.248  14.925  1.00  0.00    -0.348 N 
ATOM     73  C   UNL     1      28.189  35.547  14.932  1.00  0.00     0.217 C 
ATOM     74  H   UNL     1      28.444  33.607  14.180  1.00  0.00     0.163 HD
ATOM     75  C   UNL     1      27.154  35.940  13.927  1.00  0.00     0.114 C 
ATOM     76  O   UNL     1      28.600  36.320  15.833  1.00  0.00    -0.275 OA
ENDBRANCH   4  72
TORSDOF 30
BEGIN_RES LYS A 131
REMARK  4 active torsions:
REMARK  status: ('A' for Active; 'I' for Inactive)
REMARK    1  A    between atoms: CA   and  CB  
REMARK    2  A    between atoms: CB   and  CG  
REMARK    3  A    between atoms: CG   and  CD  
REMARK    4  A    between atoms: CD   and  CE  
ROOT
ATOM      1  CA  LYS A 131      29.867  25.555  16.977  1.00 20.52     0.186 C 
ENDROOT
BRANCH   1   2
ATOM      2  CB  LYS A 131      28.345  25.722  17.026  1.00 20.94     0.034 C 
BRANCH   2   3
ATOM      3  CG  LYS A 131      27.601  24.403  16.888  1.00 22.96     0.005 C 
BRANCH   3   4
ATOM      4  CD  LYS A 131      26.580  24.212  17.974  1.00 24.33     0.041 C 
BRANCH   4   5
ATOM      5  CE  LYS A 131      25.373  25.104  17.701  1.00 26.91     0.338 C 
ATOM      6  NZ  LYS A 131      24.426  24.429  16.782  1.00 27.40     0.618 N 
ENDBRANCH   4   5
ENDBRANCH   3   4
ENDBRANCH   2   3
ENDBRANCH   1   2
END_RES LYS A 131
BEGIN_RES LYS A 135
REMARK  4 active torsions:
REMARK  status: ('A' for Active; 'I' for Inactive)
REMARK    5  A    between atoms: CA   and  CB  
REMARK    6  A    between atoms: CB   and  CG  
REMARK    7  A    between atoms: CG   and  CD  
REMARK    8  A    between atoms: CD   and  CE  
ROOT
ATOM      7  CA  LYS A 135      33.193  34.663   9.290  1.00 25.02     0.186 C 
ENDROOT
BRANCH   7   8
ATOM      8  CB  LYS A 135      32.060  35.360  10.034  1.00 26.63     0.034 C 
BRANCH   8   9
ATOM      9  CG  LYS A 135      30.712  34.725   9.811  1.00 29.45     0.005 C 
BRANCH   9  10
ATOM     10  CD  LYS A 135      30.451  34.526   8.326  1.00 32.00     0.041 C 
BRANCH  10  11
ATOM     11  CE  LYS A 135      29.002  34.825   7.995  1.00 34.25     0.338 C 
ATOM     12  NZ  LYS A 135      28.885  35.544   6.696  1.00 35.99     0.618 N 
ENDBRANCH  10  11
ENDBRANCH   9  10
ENDBRANCH   8   9
ENDBRANCH   7   8
END_RES LYS A 135
