REMARK VINA RESULT:    -3.175      3.673      8.889
REMARK INTER + INTRA:         -21.612
REMARK INTER:                  -7.893
REMARK INTRA:                 -13.719
REMARK UNBOUND:               -13.239
REMARK SMILES CCOC(=O)Cn1cc(COC(=O)NC[C@@H](O)C(O)[C@@H]2O[C@@](OC[C@H]3O[C@@H](O[C@H]4[C@H](O)[C@@H](O)[C@H](OCCN=[N+]=[N-])O[C@@H]4CO)[C@H](O)[C@@H](O)[C@H]3O)(C(=O)O)C[C@H](O)[C@H]2NC(C)=O)nn1
REMARK SMILES IDX 18 1 20 2 22 3 54 4 21 5 55 6 57 7 23 8 24 9 25 10 27 11
REMARK SMILES IDX 26 12 45 13 47 14 49 15 28 16 29 17 42 18 41 19 34 20 30 21
REMARK SMILES IDX 32 22 43 23 44 24 35 26 36 27 37 28 38 29 39 30 40 31 31 32
REMARK SMILES IDX 33 34 46 36 48 38 50 40 51 42 52 43 53 44 56 46 58 48 59 49
REMARK SMILES IDX 60 51 61 52 19 53 16 55 17 56 15 58 14 59 12 60 13 62 11 63
REMARK SMILES IDX 10 64 9 65 8 66 62 67 7 68 63 69 6 70 4 71 5 72 3 73 2 74
REMARK SMILES IDX 1 75
REMARK H PARENT 44 25 31 33 33 35 46 37 48 39 50 41 53 45 56 47 58 50 19 54
REMARK H PARENT 17 57 14 61
REMARK Flexibility Score: inf
ROOT
ATOM      1  C   UNL     1      22.632  36.089   9.469  1.00  0.00     0.176 C 
ENDROOT
BRANCH   1   2
ATOM      2  C   UNL     1      23.439  35.621  10.648  1.00  0.00     0.178 C 
ATOM      3  C   UNL     1      23.866  36.141  12.888  1.00  0.00     0.272 C 
ATOM      4  C   UNL     1      24.990  35.183  12.687  1.00  0.00     0.113 C 
ATOM      5  O   UNL     1      22.931  36.088  11.832  1.00  0.00    -0.332 OA
ATOM      6  C   UNL     1      25.738  35.377  11.408  1.00  0.00     0.145 C 
ATOM      7  C   UNL     1      24.847  36.154  10.451  1.00  0.00     0.142 C 
BRANCH   3   8
ATOM      8  O   UNL     1      24.233  37.455  13.087  1.00  0.00    -0.338 OA
BRANCH   8   9
ATOM      9  C   UNL     1      23.258  38.376  13.261  1.00  0.00     0.199 C 
BRANCH   9  10
ATOM     10  C   UNL     1      23.875  39.773  13.052  1.00  0.00     0.179 C 
ATOM     11  C   UNL     1      25.895  40.909  12.956  1.00  0.00     0.282 C 
ATOM     12  O   UNL     1      25.201  39.786  13.349  1.00  0.00    -0.341 OA
ATOM     13  C   UNL     1      25.693  41.276  11.518  1.00  0.00     0.202 C 
ATOM     14  C   UNL     1      24.225  41.567  11.341  1.00  0.00     0.179 C 
ATOM     15  C   UNL     1      23.482  40.329  11.715  1.00  0.00     0.177 C 
BRANCH  11  16
ATOM     16  O   UNL     1      27.256  40.815  13.194  1.00  0.00    -0.341 OA
BRANCH  16  17
ATOM     17  C   UNL     1      27.753  39.539  13.277  1.00  0.00     0.184 C 
ATOM     18  C   UNL     1      28.298  39.194  14.647  1.00  0.00     0.178 C 
ATOM     19  O   UNL     1      29.681  39.073  14.631  1.00  0.00    -0.341 OA
ATOM     20  C   UNL     1      30.107  37.975  13.849  1.00  0.00     0.281 C 
ATOM     21  C   UNL     1      28.875  39.363  12.255  1.00  0.00     0.180 C 
ATOM     22  C   UNL     1      29.461  37.981  12.500  1.00  0.00     0.202 C 
BRANCH  18  23
ATOM     23  C   UNL     1      27.589  37.984  15.197  1.00  0.00     0.191 C 
BRANCH  23  24
ATOM     24  O   UNL     1      27.938  37.768  16.543  1.00  0.00    -0.394 OA
ATOM     25  H   UNL     1      27.408  38.329  17.143  1.00  0.00     0.210 HD
ENDBRANCH  23  24
ENDBRANCH  18  23
BRANCH  20  26
ATOM     26  O   UNL     1      29.916  36.798  14.522  1.00  0.00    -0.350 OA
BRANCH  26  27
ATOM     27  C   UNL     1      30.754  35.754  14.319  1.00  0.00     0.169 C 
BRANCH  27  28
ATOM     28  C   UNL     1      30.305  34.602  13.501  1.00  0.00     0.119 C 
BRANCH  28  29
ATOM     29  N   UNL     1      28.904  34.428  13.322  1.00  0.00    -0.092 NA
ATOM     30  N   UNL     1      28.157  34.154  14.284  1.00  0.00     0.001 N 
ATOM     31  N   UNL     1      27.582  34.088  15.385  1.00  0.00    -0.003 NA
ENDBRANCH  28  29
ENDBRANCH  27  28
ENDBRANCH  26  27
ENDBRANCH  20  26
BRANCH  21  32
ATOM     32  O   UNL     1      28.337  39.428  10.967  1.00  0.00    -0.387 OA
ATOM     33  H   UNL     1      29.110  39.584  10.342  1.00  0.00     0.211 HD
ENDBRANCH  21  32
BRANCH  22  34
ATOM     34  O   UNL     1      30.348  37.667  11.467  1.00  0.00    -0.385 OA
ATOM     35  H   UNL     1      31.292  37.860  11.686  1.00  0.00     0.211 HD
ENDBRANCH  22  34
ENDBRANCH  16  17
ENDBRANCH  11  16
BRANCH  13  36
ATOM     36  O   UNL     1      26.447  42.409  11.237  1.00  0.00    -0.385 OA
ATOM     37  H   UNL     1      26.763  42.485  10.324  1.00  0.00     0.211 HD
ENDBRANCH  13  36
BRANCH  14  38
ATOM     38  O   UNL     1      24.004  41.843   9.973  1.00  0.00    -0.387 OA
ATOM     39  H   UNL     1      23.835  42.809   9.842  1.00  0.00     0.211 HD
ENDBRANCH  14  38
BRANCH  15  40
ATOM     40  O   UNL     1      23.692  39.384  10.684  1.00  0.00    -0.387 OA
ATOM     41  H   UNL     1      22.774  39.110  10.412  1.00  0.00     0.211 HD
ENDBRANCH  15  40
ENDBRANCH   9  10
ENDBRANCH   8   9
ENDBRANCH   3   8
BRANCH   3  42
ATOM     42  C   UNL     1      23.087  35.674  14.060  1.00  0.00     0.364 C 
ATOM     43  O   UNL     1      21.898  35.315  13.908  1.00  0.00    -0.246 OA
BRANCH  42  44
ATOM     44  O   UNL     1      23.650  35.634  15.305  1.00  0.00    -0.477 OA
ATOM     45  H   UNL     1      24.006  36.465  15.769  1.00  0.00     0.296 HD
ENDBRANCH  42  44
ENDBRANCH   3  42
BRANCH   6  46
ATOM     46  O   UNL     1      26.981  35.948  11.539  1.00  0.00    -0.391 OA
ATOM     47  H   UNL     1      26.897  36.932  11.392  1.00  0.00     0.211 HD
ENDBRANCH   6  46
BRANCH   7  48
ATOM     48  N   UNL     1      25.292  35.978   9.076  1.00  0.00    -0.348 N 
ATOM     49  C   UNL     1      26.119  36.924   8.425  1.00  0.00     0.217 C 
ATOM     50  H   UNL     1      24.996  35.131   8.562  1.00  0.00     0.163 HD
ATOM     51  C   UNL     1      26.581  36.757   7.015  1.00  0.00     0.114 C 
ATOM     52  O   UNL     1      26.473  37.947   9.073  1.00  0.00    -0.275 OA
ENDBRANCH   7  48
ENDBRANCH   1   2
BRANCH   1  53
ATOM     53  O   UNL     1      22.161  35.013   8.742  1.00  0.00    -0.388 OA
ATOM     54  H   UNL     1      22.879  34.369   8.478  1.00  0.00     0.211 HD
ENDBRANCH   1  53
BRANCH   1  55
ATOM     55  C   UNL     1      21.454  36.963   9.864  1.00  0.00     0.165 C 
BRANCH  55  56
ATOM     56  O   UNL     1      20.321  36.241  10.152  1.00  0.00    -0.388 OA
ATOM     57  H   UNL     1      19.534  36.495   9.616  1.00  0.00     0.211 HD
ENDBRANCH  55  56
BRANCH  55  58
ATOM     58  C   UNL     1      21.214  37.953   8.774  1.00  0.00     0.154 C 
BRANCH  58  59
ATOM     59  N   UNL     1      22.328  38.187   7.924  1.00  0.00    -0.319 N 
ATOM     60  C   UNL     1      22.900  39.457   7.646  1.00  0.00     0.407 C 
ATOM     61  H   UNL     1      22.810  37.358   7.428  1.00  0.00     0.167 HD
ATOM     62  O   UNL     1      22.457  40.503   8.148  1.00  0.00    -0.225 OA
BRANCH  60  63
ATOM     63  O   UNL     1      24.004  39.535   6.780  1.00  0.00    -0.443 OA
BRANCH  63  64
ATOM     64  C   UNL     1      24.671  40.737   6.580  1.00  0.00     0.294 C 
BRANCH  64  65
ATOM     65  C   UNL     1      26.035  40.772   7.141  1.00  0.00     0.120 A 
ATOM     66  C   UNL     1      27.171  40.230   6.571  1.00  0.00     0.139 A 
ATOM     67  N   UNL     1      26.441  41.312   8.298  1.00  0.00    -0.132 NA
ATOM     68  N   UNL     1      28.230  40.451   7.386  1.00  0.00    -0.241 N 
ATOM     69  N   UNL     1      27.750  41.109   8.419  1.00  0.00    -0.066 NA
BRANCH  68  70
ATOM     70  C   UNL     1      29.593  40.014   7.111  1.00  0.00     0.268 C 
BRANCH  70  71
ATOM     71  C   UNL     1      30.060  39.229   8.309  1.00  0.00     0.327 C 
ATOM     72  O   UNL     1      29.712  38.049   8.506  1.00  0.00    -0.250 OA
BRANCH  71  73
ATOM     73  O   UNL     1      30.904  39.796   9.248  1.00  0.00    -0.465 OA
BRANCH  73  74
ATOM     74  C   UNL     1      32.267  39.508   9.372  1.00  0.00     0.229 C 
ATOM     75  C   UNL     1      33.095  40.085   8.250  1.00  0.00     0.049 C 
ENDBRANCH  73  74
ENDBRANCH  71  73
ENDBRANCH  70  71
ENDBRANCH  68  70
ENDBRANCH  64  65
ENDBRANCH  63  64
ENDBRANCH  60  63
ENDBRANCH  58  59
ENDBRANCH  55  58
ENDBRANCH   1  55
TORSDOF 33
BEGIN_RES LYS A 131
REMARK  4 active torsions:
REMARK  status: ('A' for Active; 'I' for Inactive)
REMARK    1  A    between atoms: CA   and  CB  
REMARK    2  A    between atoms: CB   and  CG  
REMARK    3  A    between atoms: CG   and  CD  
REMARK    4  A    between atoms: CD   and  CE  
ROOT
ATOM      1  CA  LYS A 131      29.867  25.555  16.977  1.00 20.52     0.186 C 
ENDROOT
BRANCH   1   2
ATOM      2  CB  LYS A 131      28.345  25.722  17.026  1.00 20.94     0.034 C 
BRANCH   2   3
ATOM      3  CG  LYS A 131      27.601  24.402  16.889  1.00 22.96     0.005 C 
BRANCH   3   4
ATOM      4  CD  LYS A 131      26.147  24.532  17.247  1.00 24.33     0.041 C 
BRANCH   4   5
ATOM      5  CE  LYS A 131      25.574  23.153  17.558  1.00 26.91     0.338 C 
ATOM      6  NZ  LYS A 131      24.158  23.071  17.128  1.00 27.40     0.618 N 
ENDBRANCH   4   5
ENDBRANCH   3   4
ENDBRANCH   2   3
ENDBRANCH   1   2
END_RES LYS A 131
BEGIN_RES LYS A 135
REMARK  4 active torsions:
REMARK  status: ('A' for Active; 'I' for Inactive)
REMARK    5  A    between atoms: CA   and  CB  
REMARK    6  A    between atoms: CB   and  CG  
REMARK    7  A    between atoms: CG   and  CD  
REMARK    8  A    between atoms: CD   and  CE  
ROOT
ATOM      7  CA  LYS A 135      33.193  34.663   9.290  1.00 25.02     0.186 C 
ENDROOT
BRANCH   7   8
ATOM      8  CB  LYS A 135      32.060  35.360  10.034  1.00 26.63     0.034 C 
BRANCH   8   9
ATOM      9  CG  LYS A 135      30.734  34.655   9.909  1.00 29.45     0.005 C 
BRANCH   9  10
ATOM     10  CD  LYS A 135      30.358  34.475   8.446  1.00 32.00     0.041 C 
BRANCH  10  11
ATOM     11  CE  LYS A 135      28.850  34.463   8.282  1.00 34.25     0.338 C 
ATOM     12  NZ  LYS A 135      28.195  33.726   9.398  1.00 35.99     0.618 N 
ENDBRANCH  10  11
ENDBRANCH   9  10
ENDBRANCH   8   9
ENDBRANCH   7   8
END_RES LYS A 135
