REMARK VINA RESULT:    -3.279      4.223      9.549
REMARK INTER + INTRA:         -22.120
REMARK INTER:                  -6.992
REMARK INTRA:                 -15.128
REMARK UNBOUND:               -13.473
REMARK SMILES CC(=O)N[C@@H]1[C@@H](O)C[C@](OC[C@H]2O[C@@H](O[C@H]3[C@H](O)[C@@H](O)[C@H](OCCN=[N+]=[N-])O[C@@H]3CO)[C@H](O)[C@@H](O)[C@H]2O)(C(=O)O)O[C@H]1C(O)[C@H](O)CNC(=O)OCc1cn(CCOC(C)=O)nn1
REMARK SMILES IDX 43 1 42 2 9 3 8 4 41 5 6 6 5 7 10 8 11 9 12 10 14 11 13 12
REMARK SMILES IDX 32 13 34 14 36 15 15 16 16 17 29 18 28 19 21 20 17 21 19 22
REMARK SMILES IDX 30 23 31 24 22 26 23 27 24 28 25 29 26 30 27 31 18 32 20 34
REMARK SMILES IDX 33 36 35 38 37 40 38 42 39 43 40 44 7 46 4 48 2 49 1 51 3 52
REMARK SMILES IDX 44 53 45 55 46 56 47 58 48 59 49 60 50 62 51 63 52 64 53 65
REMARK SMILES IDX 54 66 63 67 55 68 62 69 56 70 57 71 58 72 59 73 61 74 60 75
REMARK H PARENT 31 25 18 33 20 35 33 37 35 39 37 41 40 45 7 47 4 50 44 54
REMARK H PARENT 46 57 48 61
REMARK Flexibility Score: inf
ROOT
ATOM      1  C   UNL     1      26.603  39.737  12.138  1.00  0.00     0.176 C 
ENDROOT
BRANCH   1   2
ATOM      2  C   UNL     1      28.061  39.359  12.204  1.00  0.00     0.178 C 
ATOM      3  C   UNL     1      29.897  39.173  10.737  1.00  0.00     0.272 C 
ATOM      4  C   UNL     1      30.570  38.886  12.057  1.00  0.00     0.113 C 
ATOM      5  O   UNL     1      28.565  39.637  10.916  1.00  0.00    -0.332 OA
ATOM      6  C   UNL     1      29.838  37.891  12.884  1.00  0.00     0.145 C 
ATOM      7  C   UNL     1      28.349  37.909  12.434  1.00  0.00     0.142 C 
BRANCH   3   8
ATOM      8  O   UNL     1      29.830  38.199   9.863  1.00  0.00    -0.338 OA
BRANCH   8   9
ATOM      9  C   UNL     1      30.136  38.124   8.598  1.00  0.00     0.199 C 
BRANCH   9  10
ATOM     10  C   UNL     1      29.208  38.202   7.461  1.00  0.00     0.179 C 
ATOM     11  C   UNL     1      27.133  37.421   6.832  1.00  0.00     0.282 C 
ATOM     12  O   UNL     1      27.899  37.810   7.941  1.00  0.00    -0.341 OA
ATOM     13  C   UNL     1      27.280  38.291   5.655  1.00  0.00     0.202 C 
ATOM     14  C   UNL     1      28.060  39.549   5.815  1.00  0.00     0.179 C 
ATOM     15  C   UNL     1      28.908  39.652   7.034  1.00  0.00     0.177 C 
BRANCH  11  16
ATOM     16  O   UNL     1      25.843  37.218   7.294  1.00  0.00    -0.341 OA
BRANCH  16  17
ATOM     17  C   UNL     1      25.473  38.091   8.284  1.00  0.00     0.184 C 
ATOM     18  C   UNL     1      24.632  37.371   9.314  1.00  0.00     0.178 C 
ATOM     19  O   UNL     1      24.337  38.331  10.292  1.00  0.00    -0.341 OA
ATOM     20  C   UNL     1      23.355  39.160   9.839  1.00  0.00     0.281 C 
ATOM     21  C   UNL     1      24.704  39.282   7.735  1.00  0.00     0.180 C 
ATOM     22  C   UNL     1      23.350  39.412   8.350  1.00  0.00     0.202 C 
BRANCH  18  23
ATOM     23  C   UNL     1      25.440  36.260   9.959  1.00  0.00     0.191 C 
BRANCH  23  24
ATOM     24  O   UNL     1      26.742  36.681  10.155  1.00  0.00    -0.394 OA
ATOM     25  H   UNL     1      26.718  37.683  10.102  1.00  0.00     0.210 HD
ENDBRANCH  23  24
ENDBRANCH  18  23
BRANCH  20  26
ATOM     26  O   UNL     1      23.458  40.363  10.551  1.00  0.00    -0.350 OA
BRANCH  26  27
ATOM     27  C   UNL     1      22.681  41.361   9.975  1.00  0.00     0.169 C 
BRANCH  27  28
ATOM     28  C   UNL     1      23.479  42.657  10.156  1.00  0.00     0.119 C 
BRANCH  28  29
ATOM     29  N   UNL     1      23.002  43.314  11.361  1.00  0.00    -0.092 NA
ATOM     30  N   UNL     1      23.714  44.077  12.026  1.00  0.00     0.001 N 
ATOM     31  N   UNL     1      24.509  44.507  12.883  1.00  0.00    -0.003 NA
ENDBRANCH  28  29
ENDBRANCH  27  28
ENDBRANCH  26  27
ENDBRANCH  20  26
BRANCH  21  32
ATOM     32  O   UNL     1      25.414  40.474   7.821  1.00  0.00    -0.387 OA
ATOM     33  H   UNL     1      26.137  40.460   8.495  1.00  0.00     0.211 HD
ENDBRANCH  21  32
BRANCH  22  34
ATOM     34  O   UNL     1      22.421  38.651   7.668  1.00  0.00    -0.385 OA
ATOM     35  H   UNL     1      22.768  37.714   7.608  1.00  0.00     0.211 HD
ENDBRANCH  22  34
ENDBRANCH  16  17
ENDBRANCH  11  16
BRANCH  13  36
ATOM     36  O   UNL     1      27.713  37.564   4.514  1.00  0.00    -0.385 OA
ATOM     37  H   UNL     1      27.111  37.692   3.751  1.00  0.00     0.211 HD
ENDBRANCH  13  36
BRANCH  14  38
ATOM     38  O   UNL     1      27.230  40.680   5.775  1.00  0.00    -0.387 OA
ATOM     39  H   UNL     1      27.569  41.285   5.052  1.00  0.00     0.211 HD
ENDBRANCH  14  38
BRANCH  15  40
ATOM     40  O   UNL     1      28.097  40.227   8.051  1.00  0.00    -0.387 OA
ATOM     41  H   UNL     1      27.921  41.170   7.858  1.00  0.00     0.211 HD
ENDBRANCH  15  40
ENDBRANCH   9  10
ENDBRANCH   8   9
ENDBRANCH   3   8
BRANCH   3  42
ATOM     42  C   UNL     1      30.553  40.411  10.231  1.00  0.00     0.364 C 
ATOM     43  O   UNL     1      29.976  41.427   9.802  1.00  0.00    -0.246 OA
BRANCH  42  44
ATOM     44  O   UNL     1      31.963  40.494  10.212  1.00  0.00    -0.477 OA
ATOM     45  H   UNL     1      32.411  40.915   9.412  1.00  0.00     0.296 HD
ENDBRANCH  42  44
ENDBRANCH   3  42
BRANCH   6  46
ATOM     46  O   UNL     1      30.340  36.611  12.858  1.00  0.00    -0.391 OA
ATOM     47  H   UNL     1      31.294  36.564  12.590  1.00  0.00     0.211 HD
ENDBRANCH   6  46
BRANCH   7  48
ATOM     48  N   UNL     1      27.562  37.220  13.401  1.00  0.00    -0.348 N 
ATOM     49  C   UNL     1      27.318  35.825  13.321  1.00  0.00     0.217 C 
ATOM     50  H   UNL     1      27.173  37.742  14.202  1.00  0.00     0.163 HD
ATOM     51  C   UNL     1      26.489  35.109  14.340  1.00  0.00     0.114 C 
ATOM     52  O   UNL     1      27.792  35.117  12.381  1.00  0.00    -0.275 OA
ENDBRANCH   7  48
ENDBRANCH   1   2
BRANCH   1  53
ATOM     53  O   UNL     1      26.460  40.369  10.862  1.00  0.00    -0.388 OA
ATOM     54  H   UNL     1      25.549  40.242  10.525  1.00  0.00     0.211 HD
ENDBRANCH   1  53
BRANCH   1  55
ATOM     55  C   UNL     1      26.306  40.844  13.121  1.00  0.00     0.165 C 
BRANCH  55  56
ATOM     56  O   UNL     1      24.991  41.294  12.923  1.00  0.00    -0.388 OA
ATOM     57  H   UNL     1      24.659  41.649  13.772  1.00  0.00     0.211 HD
ENDBRANCH  55  56
BRANCH  55  58
ATOM     58  C   UNL     1      27.290  41.970  13.060  1.00  0.00     0.154 C 
BRANCH  58  59
ATOM     59  N   UNL     1      27.025  42.971  12.075  1.00  0.00    -0.319 N 
ATOM     60  C   UNL     1      27.907  44.029  11.782  1.00  0.00     0.407 C 
ATOM     61  H   UNL     1      26.126  42.965  11.500  1.00  0.00     0.167 HD
ATOM     62  O   UNL     1      29.006  44.172  12.357  1.00  0.00    -0.225 OA
BRANCH  60  63
ATOM     63  O   UNL     1      27.601  45.002  10.817  1.00  0.00    -0.443 OA
BRANCH  63  64
ATOM     64  C   UNL     1      26.817  44.727   9.692  1.00  0.00     0.294 C 
BRANCH  64  65
ATOM     65  C   UNL     1      27.620  44.142   8.584  1.00  0.00     0.120 A 
ATOM     66  C   UNL     1      28.915  44.531   8.284  1.00  0.00     0.138 A 
ATOM     67  N   UNL     1      27.317  43.190   7.707  1.00  0.00    -0.132 NA
ATOM     68  N   UNL     1      29.326  43.799   7.245  1.00  0.00    -0.249 N 
ATOM     69  N   UNL     1      28.338  42.989   6.909  1.00  0.00    -0.067 NA
BRANCH  68  70
ATOM     70  C   UNL     1      30.629  43.870   6.566  1.00  0.00     0.187 C 
BRANCH  70  71
ATOM     71  C   UNL     1      30.985  42.513   6.000  1.00  0.00     0.256 C 
BRANCH  71  72
ATOM     72  O   UNL     1      31.880  41.873   6.902  1.00  0.00    -0.464 OA
BRANCH  72  73
ATOM     73  C   UNL     1      32.367  40.598   6.627  1.00  0.00     0.302 C 
ATOM     74  O   UNL     1      32.861  39.940   7.573  1.00  0.00    -0.253 OA
ATOM     75  C   UNL     1      32.318  40.001   5.252  1.00  0.00     0.139 C 
ENDBRANCH  72  73
ENDBRANCH  71  72
ENDBRANCH  70  71
ENDBRANCH  68  70
ENDBRANCH  64  65
ENDBRANCH  63  64
ENDBRANCH  60  63
ENDBRANCH  58  59
ENDBRANCH  55  58
ENDBRANCH   1  55
TORSDOF 33
BEGIN_RES LYS A 131
REMARK  4 active torsions:
REMARK  status: ('A' for Active; 'I' for Inactive)
REMARK    1  A    between atoms: CA   and  CB  
REMARK    2  A    between atoms: CB   and  CG  
REMARK    3  A    between atoms: CG   and  CD  
REMARK    4  A    between atoms: CD   and  CE  
ROOT
ATOM      1  CA  LYS A 131      29.867  25.555  16.977  1.00 20.52     0.186 C 
ENDROOT
BRANCH   1   2
ATOM      2  CB  LYS A 131      28.345  25.722  17.026  1.00 20.94     0.034 C 
BRANCH   2   3
ATOM      3  CG  LYS A 131      27.601  24.401  16.903  1.00 22.96     0.005 C 
BRANCH   3   4
ATOM      4  CD  LYS A 131      26.155  24.526  17.294  1.00 24.33     0.041 C 
BRANCH   4   5
ATOM      5  CE  LYS A 131      25.966  25.774  18.152  1.00 26.91     0.338 C 
ATOM      6  NZ  LYS A 131      25.713  25.399  19.563  1.00 27.40     0.618 N 
ENDBRANCH   4   5
ENDBRANCH   3   4
ENDBRANCH   2   3
ENDBRANCH   1   2
END_RES LYS A 131
BEGIN_RES LYS A 135
REMARK  4 active torsions:
REMARK  status: ('A' for Active; 'I' for Inactive)
REMARK    5  A    between atoms: CA   and  CB  
REMARK    6  A    between atoms: CB   and  CG  
REMARK    7  A    between atoms: CG   and  CD  
REMARK    8  A    between atoms: CD   and  CE  
ROOT
ATOM      7  CA  LYS A 135      33.193  34.663   9.290  1.00 25.02     0.186 C 
ENDROOT
BRANCH   7   8
ATOM      8  CB  LYS A 135      32.060  35.360  10.034  1.00 26.63     0.034 C 
BRANCH   8   9
ATOM      9  CG  LYS A 135      30.735  34.653   9.912  1.00 29.45     0.005 C 
BRANCH   9  10
ATOM     10  CD  LYS A 135      30.351  34.480   8.451  1.00 32.00     0.041 C 
BRANCH  10  11
ATOM     11  CE  LYS A 135      28.842  34.471   8.294  1.00 34.25     0.338 C 
ATOM     12  NZ  LYS A 135      28.192  33.719   9.403  1.00 35.99     0.618 N 
ENDBRANCH  10  11
ENDBRANCH   9  10
ENDBRANCH   8   9
ENDBRANCH   7   8
END_RES LYS A 135
