REMARK VINA RESULT:    -5.343      2.075      7.022
REMARK INTER + INTRA:         -21.379
REMARK INTER:                 -12.310
REMARK INTRA:                  -9.069
REMARK UNBOUND:                -8.226
REMARK SMILES CC(=O)N[C@@H]1[C@@H](O)C[C@](OC[C@H]2O[C@@H](O[C@H]3[C@H](O)[C@@H](O)[C@H](OCCN=[N+]=[N-])O[C@@H]3CO)[C@H](O)[C@@H](O)[C@H]2O)(C(=O)O)O[C@H]1C(O)[C@H](O)CNC(=O)OCc1cn(-c2ccccc2Br)nn1
REMARK SMILES IDX 9 1 8 2 6 3 5 4 42 5 41 6 10 7 11 8 12 9 14 10 13 11 32 12
REMARK SMILES IDX 34 13 36 14 15 15 16 16 29 17 28 18 21 19 17 20 19 21 30 22
REMARK SMILES IDX 31 23 22 25 23 26 24 27 25 28 26 29 27 30 18 31 20 33 33 35
REMARK SMILES IDX 35 37 37 39 38 41 39 42 40 43 7 45 43 47 44 48 45 50 46 51
REMARK SMILES IDX 47 53 48 54 49 55 50 57 51 58 52 59 53 60 54 61 64 62 55 63
REMARK SMILES IDX 63 64 56 65 57 66 61 67 58 68 60 69 62 70 59 71 4 72 2 73
REMARK SMILES IDX 1 75 3 76
REMARK H PARENT 31 24 18 32 20 34 33 36 35 38 37 40 40 44 7 46 44 49 46 52
REMARK H PARENT 48 56 4 74
REMARK Flexibility Score: inf
ROOT
ATOM      1  C   UNL     1      27.651  38.783   6.767  1.00  0.00     0.272 C 
ATOM      2  C   UNL     1      26.949  40.015   7.197  1.00  0.00     0.113 C 
ATOM      3  C   UNL     1      25.476  39.804   7.329  1.00  0.00     0.145 C 
ATOM      4  C   UNL     1      25.061  38.552   8.016  1.00  0.00     0.142 C 
ATOM      5  C   UNL     1      26.187  37.591   8.169  1.00  0.00     0.178 C 
ATOM      6  O   UNL     1      27.138  37.580   7.205  1.00  0.00    -0.332 OA
ENDROOT
BRANCH   1   7
ATOM      7  O   UNL     1      28.993  38.717   7.095  1.00  0.00    -0.338 OA
BRANCH   7   8
ATOM      8  C   UNL     1      29.892  38.883   6.096  1.00  0.00     0.199 C 
BRANCH   8   9
ATOM      9  C   UNL     1      30.629  40.218   6.370  1.00  0.00     0.179 C 
ATOM     10  C   UNL     1      31.316  41.442   8.206  1.00  0.00     0.282 C 
ATOM     11  O   UNL     1      30.335  40.720   7.580  1.00  0.00    -0.341 OA
ATOM     12  C   UNL     1      32.104  42.314   7.254  1.00  0.00     0.202 C 
ATOM     13  C   UNL     1      32.696  41.490   6.131  1.00  0.00     0.179 C 
ATOM     14  C   UNL     1      32.072  40.108   6.081  1.00  0.00     0.177 C 
BRANCH  10  15
ATOM     15  O   UNL     1      32.134  40.661   9.009  1.00  0.00    -0.341 OA
BRANCH  15  16
ATOM     16  C   UNL     1      31.485  40.029  10.043  1.00  0.00     0.184 C 
ATOM     17  C   UNL     1      31.885  40.511  11.416  1.00  0.00     0.178 C 
ATOM     18  O   UNL     1      30.883  40.103  12.283  1.00  0.00    -0.341 OA
ATOM     19  C   UNL     1      30.657  38.764  12.321  1.00  0.00     0.281 C 
ATOM     20  C   UNL     1      31.799  38.538  10.060  1.00  0.00     0.180 C 
ATOM     21  C   UNL     1      31.269  37.917  11.285  1.00  0.00     0.202 C 
BRANCH  17  22
ATOM     22  C   UNL     1      32.069  41.988  11.529  1.00  0.00     0.191 C 
BRANCH  22  23
ATOM     23  O   UNL     1      30.849  42.617  11.289  1.00  0.00    -0.394 OA
ATOM     24  H   UNL     1      30.133  42.128  11.730  1.00  0.00     0.210 HD
ENDBRANCH  22  23
ENDBRANCH  17  22
BRANCH  19  25
ATOM     25  O   UNL     1      29.254  38.598  12.260  1.00  0.00    -0.350 OA
BRANCH  25  26
ATOM     26  C   UNL     1      28.793  37.559  13.017  1.00  0.00     0.169 C 
BRANCH  26  27
ATOM     27  C   UNL     1      29.105  37.638  14.479  1.00  0.00     0.119 C 
BRANCH  27  28
ATOM     28  N   UNL     1      29.721  36.375  14.856  1.00  0.00    -0.092 NA
ATOM     29  N   UNL     1      30.917  36.200  14.677  1.00  0.00     0.001 N 
ATOM     30  N   UNL     1      32.125  36.027  14.573  1.00  0.00    -0.003 NA
ENDBRANCH  27  28
ENDBRANCH  26  27
ENDBRANCH  25  26
ENDBRANCH  19  25
BRANCH  20  31
ATOM     31  O   UNL     1      31.289  37.897   8.942  1.00  0.00    -0.387 OA
ATOM     32  H   UNL     1      30.648  37.182   9.160  1.00  0.00     0.211 HD
ENDBRANCH  20  31
BRANCH  21  33
ATOM     33  O   UNL     1      32.341  37.146  11.827  1.00  0.00    -0.385 OA
ATOM     34  H   UNL     1      33.205  37.597  11.683  1.00  0.00     0.211 HD
ENDBRANCH  21  33
ENDBRANCH  15  16
ENDBRANCH  10  15
BRANCH  12  35
ATOM     35  O   UNL     1      31.336  43.379   6.780  1.00  0.00    -0.385 OA
ATOM     36  H   UNL     1      30.584  43.583   7.388  1.00  0.00     0.211 HD
ENDBRANCH  12  35
BRANCH  13  37
ATOM     37  O   UNL     1      34.075  41.464   6.206  1.00  0.00    -0.387 OA
ATOM     38  H   UNL     1      34.395  40.573   6.455  1.00  0.00     0.211 HD
ENDBRANCH  13  37
BRANCH  14  39
ATOM     39  O   UNL     1      32.771  39.296   6.958  1.00  0.00    -0.387 OA
ATOM     40  H   UNL     1      33.751  39.396   6.880  1.00  0.00     0.211 HD
ENDBRANCH  14  39
ENDBRANCH   8   9
ENDBRANCH   7   8
ENDBRANCH   1   7
BRANCH   1  41
ATOM     41  C   UNL     1      27.482  38.717   5.260  1.00  0.00     0.364 C 
ATOM     42  O   UNL     1      27.299  39.804   4.671  1.00  0.00    -0.246 OA
BRANCH  41  43
ATOM     43  O   UNL     1      27.518  37.557   4.545  1.00  0.00    -0.477 OA
ATOM     44  H   UNL     1      27.967  36.716   4.940  1.00  0.00     0.296 HD
ENDBRANCH  41  43
ENDBRANCH   1  41
BRANCH   3  45
ATOM     45  O   UNL     1      24.927  40.938   7.970  1.00  0.00    -0.391 OA
ATOM     46  H   UNL     1      24.822  40.709   8.935  1.00  0.00     0.211 HD
ENDBRANCH   3  45
BRANCH   5  47
ATOM     47  C   UNL     1      26.722  37.578   9.600  1.00  0.00     0.176 C 
BRANCH  47  48
ATOM     48  O   UNL     1      28.091  37.639   9.672  1.00  0.00    -0.388 OA
ATOM     49  H   UNL     1      28.460  38.358   9.081  1.00  0.00     0.211 HD
ENDBRANCH  47  48
BRANCH  47  50
ATOM     50  C   UNL     1      26.268  36.315  10.350  1.00  0.00     0.165 C 
BRANCH  50  51
ATOM     51  O   UNL     1      25.513  35.566   9.484  1.00  0.00    -0.388 OA
ATOM     52  H   UNL     1      25.394  34.625   9.701  1.00  0.00     0.211 HD
ENDBRANCH  50  51
BRANCH  50  53
ATOM     53  C   UNL     1      25.494  36.687  11.572  1.00  0.00     0.154 C 
BRANCH  53  54
ATOM     54  N   UNL     1      25.217  35.564  12.401  1.00  0.00    -0.319 N 
ATOM     55  C   UNL     1      24.144  34.654  12.295  1.00  0.00     0.407 C 
ATOM     56  H   UNL     1      25.890  35.367  13.208  1.00  0.00     0.167 HD
ATOM     57  O   UNL     1      23.306  34.767  11.394  1.00  0.00    -0.225 OA
BRANCH  55  58
ATOM     58  O   UNL     1      24.008  33.608  13.206  1.00  0.00    -0.443 OA
BRANCH  58  59
ATOM     59  C   UNL     1      24.170  33.732  14.598  1.00  0.00     0.294 C 
BRANCH  59  60
ATOM     60  C   UNL     1      25.395  33.005  15.064  1.00  0.00     0.121 A 
ATOM     61  C   UNL     1      26.649  33.594  15.228  1.00  0.00     0.144 A 
ATOM     62  N   UNL     1      25.545  31.730  15.384  1.00  0.00    -0.131 NA
ATOM     63  N   UNL     1      27.488  32.633  15.641  1.00  0.00    -0.219 N 
ATOM     64  N   UNL     1      26.818  31.510  15.734  1.00  0.00    -0.062 NA
BRANCH  63  65
ATOM     65  C   UNL     1      28.867  32.785  15.930  1.00  0.00     0.081 A 
ATOM     66  C   UNL     1      29.838  32.481  15.002  1.00  0.00     0.029 A 
ATOM     67  C   UNL     1      29.265  33.247  17.156  1.00  0.00     0.043 A 
ATOM     68  C   UNL     1      31.183  32.644  15.322  1.00  0.00     0.002 A 
ATOM     69  C   UNL     1      30.591  33.410  17.478  1.00  0.00     0.018 A 
ATOM     70  Br  UNL     1      27.953  33.675  18.469  1.00  0.00    -0.048 Br
ATOM     71  C   UNL     1      31.570  33.110  16.560  1.00  0.00     0.001 A 
ENDBRANCH  63  65
ENDBRANCH  59  60
ENDBRANCH  58  59
ENDBRANCH  55  58
ENDBRANCH  53  54
ENDBRANCH  50  53
ENDBRANCH  47  50
ENDBRANCH   5  47
BRANCH   4  72
ATOM     72  N   UNL     1      23.932  37.905   7.386  1.00  0.00    -0.348 N 
ATOM     73  C   UNL     1      22.883  37.342   8.154  1.00  0.00     0.217 C 
ATOM     74  H   UNL     1      23.874  37.844   6.351  1.00  0.00     0.163 HD
ATOM     75  C   UNL     1      21.755  36.692   7.422  1.00  0.00     0.114 C 
ATOM     76  O   UNL     1      22.880  37.376   9.399  1.00  0.00    -0.275 OA
ENDBRANCH   4  72
TORSDOF 30
BEGIN_RES LYS A 131
REMARK  4 active torsions:
REMARK  status: ('A' for Active; 'I' for Inactive)
REMARK    1  A    between atoms: CA   and  CB  
REMARK    2  A    between atoms: CB   and  CG  
REMARK    3  A    between atoms: CG   and  CD  
REMARK    4  A    between atoms: CD   and  CE  
ROOT
ATOM      1  CA  LYS A 131      29.867  25.555  16.977  1.00 20.52     0.186 C 
ENDROOT
BRANCH   1   2
ATOM      2  CB  LYS A 131      28.345  25.722  17.026  1.00 20.94     0.034 C 
BRANCH   2   3
ATOM      3  CG  LYS A 131      27.601  24.400  16.907  1.00 22.96     0.005 C 
BRANCH   3   4
ATOM      4  CD  LYS A 131      26.380  24.357  17.783  1.00 24.33     0.041 C 
BRANCH   4   5
ATOM      5  CE  LYS A 131      26.071  25.760  18.296  1.00 26.91     0.338 C 
ATOM      6  NZ  LYS A 131      25.856  25.740  19.762  1.00 27.40     0.618 N 
ENDBRANCH   4   5
ENDBRANCH   3   4
ENDBRANCH   2   3
ENDBRANCH   1   2
END_RES LYS A 131
BEGIN_RES LYS A 135
REMARK  4 active torsions:
REMARK  status: ('A' for Active; 'I' for Inactive)
REMARK    5  A    between atoms: CA   and  CB  
REMARK    6  A    between atoms: CB   and  CG  
REMARK    7  A    between atoms: CG   and  CD  
REMARK    8  A    between atoms: CD   and  CE  
ROOT
ATOM      7  CA  LYS A 135      33.193  34.663   9.290  1.00 25.02     0.186 C 
ENDROOT
BRANCH   7   8
ATOM      8  CB  LYS A 135      32.060  35.360  10.034  1.00 26.63     0.034 C 
BRANCH   8   9
ATOM      9  CG  LYS A 135      30.735  34.651   9.915  1.00 29.45     0.005 C 
BRANCH   9  10
ATOM     10  CD  LYS A 135      30.315  34.540   8.458  1.00 32.00     0.041 C 
BRANCH  10  11
ATOM     11  CE  LYS A 135      28.806  34.442   8.344  1.00 34.25     0.338 C 
ATOM     12  NZ  LYS A 135      28.233  33.656   9.473  1.00 35.99     0.618 N 
ENDBRANCH  10  11
ENDBRANCH   9  10
ENDBRANCH   8   9
ENDBRANCH   7   8
END_RES LYS A 135
