REMARK VINA RESULT:    -4.842      4.158     10.066
REMARK INTER + INTRA:         -23.956
REMARK INTER:                 -12.428
REMARK INTRA:                 -11.528
REMARK UNBOUND:               -11.187
REMARK SMILES CC(=O)N[C@@H]1[C@@H](O)C[C@](OC[C@H]2O[C@@H](O[C@H]3[C@H](O)[C@@H](O)[C@H](OCCN=[N+]=[N-])O[C@@H]3CO)[C@H](O)[C@@H](O)[C@H]2O)(C(=O)O)O[C@H]1C(O)[C@H](O)CNC(=O)OCc1cn(-c2ccc(S(=O)(=O)Nc3nccs3)cc2)nn1
REMARK SMILES IDX 43 1 42 2 9 3 8 4 41 5 6 6 5 7 10 8 11 9 12 10 14 11 13 12
REMARK SMILES IDX 32 13 34 14 36 15 15 16 16 17 29 18 28 19 21 20 17 21 19 22
REMARK SMILES IDX 30 23 31 24 22 26 23 27 24 28 25 29 26 30 27 31 18 32 20 34
REMARK SMILES IDX 33 36 35 38 37 40 38 42 39 43 40 44 7 46 4 48 2 49 1 51 3 52
REMARK SMILES IDX 44 53 45 55 46 56 47 58 48 59 49 60 50 62 51 63 52 64 53 65
REMARK SMILES IDX 54 66 72 67 55 68 71 69 56 70 57 71 70 72 58 73 69 74 59 75
REMARK SMILES IDX 60 76 61 77 62 78 63 79 64 81 65 82 68 83 66 84 67 85
REMARK H PARENT 31 25 18 33 20 35 33 37 35 39 37 41 40 45 7 47 4 50 44 54
REMARK H PARENT 46 57 48 61 63 80
REMARK Flexibility Score: inf
ROOT
ATOM      1  C   UNL     1      25.262  40.803   9.305  1.00  0.00     0.176 C 
ENDROOT
BRANCH   1   2
ATOM      2  C   UNL     1      24.337  39.635   9.227  1.00  0.00     0.178 C 
ATOM      3  C   UNL     1      24.586  37.321   9.449  1.00  0.00     0.272 C 
ATOM      4  C   UNL     1      23.064  37.478   9.238  1.00  0.00     0.113 C 
ATOM      5  O   UNL     1      25.218  38.509   9.210  1.00  0.00    -0.332 OA
ATOM      6  C   UNL     1      22.719  38.254   8.024  1.00  0.00     0.145 C 
ATOM      7  C   UNL     1      23.585  39.512   7.924  1.00  0.00     0.142 C 
BRANCH   3   8
ATOM      8  O   UNL     1      25.085  36.380   8.584  1.00  0.00    -0.338 OA
BRANCH   8   9
ATOM      9  C   UNL     1      25.505  35.214   9.171  1.00  0.00     0.199 C 
BRANCH   9  10
ATOM     10  C   UNL     1      26.959  34.899   8.904  1.00  0.00     0.179 C 
ATOM     11  C   UNL     1      28.936  35.580   8.124  1.00  0.00     0.282 C 
ATOM     12  O   UNL     1      27.728  36.039   8.701  1.00  0.00    -0.341 OA
ATOM     13  C   UNL     1      29.770  35.042   9.262  1.00  0.00     0.202 C 
ATOM     14  C   UNL     1      28.888  34.825  10.495  1.00  0.00     0.179 C 
ATOM     15  C   UNL     1      27.584  34.169  10.082  1.00  0.00     0.177 C 
BRANCH  11  16
ATOM     16  O   UNL     1      29.602  36.549   7.454  1.00  0.00    -0.341 OA
BRANCH  16  17
ATOM     17  C   UNL     1      29.115  37.834   7.608  1.00  0.00     0.184 C 
ATOM     18  C   UNL     1      28.909  38.639   6.389  1.00  0.00     0.178 C 
ATOM     19  O   UNL     1      29.068  40.009   6.740  1.00  0.00    -0.341 OA
ATOM     20  C   UNL     1      30.424  40.326   6.896  1.00  0.00     0.281 C 
ATOM     21  C   UNL     1      29.935  38.609   8.631  1.00  0.00     0.180 C 
ATOM     22  C   UNL     1      31.034  39.441   7.967  1.00  0.00     0.202 C 
BRANCH  18  23
ATOM     23  C   UNL     1      27.491  38.595   5.821  1.00  0.00     0.191 C 
BRANCH  23  24
ATOM     24  O   UNL     1      26.561  38.066   6.664  1.00  0.00    -0.394 OA
ATOM     25  H   UNL     1      26.744  38.344   7.590  1.00  0.00     0.210 HD
ENDBRANCH  23  24
ENDBRANCH  18  23
BRANCH  20  26
ATOM     26  O   UNL     1      30.511  41.653   7.253  1.00  0.00    -0.350 OA
BRANCH  26  27
ATOM     27  C   UNL     1      29.321  42.332   7.305  1.00  0.00     0.169 C 
BRANCH  27  28
ATOM     28  C   UNL     1      29.134  43.132   8.572  1.00  0.00     0.119 C 
BRANCH  28  29
ATOM     29  N   UNL     1      28.288  44.253   8.250  1.00  0.00    -0.092 NA
ATOM     30  N   UNL     1      27.082  44.077   8.106  1.00  0.00     0.001 N 
ATOM     31  N   UNL     1      25.986  43.951   7.555  1.00  0.00    -0.003 NA
ENDBRANCH  28  29
ENDBRANCH  27  28
ENDBRANCH  26  27
ENDBRANCH  20  26
BRANCH  21  32
ATOM     32  O   UNL     1      29.133  39.504   9.337  1.00  0.00    -0.387 OA
ATOM     33  H   UNL     1      29.676  40.146   9.849  1.00  0.00     0.211 HD
ENDBRANCH  21  32
BRANCH  22  34
ATOM     34  O   UNL     1      32.060  38.636   7.490  1.00  0.00    -0.385 OA
ATOM     35  H   UNL     1      32.613  38.387   8.264  1.00  0.00     0.211 HD
ENDBRANCH  22  34
ENDBRANCH  16  17
ENDBRANCH  11  16
BRANCH  13  36
ATOM     36  O   UNL     1      30.273  33.746   8.986  1.00  0.00    -0.385 OA
ATOM     37  H   UNL     1      31.060  33.777   8.423  1.00  0.00     0.211 HD
ENDBRANCH  13  36
BRANCH  14  38
ATOM     38  O   UNL     1      28.700  36.017  11.180  1.00  0.00    -0.387 OA
ATOM     39  H   UNL     1      28.096  35.908  11.959  1.00  0.00     0.211 HD
ENDBRANCH  14  38
BRANCH  15  40
ATOM     40  O   UNL     1      26.745  34.161  11.185  1.00  0.00    -0.387 OA
ATOM     41  H   UNL     1      26.895  33.430  11.806  1.00  0.00     0.211 HD
ENDBRANCH  15  40
ENDBRANCH   9  10
ENDBRANCH   8   9
ENDBRANCH   3   8
BRANCH   3  42
ATOM     42  C   UNL     1      24.740  36.907  10.846  1.00  0.00     0.364 C 
ATOM     43  O   UNL     1      23.779  36.402  11.511  1.00  0.00    -0.246 OA
BRANCH  42  44
ATOM     44  O   UNL     1      25.932  37.032  11.537  1.00  0.00    -0.477 OA
ATOM     45  H   UNL     1      26.635  36.284  11.480  1.00  0.00     0.296 HD
ENDBRANCH  42  44
ENDBRANCH   3  42
BRANCH   6  46
ATOM     46  O   UNL     1      22.798  37.505   6.850  1.00  0.00    -0.391 OA
ATOM     47  H   UNL     1      22.883  38.113   6.077  1.00  0.00     0.211 HD
ENDBRANCH   6  46
BRANCH   7  48
ATOM     48  N   UNL     1      22.787  40.627   7.556  1.00  0.00    -0.348 N 
ATOM     49  C   UNL     1      23.247  41.538   6.564  1.00  0.00     0.217 C 
ATOM     50  H   UNL     1      21.861  40.811   7.986  1.00  0.00     0.163 HD
ATOM     51  C   UNL     1      22.483  42.716   6.124  1.00  0.00     0.114 C 
ATOM     52  O   UNL     1      24.384  41.333   6.016  1.00  0.00    -0.275 OA
ENDBRANCH   7  48
ENDBRANCH   1   2
BRANCH   1  53
ATOM     53  O   UNL     1      26.524  40.409   8.758  1.00  0.00    -0.388 OA
ATOM     54  H   UNL     1      26.400  39.813   7.997  1.00  0.00     0.211 HD
ENDBRANCH   1  53
BRANCH   1  55
ATOM     55  C   UNL     1      25.492  41.393  10.666  1.00  0.00     0.165 C 
BRANCH  55  56
ATOM     56  O   UNL     1      25.359  42.807  10.447  1.00  0.00    -0.388 OA
ATOM     57  H   UNL     1      24.616  42.961   9.808  1.00  0.00     0.211 HD
ENDBRANCH  55  56
BRANCH  55  58
ATOM     58  C   UNL     1      26.945  41.253  11.103  1.00  0.00     0.154 C 
BRANCH  58  59
ATOM     59  N   UNL     1      27.110  39.905  11.580  1.00  0.00    -0.319 N 
ATOM     60  C   UNL     1      27.923  39.561  12.692  1.00  0.00     0.407 C 
ATOM     61  H   UNL     1      26.606  39.090  11.098  1.00  0.00     0.167 HD
ATOM     62  O   UNL     1      28.528  40.431  13.328  1.00  0.00    -0.225 OA
BRANCH  60  63
ATOM     63  O   UNL     1      28.068  38.240  13.100  1.00  0.00    -0.443 OA
BRANCH  63  64
ATOM     64  C   UNL     1      28.166  37.790  14.423  1.00  0.00     0.294 C 
BRANCH  64  65
ATOM     65  C   UNL     1      28.002  36.338  14.604  1.00  0.00     0.121 A 
ATOM     66  C   UNL     1      28.407  35.593  15.716  1.00  0.00     0.144 A 
ATOM     67  N   UNL     1      27.449  35.443  13.788  1.00  0.00    -0.131 NA
ATOM     68  N   UNL     1      28.088  34.285  15.537  1.00  0.00    -0.220 N 
ATOM     69  N   UNL     1      27.506  34.226  14.353  1.00  0.00    -0.062 NA
BRANCH  68  70
ATOM     70  C   UNL     1      28.350  33.232  16.480  1.00  0.00     0.066 A 
ATOM     71  C   UNL     1      28.456  31.923  16.107  1.00  0.00     0.030 A 
ATOM     72  C   UNL     1      28.488  33.570  17.815  1.00  0.00     0.030 A 
ATOM     73  C   UNL     1      28.698  30.938  17.063  1.00  0.00     0.024 A 
ATOM     74  C   UNL     1      28.728  32.636  18.794  1.00  0.00     0.024 A 
ATOM     75  C   UNL     1      28.828  31.314  18.379  1.00  0.00     0.088 A 
BRANCH  75  76
ATOM     76  S   UNL     1      29.126  30.103  19.601  1.00  0.00     0.263 S 
ATOM     77  O   UNL     1      28.219  28.923  19.309  1.00  0.00    -0.201 OA
ATOM     78  O   UNL     1      28.693  30.692  20.914  1.00  0.00    -0.201 OA
BRANCH  76  79
ATOM     79  N   UNL     1      30.772  29.667  19.604  1.00  0.00    -0.255 N 
ATOM     80  H   UNL     1      31.388  30.069  18.875  1.00  0.00     0.182 HD
BRANCH  79  81
ATOM     81  C   UNL     1      31.254  28.796  20.566  1.00  0.00     0.196 A 
ATOM     82  N   UNL     1      31.288  27.547  20.824  1.00  0.00    -0.228 NA
ATOM     83  S   UNL     1      32.175  29.429  22.049  1.00  0.00    -0.105 S 
ATOM     84  C   UNL     1      31.832  26.998  21.847  1.00  0.00     0.125 A 
ATOM     85  C   UNL     1      32.450  27.781  22.784  1.00  0.00     0.089 A 
ENDBRANCH  79  81
ENDBRANCH  76  79
ENDBRANCH  75  76
ENDBRANCH  68  70
ENDBRANCH  64  65
ENDBRANCH  63  64
ENDBRANCH  60  63
ENDBRANCH  58  59
ENDBRANCH  55  58
ENDBRANCH   1  55
TORSDOF 33
BEGIN_RES LYS A 131
REMARK  4 active torsions:
REMARK  status: ('A' for Active; 'I' for Inactive)
REMARK    1  A    between atoms: CA   and  CB  
REMARK    2  A    between atoms: CB   and  CG  
REMARK    3  A    between atoms: CG   and  CD  
REMARK    4  A    between atoms: CD   and  CE  
ROOT
ATOM      1  CA  LYS A 131      29.867  25.555  16.977  1.00 20.52     0.186 C 
ENDROOT
BRANCH   1   2
ATOM      2  CB  LYS A 131      28.345  25.722  17.026  1.00 20.94     0.034 C 
BRANCH   2   3
ATOM      3  CG  LYS A 131      27.602  24.398  16.928  1.00 22.96     0.005 C 
BRANCH   3   4
ATOM      4  CD  LYS A 131      26.626  24.213  18.057  1.00 24.33     0.041 C 
BRANCH   4   5
ATOM      5  CE  LYS A 131      26.291  25.569  18.669  1.00 26.91     0.338 C 
ATOM      6  NZ  LYS A 131      24.922  25.987  18.287  1.00 27.40     0.618 N 
ENDBRANCH   4   5
ENDBRANCH   3   4
ENDBRANCH   2   3
ENDBRANCH   1   2
END_RES LYS A 131
BEGIN_RES LYS A 135
REMARK  4 active torsions:
REMARK  status: ('A' for Active; 'I' for Inactive)
REMARK    5  A    between atoms: CA   and  CB  
REMARK    6  A    between atoms: CB   and  CG  
REMARK    7  A    between atoms: CG   and  CD  
REMARK    8  A    between atoms: CD   and  CE  
ROOT
ATOM      7  CA  LYS A 135      33.193  34.663   9.290  1.00 25.02     0.186 C 
ENDROOT
BRANCH   7   8
ATOM      8  CB  LYS A 135      32.060  35.360  10.034  1.00 26.63     0.034 C 
BRANCH   8   9
ATOM      9  CG  LYS A 135      32.502  36.042  11.303  1.00 29.45     0.005 C 
BRANCH   9  10
ATOM     10  CD  LYS A 135      32.090  37.506  11.297  1.00 32.00     0.041 C 
BRANCH  10  11
ATOM     11  CE  LYS A 135      31.434  37.879  12.613  1.00 34.25     0.338 C 
ATOM     12  NZ  LYS A 135      31.622  36.807  13.629  1.00 35.99     0.618 N 
ENDBRANCH  10  11
ENDBRANCH   9  10
ENDBRANCH   8   9
ENDBRANCH   7   8
END_RES LYS A 135
