REMARK VINA RESULT:    -5.240      2.913      6.124
REMARK INTER + INTRA:         -23.362
REMARK INTER:                 -12.323
REMARK INTRA:                 -11.039
REMARK UNBOUND:               -10.464
REMARK SMILES CC(=O)N[C@@H]1[C@@H](O)C[C@](OC[C@H]2O[C@@H](O[C@H]3[C@H](O)[C@@H](O)[C@H](OCCN=[N+]=[N-])O[C@@H]3CO)[C@H](O)[C@@H](O)[C@H]2O)(C(=O)O)O[C@H]1C(O)[C@H](O)CNC(=O)OCc1cn(-c2c3ccccc3nc3ccccc23)nn1
REMARK SMILES IDX 9 1 8 2 6 3 5 4 42 5 41 6 10 7 11 8 12 9 14 10 13 11 32 12
REMARK SMILES IDX 34 13 36 14 15 15 16 16 29 17 28 18 21 19 17 20 19 21 30 22
REMARK SMILES IDX 31 23 22 25 23 26 24 27 25 28 26 29 27 30 18 31 20 33 33 35
REMARK SMILES IDX 35 37 37 39 38 41 39 42 40 43 7 45 43 47 44 48 45 50 46 51
REMARK SMILES IDX 47 53 48 54 49 55 50 57 51 58 52 59 53 60 54 61 71 62 55 63
REMARK SMILES IDX 70 64 56 65 57 66 69 67 58 68 62 69 64 70 68 71 59 72 61 73
REMARK SMILES IDX 63 74 65 75 67 76 60 77 66 78 4 79 2 80 1 82 3 83
REMARK H PARENT 31 24 18 32 20 34 33 36 35 38 37 40 40 44 7 46 44 49 46 52
REMARK H PARENT 48 56 4 81
REMARK Flexibility Score: inf
ROOT
ATOM      1  C   UNL     1      26.574  30.580  15.908  1.00  0.00     0.272 C 
ATOM      2  C   UNL     1      25.995  30.688  17.404  1.00  0.00     0.113 C 
ATOM      3  C   UNL     1      27.113  31.301  18.165  1.00  0.00     0.145 C 
ATOM      4  C   UNL     1      27.626  32.608  17.599  1.00  0.00     0.142 C 
ATOM      5  C   UNL     1      27.434  32.762  16.148  1.00  0.00     0.178 C 
ATOM      6  O   UNL     1      26.657  31.850  15.519  1.00  0.00    -0.332 OA
ENDROOT
BRANCH   1   7
ATOM      7  O   UNL     1      25.472  29.977  15.298  1.00  0.00    -0.338 OA
BRANCH   7   8
ATOM      8  C   UNL     1      24.306  29.990  15.984  1.00  0.00     0.199 C 
BRANCH   8   9
ATOM      9  C   UNL     1      23.078  30.089  15.163  1.00  0.00     0.179 C 
ATOM     10  C   UNL     1      21.661  31.505  13.967  1.00  0.00     0.282 C 
ATOM     11  O   UNL     1      22.789  31.377  14.805  1.00  0.00    -0.341 OA
ATOM     12  C   UNL     1      20.876  30.271  13.810  1.00  0.00     0.202 C 
ATOM     13  C   UNL     1      21.735  29.099  13.396  1.00  0.00     0.179 C 
ATOM     14  C   UNL     1      23.127  29.183  13.930  1.00  0.00     0.177 C 
BRANCH  10  15
ATOM     15  O   UNL     1      22.038  32.080  12.761  1.00  0.00    -0.341 OA
BRANCH  15  16
ATOM     16  C   UNL     1      22.552  33.388  12.920  1.00  0.00     0.184 C 
ATOM     17  C   UNL     1      21.795  34.330  12.073  1.00  0.00     0.178 C 
ATOM     18  O   UNL     1      22.495  35.533  11.796  1.00  0.00    -0.341 OA
ATOM     19  C   UNL     1      23.610  35.178  11.048  1.00  0.00     0.281 C 
ATOM     20  C   UNL     1      24.014  33.262  12.463  1.00  0.00     0.180 C 
ATOM     21  C   UNL     1      24.596  34.592  12.071  1.00  0.00     0.202 C 
BRANCH  17  22
ATOM     22  C   UNL     1      20.486  34.745  12.727  1.00  0.00     0.191 C 
BRANCH  22  23
ATOM     23  O   UNL     1      20.453  36.064  13.097  1.00  0.00    -0.394 OA
ATOM     24  H   UNL     1      21.325  36.483  12.876  1.00  0.00     0.210 HD
ENDBRANCH  22  23
ENDBRANCH  17  22
BRANCH  19  25
ATOM     25  O   UNL     1      24.090  36.310  10.438  1.00  0.00    -0.350 OA
BRANCH  25  26
ATOM     26  C   UNL     1      23.134  37.298  10.223  1.00  0.00     0.169 C 
BRANCH  26  27
ATOM     27  C   UNL     1      23.446  38.138   9.004  1.00  0.00     0.119 C 
BRANCH  27  28
ATOM     28  N   UNL     1      23.103  37.335   7.834  1.00  0.00    -0.092 NA
ATOM     29  N   UNL     1      21.982  36.825   7.729  1.00  0.00     0.001 N 
ATOM     30  N   UNL     1      20.861  36.349   7.540  1.00  0.00    -0.003 NA
ENDBRANCH  27  28
ENDBRANCH  26  27
ENDBRANCH  25  26
ENDBRANCH  19  25
BRANCH  20  31
ATOM     31  O   UNL     1      24.757  32.615  13.437  1.00  0.00    -0.387 OA
ATOM     32  H   UNL     1      24.574  31.643  13.483  1.00  0.00     0.211 HD
ENDBRANCH  20  31
BRANCH  21  33
ATOM     33  O   UNL     1      25.840  34.402  11.511  1.00  0.00    -0.385 OA
ATOM     34  H   UNL     1      25.962  35.116  10.816  1.00  0.00     0.211 HD
ENDBRANCH  21  33
ENDBRANCH  15  16
ENDBRANCH  10  15
BRANCH  12  35
ATOM     35  O   UNL     1      20.130  30.000  14.967  1.00  0.00    -0.385 OA
ATOM     36  H   UNL     1      20.275  30.791  15.567  1.00  0.00     0.211 HD
ENDBRANCH  12  35
BRANCH  13  37
ATOM     37  O   UNL     1      21.725  29.043  11.989  1.00  0.00    -0.387 OA
ATOM     38  H   UNL     1      21.625  28.062  11.768  1.00  0.00     0.211 HD
ENDBRANCH  13  37
BRANCH  14  39
ATOM     39  O   UNL     1      24.051  29.611  12.998  1.00  0.00    -0.387 OA
ATOM     40  H   UNL     1      24.647  30.324  13.340  1.00  0.00     0.211 HD
ENDBRANCH  14  39
ENDBRANCH   8   9
ENDBRANCH   7   8
ENDBRANCH   1   7
BRANCH   1  41
ATOM     41  C   UNL     1      27.698  29.719  16.067  1.00  0.00     0.364 C 
ATOM     42  O   UNL     1      27.588  28.603  16.670  1.00  0.00    -0.246 OA
BRANCH  41  43
ATOM     43  O   UNL     1      28.997  29.965  15.607  1.00  0.00    -0.477 OA
ATOM     44  H   UNL     1      29.419  29.304  14.968  1.00  0.00     0.296 HD
ENDBRANCH  41  43
ENDBRANCH   1  41
BRANCH   3  45
ATOM     45  O   UNL     1      26.642  31.494  19.486  1.00  0.00    -0.391 OA
ATOM     46  H   UNL     1      27.419  31.644  20.085  1.00  0.00     0.211 HD
ENDBRANCH   3  45
BRANCH   5  47
ATOM     47  C   UNL     1      26.794  34.134  15.798  1.00  0.00     0.176 C 
BRANCH  47  48
ATOM     48  O   UNL     1      26.928  34.401  14.468  1.00  0.00    -0.388 OA
ATOM     49  H   UNL     1      27.207  33.608  13.912  1.00  0.00     0.211 HD
ENDBRANCH  47  48
BRANCH  47  50
ATOM     50  C   UNL     1      25.512  34.370  16.457  1.00  0.00     0.165 C 
BRANCH  50  51
ATOM     51  O   UNL     1      24.488  33.455  16.198  1.00  0.00    -0.388 OA
ATOM     52  H   UNL     1      23.674  33.903  15.856  1.00  0.00     0.211 HD
ENDBRANCH  50  51
BRANCH  50  53
ATOM     53  C   UNL     1      25.040  35.760  16.637  1.00  0.00     0.154 C 
BRANCH  53  54
ATOM     54  N   UNL     1      24.964  36.638  15.529  1.00  0.00    -0.319 N 
ATOM     55  C   UNL     1      23.806  36.901  14.768  1.00  0.00     0.407 C 
ATOM     56  H   UNL     1      25.872  37.160  15.235  1.00  0.00     0.167 HD
ATOM     57  O   UNL     1      22.700  36.372  14.957  1.00  0.00    -0.225 OA
BRANCH  55  58
ATOM     58  O   UNL     1      23.842  37.822  13.704  1.00  0.00    -0.443 OA
BRANCH  58  59
ATOM     59  C   UNL     1      24.893  38.757  13.530  1.00  0.00     0.294 C 
BRANCH  59  60
ATOM     60  C   UNL     1      26.033  38.095  12.832  1.00  0.00     0.121 A 
ATOM     61  C   UNL     1      26.632  38.454  11.644  1.00  0.00     0.144 A 
ATOM     62  N   UNL     1      26.688  36.996  13.234  1.00  0.00    -0.131 NA
ATOM     63  N   UNL     1      27.626  37.587  11.343  1.00  0.00    -0.219 N 
ATOM     64  N   UNL     1      27.634  36.709  12.332  1.00  0.00    -0.062 NA
BRANCH  63  65
ATOM     65  C   UNL     1      28.479  37.627  10.185  1.00  0.00     0.085 A 
ATOM     66  C   UNL     1      29.601  38.442  10.177  1.00  0.00     0.027 A 
ATOM     67  C   UNL     1      28.221  36.878   9.060  1.00  0.00     0.027 A 
ATOM     68  C   UNL     1      29.915  39.215  11.273  1.00  0.00     0.012 A 
ATOM     69  C   UNL     1      30.456  38.519   9.079  1.00  0.00     0.073 A 
ATOM     70  C   UNL     1      29.090  36.983   7.997  1.00  0.00     0.073 A 
ATOM     71  C   UNL     1      27.135  36.054   9.000  1.00  0.00     0.012 A 
ATOM     72  C   UNL     1      31.031  40.024  11.267  1.00  0.00     0.001 A 
ATOM     73  C   UNL     1      31.570  39.329   9.077  1.00  0.00     0.029 A 
ATOM     74  N   UNL     1      30.175  37.777   8.000  1.00  0.00    -0.248 NA
ATOM     75  C   UNL     1      28.864  36.248   6.852  1.00  0.00     0.029 A 
ATOM     76  C   UNL     1      26.932  35.325   7.835  1.00  0.00     0.001 A 
ATOM     77  C   UNL     1      31.884  40.100  10.170  1.00  0.00     0.002 A 
ATOM     78  C   UNL     1      27.776  35.400   6.748  1.00  0.00     0.002 A 
ENDBRANCH  63  65
ENDBRANCH  59  60
ENDBRANCH  58  59
ENDBRANCH  55  58
ENDBRANCH  53  54
ENDBRANCH  50  53
ENDBRANCH  47  50
ENDBRANCH   5  47
BRANCH   4  79
ATOM     79  N   UNL     1      28.989  32.807  18.038  1.00  0.00    -0.348 N 
ATOM     80  C   UNL     1      29.511  34.048  18.508  1.00  0.00     0.217 C 
ATOM     81  H   UNL     1      29.676  32.018  18.023  1.00  0.00     0.163 HD
ATOM     82  C   UNL     1      30.950  34.128  18.932  1.00  0.00     0.114 C 
ATOM     83  O   UNL     1      28.744  35.023  18.548  1.00  0.00    -0.275 OA
ENDBRANCH   4  79
TORSDOF 30
BEGIN_RES LYS A 131
REMARK  4 active torsions:
REMARK  status: ('A' for Active; 'I' for Inactive)
REMARK    1  A    between atoms: CA   and  CB  
REMARK    2  A    between atoms: CB   and  CG  
REMARK    3  A    between atoms: CG   and  CD  
REMARK    4  A    between atoms: CD   and  CE  
ROOT
ATOM      1  CA  LYS A 131      29.867  25.555  16.977  1.00 20.52     0.186 C 
ENDROOT
BRANCH   1   2
ATOM      2  CB  LYS A 131      28.345  25.722  17.026  1.00 20.94     0.034 C 
BRANCH   2   3
ATOM      3  CG  LYS A 131      27.602  24.399  16.921  1.00 22.96     0.005 C 
BRANCH   3   4
ATOM      4  CD  LYS A 131      26.300  24.420  17.673  1.00 24.33     0.041 C 
BRANCH   4   5
ATOM      5  CE  LYS A 131      26.293  25.594  18.647  1.00 26.91     0.338 C 
ATOM      6  NZ  LYS A 131      25.091  26.435  18.437  1.00 27.40     0.618 N 
ENDBRANCH   4   5
ENDBRANCH   3   4
ENDBRANCH   2   3
ENDBRANCH   1   2
END_RES LYS A 131
BEGIN_RES LYS A 135
REMARK  4 active torsions:
REMARK  status: ('A' for Active; 'I' for Inactive)
REMARK    5  A    between atoms: CA   and  CB  
REMARK    6  A    between atoms: CB   and  CG  
REMARK    7  A    between atoms: CG   and  CD  
REMARK    8  A    between atoms: CD   and  CE  
ROOT
ATOM      7  CA  LYS A 135      33.193  34.663   9.290  1.00 25.02     0.186 C 
ENDROOT
BRANCH   7   8
ATOM      8  CB  LYS A 135      32.060  35.360  10.034  1.00 26.63     0.034 C 
BRANCH   8   9
ATOM      9  CG  LYS A 135      30.774  34.575  10.046  1.00 29.45     0.005 C 
BRANCH   9  10
ATOM     10  CD  LYS A 135      30.128  34.622  11.422  1.00 32.00     0.041 C 
BRANCH  10  11
ATOM     11  CE  LYS A 135      31.157  34.967  12.481  1.00 34.25     0.338 C 
ATOM     12  NZ  LYS A 135      30.826  36.255  13.152  1.00 35.99     0.618 N 
ENDBRANCH  10  11
ENDBRANCH   9  10
ENDBRANCH   8   9
ENDBRANCH   7   8
END_RES LYS A 135
