REMARK VINA RESULT:    -4.908      4.569     12.105
REMARK INTER + INTRA:         -24.129
REMARK INTER:                 -12.214
REMARK INTRA:                 -11.915
REMARK UNBOUND:               -11.187
REMARK SMILES CC(=O)N[C@@H]1[C@@H](O)C[C@](OC[C@H]2O[C@@H](O[C@H]3[C@H](O)[C@@H](O)[C@H](OCCN=[N+]=[N-])O[C@@H]3CO)[C@H](O)[C@@H](O)[C@H]2O)(C(=O)O)O[C@H]1C(O)[C@H](O)CNC(=O)OCc1cn(-c2ccc(S(=O)(=O)Nc3nccs3)cc2)nn1
REMARK SMILES IDX 43 1 42 2 9 3 8 4 41 5 6 6 5 7 10 8 11 9 12 10 14 11 13 12
REMARK SMILES IDX 32 13 34 14 36 15 15 16 16 17 29 18 28 19 21 20 17 21 19 22
REMARK SMILES IDX 30 23 31 24 22 26 23 27 24 28 25 29 26 30 27 31 18 32 20 34
REMARK SMILES IDX 33 36 35 38 37 40 38 42 39 43 40 44 7 46 4 48 2 49 1 51 3 52
REMARK SMILES IDX 44 53 45 55 46 56 47 58 48 59 49 60 50 62 51 63 52 64 53 65
REMARK SMILES IDX 54 66 72 67 55 68 71 69 56 70 57 71 70 72 58 73 69 74 59 75
REMARK SMILES IDX 60 76 61 77 62 78 63 79 64 81 65 82 68 83 66 84 67 85
REMARK H PARENT 31 25 18 33 20 35 33 37 35 39 37 41 40 45 7 47 4 50 44 54
REMARK H PARENT 46 57 48 61 63 80
REMARK Flexibility Score: inf
ROOT
ATOM      1  C   UNL     1      27.609  38.257   6.972  1.00  0.00     0.176 C 
ENDROOT
BRANCH   1   2
ATOM      2  C   UNL     1      28.629  37.815   7.966  1.00  0.00     0.178 C 
ATOM      3  C   UNL     1      29.244  35.756   8.888  1.00  0.00     0.272 C 
ATOM      4  C   UNL     1      30.261  36.728   9.525  1.00  0.00     0.113 C 
ATOM      5  O   UNL     1      28.268  36.458   8.237  1.00  0.00    -0.332 OA
ATOM      6  C   UNL     1      29.624  37.885  10.197  1.00  0.00     0.145 C 
ATOM      7  C   UNL     1      28.524  38.482   9.316  1.00  0.00     0.142 C 
BRANCH   3   8
ATOM      8  O   UNL     1      28.653  34.992   9.863  1.00  0.00    -0.338 OA
BRANCH   8   9
ATOM      9  C   UNL     1      27.384  34.560   9.574  1.00  0.00     0.199 C 
BRANCH   9  10
ATOM     10  C   UNL     1      26.372  34.917  10.638  1.00  0.00     0.179 C 
ATOM     11  C   UNL     1      25.947  35.886  12.603  1.00  0.00     0.282 C 
ATOM     12  O   UNL     1      26.818  35.923  11.489  1.00  0.00    -0.341 OA
ATOM     13  C   UNL     1      24.689  36.603  12.179  1.00  0.00     0.202 C 
ATOM     14  C   UNL     1      24.656  36.738  10.653  1.00  0.00     0.179 C 
ATOM     15  C   UNL     1      25.083  35.430  10.015  1.00  0.00     0.177 C 
BRANCH  11  16
ATOM     16  O   UNL     1      26.480  36.459  13.708  1.00  0.00    -0.341 OA
BRANCH  16  17
ATOM     17  C   UNL     1      26.849  35.592  14.720  1.00  0.00     0.184 C 
ATOM     18  C   UNL     1      27.870  36.054  15.679  1.00  0.00     0.178 C 
ATOM     19  O   UNL     1      28.562  34.909  16.163  1.00  0.00    -0.341 OA
ATOM     20  C   UNL     1      29.468  34.437  15.203  1.00  0.00     0.281 C 
ATOM     21  C   UNL     1      27.218  34.225  14.160  1.00  0.00     0.180 C 
ATOM     22  C   UNL     1      28.724  34.094  13.926  1.00  0.00     0.202 C 
BRANCH  18  23
ATOM     23  C   UNL     1      27.314  36.681  16.958  1.00  0.00     0.191 C 
BRANCH  23  24
ATOM     24  O   UNL     1      27.708  36.065  18.106  1.00  0.00    -0.394 OA
ATOM     25  H   UNL     1      28.353  35.349  17.905  1.00  0.00     0.210 HD
ENDBRANCH  23  24
ENDBRANCH  18  23
BRANCH  20  26
ATOM     26  O   UNL     1      30.090  33.322  15.719  1.00  0.00    -0.350 OA
BRANCH  26  27
ATOM     27  C   UNL     1      29.781  33.021  17.020  1.00  0.00     0.169 C 
BRANCH  27  28
ATOM     28  C   UNL     1      29.537  31.550  17.261  1.00  0.00     0.119 C 
BRANCH  28  29
ATOM     29  N   UNL     1      28.396  31.170  16.468  1.00  0.00    -0.092 NA
ATOM     30  N   UNL     1      27.856  30.085  16.665  1.00  0.00     0.001 N 
ATOM     31  N   UNL     1      27.518  28.911  16.499  1.00  0.00    -0.003 NA
ENDBRANCH  28  29
ENDBRANCH  27  28
ENDBRANCH  26  27
ENDBRANCH  20  26
BRANCH  21  32
ATOM     32  O   UNL     1      26.865  33.211  15.050  1.00  0.00    -0.387 OA
ATOM     33  H   UNL     1      27.581  33.042  15.704  1.00  0.00     0.211 HD
ENDBRANCH  21  32
BRANCH  22  34
ATOM     34  O   UNL     1      29.135  34.848  12.835  1.00  0.00    -0.385 OA
ATOM     35  H   UNL     1      29.360  34.216  12.117  1.00  0.00     0.211 HD
ENDBRANCH  22  34
ENDBRANCH  16  17
ENDBRANCH  11  16
BRANCH  13  36
ATOM     36  O   UNL     1      23.524  35.847  12.466  1.00  0.00    -0.385 OA
ATOM     37  H   UNL     1      22.722  36.388  12.415  1.00  0.00     0.211 HD
ENDBRANCH  13  36
BRANCH  14  38
ATOM     38  O   UNL     1      25.425  37.817  10.240  1.00  0.00    -0.387 OA
ATOM     39  H   UNL     1      26.210  37.962  10.830  1.00  0.00     0.211 HD
ENDBRANCH  14  38
BRANCH  15  40
ATOM     40  O   UNL     1      25.221  35.646   8.654  1.00  0.00    -0.387 OA
ATOM     41  H   UNL     1      25.983  36.193   8.403  1.00  0.00     0.211 HD
ENDBRANCH  15  40
ENDBRANCH   9  10
ENDBRANCH   8   9
ENDBRANCH   3   8
BRANCH   3  42
ATOM     42  C   UNL     1      30.023  34.938   7.957  1.00  0.00     0.364 C 
ATOM     43  O   UNL     1      29.741  34.869   6.717  1.00  0.00    -0.246 OA
BRANCH  42  44
ATOM     44  O   UNL     1      31.116  34.187   8.353  1.00  0.00    -0.477 OA
ATOM     45  H   UNL     1      31.922  34.089   7.721  1.00  0.00     0.296 HD
ENDBRANCH  42  44
ENDBRANCH   3  42
BRANCH   6  46
ATOM     46  O   UNL     1      29.131  37.581  11.466  1.00  0.00    -0.391 OA
ATOM     47  H   UNL     1      29.378  36.654  11.701  1.00  0.00     0.211 HD
ENDBRANCH   6  46
BRANCH   7  48
ATOM     48  N   UNL     1      28.609  39.898   9.321  1.00  0.00    -0.348 N 
ATOM     49  C   UNL     1      27.886  40.655  10.287  1.00  0.00     0.217 C 
ATOM     50  H   UNL     1      29.189  40.421   8.637  1.00  0.00     0.163 HD
ATOM     51  C   UNL     1      27.920  42.124  10.361  1.00  0.00     0.114 C 
ATOM     52  O   UNL     1      27.165  40.036  11.142  1.00  0.00    -0.275 OA
ENDBRANCH   7  48
ENDBRANCH   1   2
BRANCH   1  53
ATOM     53  O   UNL     1      26.315  37.916   7.478  1.00  0.00    -0.388 OA
ATOM     54  H   UNL     1      25.615  38.352   6.960  1.00  0.00     0.211 HD
ENDBRANCH   1  53
BRANCH   1  55
ATOM     55  C   UNL     1      27.739  37.709   5.580  1.00  0.00     0.165 C 
BRANCH  55  56
ATOM     56  O   UNL     1      29.101  37.257   5.521  1.00  0.00    -0.388 OA
ATOM     57  H   UNL     1      29.570  37.556   6.342  1.00  0.00     0.211 HD
ENDBRANCH  55  56
BRANCH  55  58
ATOM     58  C   UNL     1      27.702  38.815   4.532  1.00  0.00     0.154 C 
BRANCH  58  59
ATOM     59  N   UNL     1      27.234  40.003   5.195  1.00  0.00    -0.319 N 
ATOM     60  C   UNL     1      26.511  41.034   4.539  1.00  0.00     0.407 C 
ATOM     61  H   UNL     1      27.419  40.154   6.241  1.00  0.00     0.167 HD
ATOM     62  O   UNL     1      26.228  40.944   3.339  1.00  0.00    -0.225 OA
BRANCH  60  63
ATOM     63  O   UNL     1      26.101  42.175   5.219  1.00  0.00    -0.443 OA
BRANCH  63  64
ATOM     64  C   UNL     1      24.890  42.338   5.904  1.00  0.00     0.294 C 
BRANCH  64  65
ATOM     65  C   UNL     1      24.562  41.266   6.858  1.00  0.00     0.121 A 
ATOM     66  C   UNL     1      23.468  40.399   6.784  1.00  0.00     0.144 A 
ATOM     67  N   UNL     1      25.210  40.889   7.960  1.00  0.00    -0.131 NA
ATOM     68  N   UNL     1      23.490  39.535   7.831  1.00  0.00    -0.220 N 
ATOM     69  N   UNL     1      24.563  39.859   8.530  1.00  0.00    -0.062 NA
BRANCH  68  70
ATOM     70  C   UNL     1      22.521  38.500   8.072  1.00  0.00     0.066 A 
ATOM     71  C   UNL     1      22.616  37.261   7.507  1.00  0.00     0.030 A 
ATOM     72  C   UNL     1      21.451  38.787   8.901  1.00  0.00     0.030 A 
ATOM     73  C   UNL     1      21.642  36.297   7.762  1.00  0.00     0.024 A 
ATOM     74  C   UNL     1      20.466  37.871   9.183  1.00  0.00     0.024 A 
ATOM     75  C   UNL     1      20.594  36.621   8.590  1.00  0.00     0.088 A 
BRANCH  75  76
ATOM     76  S   UNL     1      19.354  35.438   8.925  1.00  0.00     0.263 S 
ATOM     77  O   UNL     1      19.086  34.678   7.640  1.00  0.00    -0.201 OA
ATOM     78  O   UNL     1      18.105  36.198   9.269  1.00  0.00    -0.201 OA
BRANCH  76  79
ATOM     79  N   UNL     1      19.851  34.413  10.190  1.00  0.00    -0.255 N 
ATOM     80  H   UNL     1      20.177  33.459   9.951  1.00  0.00     0.182 HD
BRANCH  79  81
ATOM     81  C   UNL     1      19.812  34.863  11.499  1.00  0.00     0.196 A 
ATOM     82  N   UNL     1      20.473  35.608  12.296  1.00  0.00    -0.228 NA
ATOM     83  S   UNL     1      18.452  34.335  12.648  1.00  0.00    -0.105 S 
ATOM     84  C   UNL     1      20.186  35.851  13.521  1.00  0.00     0.125 A 
ATOM     85  C   UNL     1      19.073  35.283  14.079  1.00  0.00     0.089 A 
ENDBRANCH  79  81
ENDBRANCH  76  79
ENDBRANCH  75  76
ENDBRANCH  68  70
ENDBRANCH  64  65
ENDBRANCH  63  64
ENDBRANCH  60  63
ENDBRANCH  58  59
ENDBRANCH  55  58
ENDBRANCH   1  55
TORSDOF 33
BEGIN_RES LYS A 131
REMARK  4 active torsions:
REMARK  status: ('A' for Active; 'I' for Inactive)
REMARK    1  A    between atoms: CA   and  CB  
REMARK    2  A    between atoms: CB   and  CG  
REMARK    3  A    between atoms: CG   and  CD  
REMARK    4  A    between atoms: CD   and  CE  
ROOT
ATOM      1  CA  LYS A 131      29.867  25.555  16.977  1.00 20.52     0.186 C 
ENDROOT
BRANCH   1   2
ATOM      2  CB  LYS A 131      28.345  25.722  17.026  1.00 20.94     0.034 C 
BRANCH   2   3
ATOM      3  CG  LYS A 131      27.601  24.400  16.907  1.00 22.96     0.005 C 
BRANCH   3   4
ATOM      4  CD  LYS A 131      26.153  24.530  17.287  1.00 24.33     0.041 C 
BRANCH   4   5
ATOM      5  CE  LYS A 131      25.637  23.186  17.791  1.00 26.91     0.338 C 
ATOM      6  NZ  LYS A 131      25.514  23.197  19.268  1.00 27.40     0.618 N 
ENDBRANCH   4   5
ENDBRANCH   3   4
ENDBRANCH   2   3
ENDBRANCH   1   2
END_RES LYS A 131
BEGIN_RES LYS A 135
REMARK  4 active torsions:
REMARK  status: ('A' for Active; 'I' for Inactive)
REMARK    5  A    between atoms: CA   and  CB  
REMARK    6  A    between atoms: CB   and  CG  
REMARK    7  A    between atoms: CG   and  CD  
REMARK    8  A    between atoms: CD   and  CE  
ROOT
ATOM      7  CA  LYS A 135      33.193  34.663   9.290  1.00 25.02     0.186 C 
ENDROOT
BRANCH   7   8
ATOM      8  CB  LYS A 135      32.060  35.360  10.034  1.00 26.63     0.034 C 
BRANCH   8   9
ATOM      9  CG  LYS A 135      32.152  35.228  11.532  1.00 29.45     0.005 C 
BRANCH   9  10
ATOM     10  CD  LYS A 135      32.628  36.530  12.158  1.00 32.00     0.041 C 
BRANCH  10  11
ATOM     11  CE  LYS A 135      31.937  36.766  13.487  1.00 34.25     0.338 C 
ATOM     12  NZ  LYS A 135      32.645  36.062  14.592  1.00 35.99     0.618 N 
ENDBRANCH  10  11
ENDBRANCH   9  10
ENDBRANCH   8   9
ENDBRANCH   7   8
END_RES LYS A 135
