REMARK VINA RESULT:    -5.305      2.693      4.666
REMARK INTER + INTRA:         -21.284
REMARK INTER:                 -10.863
REMARK INTRA:                 -10.421
REMARK UNBOUND:                -8.226
REMARK SMILES CC(=O)N[C@@H]1[C@@H](O)C[C@](OC[C@H]2O[C@@H](O[C@H]3[C@H](O)[C@@H](O)[C@H](OCCN=[N+]=[N-])O[C@@H]3CO)[C@H](O)[C@@H](O)[C@H]2O)(C(=O)O)O[C@H]1C(O)[C@H](O)CNC(=O)OCc1cn(-c2ccccc2Br)nn1
REMARK SMILES IDX 9 1 8 2 6 3 5 4 42 5 41 6 10 7 11 8 12 9 14 10 13 11 32 12
REMARK SMILES IDX 34 13 36 14 15 15 16 16 29 17 28 18 21 19 17 20 19 21 30 22
REMARK SMILES IDX 31 23 22 25 23 26 24 27 25 28 26 29 27 30 18 31 20 33 33 35
REMARK SMILES IDX 35 37 37 39 38 41 39 42 40 43 7 45 43 47 44 48 45 50 46 51
REMARK SMILES IDX 47 53 48 54 49 55 50 57 51 58 52 59 53 60 54 61 64 62 55 63
REMARK SMILES IDX 63 64 56 65 57 66 61 67 58 68 60 69 62 70 59 71 4 72 2 73
REMARK SMILES IDX 1 75 3 76
REMARK H PARENT 31 24 18 32 20 34 33 36 35 38 37 40 40 44 7 46 44 49 46 52
REMARK H PARENT 48 56 4 74
REMARK Flexibility Score: inf
ROOT
ATOM      1  C   UNL     1      25.044  36.725   9.607  1.00  0.00     0.272 C 
ATOM      2  C   UNL     1      25.678  35.386   9.567  1.00  0.00     0.113 C 
ATOM      3  C   UNL     1      26.954  35.347  10.343  1.00  0.00     0.145 C 
ATOM      4  C   UNL     1      26.922  36.006  11.675  1.00  0.00     0.142 C 
ATOM      5  C   UNL     1      25.712  36.854  11.857  1.00  0.00     0.178 C 
ATOM      6  O   UNL     1      25.202  37.462  10.761  1.00  0.00    -0.332 OA
ENDROOT
BRANCH   1   7
ATOM      7  O   UNL     1      23.681  36.746   9.375  1.00  0.00    -0.338 OA
BRANCH   7   8
ATOM      8  C   UNL     1      23.094  35.593   8.980  1.00  0.00     0.199 C 
BRANCH   8   9
ATOM      9  C   UNL     1      21.635  35.939   8.591  1.00  0.00     0.179 C 
ATOM     10  C   UNL     1      19.510  35.174   9.082  1.00  0.00     0.282 C 
ATOM     11  O   UNL     1      20.807  34.893   8.744  1.00  0.00    -0.341 OA
ATOM     12  C   UNL     1      18.972  36.401   8.381  1.00  0.00     0.202 C 
ATOM     13  C   UNL     1      19.853  37.603   8.644  1.00  0.00     0.179 C 
ATOM     14  C   UNL     1      21.182  37.185   9.242  1.00  0.00     0.177 C 
BRANCH  10  15
ATOM     15  O   UNL     1      19.303  35.213  10.453  1.00  0.00    -0.341 OA
BRANCH  15  16
ATOM     16  C   UNL     1      19.418  33.996  11.083  1.00  0.00     0.184 C 
ATOM     17  C   UNL     1      18.166  33.545  11.796  1.00  0.00     0.178 C 
ATOM     18  O   UNL     1      18.302  32.181  12.002  1.00  0.00    -0.341 OA
ATOM     19  C   UNL     1      19.392  31.806  12.720  1.00  0.00     0.281 C 
ATOM     20  C   UNL     1      20.480  34.040  12.176  1.00  0.00     0.180 C 
ATOM     21  C   UNL     1      20.444  32.803  12.973  1.00  0.00     0.202 C 
BRANCH  17  22
ATOM     22  C   UNL     1      16.897  33.813  11.057  1.00  0.00     0.191 C 
BRANCH  22  23
ATOM     23  O   UNL     1      16.547  35.150  11.226  1.00  0.00    -0.394 OA
ATOM     24  H   UNL     1      15.744  35.348  10.713  1.00  0.00     0.210 HD
ENDBRANCH  22  23
ENDBRANCH  17  22
BRANCH  19  25
ATOM     25  O   UNL     1      19.969  30.718  12.025  1.00  0.00    -0.350 OA
BRANCH  25  26
ATOM     26  C   UNL     1      21.273  30.485  12.360  1.00  0.00     0.169 C 
BRANCH  26  27
ATOM     27  C   UNL     1      21.694  29.049  12.359  1.00  0.00     0.119 C 
BRANCH  27  28
ATOM     28  N   UNL     1      23.147  29.027  12.424  1.00  0.00    -0.092 NA
ATOM     29  N   UNL     1      23.723  29.489  13.398  1.00  0.00     0.001 N 
ATOM     30  N   UNL     1      24.319  29.882  14.393  1.00  0.00    -0.003 NA
ENDBRANCH  27  28
ENDBRANCH  26  27
ENDBRANCH  25  26
ENDBRANCH  19  25
BRANCH  20  31
ATOM     31  O   UNL     1      21.746  34.230  11.646  1.00  0.00    -0.387 OA
ATOM     32  H   UNL     1      22.471  34.005  12.275  1.00  0.00     0.211 HD
ENDBRANCH  20  31
BRANCH  21  33
ATOM     33  O   UNL     1      20.432  33.220  14.338  1.00  0.00    -0.385 OA
ATOM     34  H   UNL     1      21.183  33.830  14.526  1.00  0.00     0.211 HD
ENDBRANCH  21  33
ENDBRANCH  15  16
ENDBRANCH  10  15
BRANCH  12  35
ATOM     35  O   UNL     1      18.783  36.171   7.017  1.00  0.00    -0.385 OA
ATOM     36  H   UNL     1      18.378  35.285   6.851  1.00  0.00     0.211 HD
ENDBRANCH  12  35
BRANCH  13  37
ATOM     37  O   UNL     1      19.189  38.551   9.399  1.00  0.00    -0.387 OA
ATOM     38  H   UNL     1      19.769  38.907  10.102  1.00  0.00     0.211 HD
ENDBRANCH  13  37
BRANCH  14  39
ATOM     39  O   UNL     1      21.018  37.086  10.613  1.00  0.00    -0.387 OA
ATOM     40  H   UNL     1      20.943  37.966  11.057  1.00  0.00     0.211 HD
ENDBRANCH  14  39
ENDBRANCH   8   9
ENDBRANCH   7   8
ENDBRANCH   1   7
BRANCH   1  41
ATOM     41  C   UNL     1      25.761  37.551   8.554  1.00  0.00     0.364 C 
ATOM     42  O   UNL     1      26.411  38.537   8.965  1.00  0.00    -0.246 OA
BRANCH  41  43
ATOM     43  O   UNL     1      25.726  37.273   7.220  1.00  0.00    -0.477 OA
ATOM     44  H   UNL     1      24.922  37.573   6.647  1.00  0.00     0.296 HD
ENDBRANCH  41  43
ENDBRANCH   1  41
BRANCH   3  45
ATOM     45  O   UNL     1      27.355  33.996  10.457  1.00  0.00    -0.391 OA
ATOM     46  H   UNL     1      26.535  33.459  10.637  1.00  0.00     0.211 HD
ENDBRANCH   3  45
BRANCH   5  47
ATOM     47  C   UNL     1      24.678  36.171  12.753  1.00  0.00     0.176 C 
BRANCH  47  48
ATOM     48  O   UNL     1      24.275  34.945  12.285  1.00  0.00    -0.388 OA
ATOM     49  H   UNL     1      23.495  34.591  12.805  1.00  0.00     0.211 HD
ENDBRANCH  47  48
BRANCH  47  50
ATOM     50  C   UNL     1      23.425  37.046  12.917  1.00  0.00     0.165 C 
BRANCH  50  51
ATOM     51  O   UNL     1      23.819  38.357  12.841  1.00  0.00    -0.388 OA
ATOM     52  H   UNL     1      23.505  38.870  12.076  1.00  0.00     0.211 HD
ENDBRANCH  50  51
BRANCH  50  53
ATOM     53  C   UNL     1      22.752  36.749  14.217  1.00  0.00     0.154 C 
BRANCH  53  54
ATOM     54  N   UNL     1      22.826  35.372  14.565  1.00  0.00    -0.319 N 
ATOM     55  C   UNL     1      22.870  34.808  15.857  1.00  0.00     0.407 C 
ATOM     56  H   UNL     1      22.853  34.661  13.767  1.00  0.00     0.167 HD
ATOM     57  O   UNL     1      22.831  35.524  16.862  1.00  0.00    -0.225 OA
BRANCH  55  58
ATOM     58  O   UNL     1      22.958  33.426  16.026  1.00  0.00    -0.443 OA
BRANCH  58  59
ATOM     59  C   UNL     1      24.038  32.762  16.638  1.00  0.00     0.294 C 
BRANCH  59  60
ATOM     60  C   UNL     1      25.317  33.027  15.903  1.00  0.00     0.121 A 
ATOM     61  C   UNL     1      26.588  32.920  16.467  1.00  0.00     0.144 A 
ATOM     62  N   UNL     1      25.505  33.406  14.650  1.00  0.00    -0.131 NA
ATOM     63  N   UNL     1      27.475  33.244  15.515  1.00  0.00    -0.219 N 
ATOM     64  N   UNL     1      26.816  33.535  14.420  1.00  0.00    -0.062 NA
BRANCH  63  65
ATOM     65  C   UNL     1      28.885  33.274  15.650  1.00  0.00     0.081 A 
ATOM     66  C   UNL     1      29.657  32.158  15.415  1.00  0.00     0.029 A 
ATOM     67  C   UNL     1      29.515  34.431  16.021  1.00  0.00     0.043 A 
ATOM     68  C   UNL     1      31.041  32.226  15.558  1.00  0.00     0.002 A 
ATOM     69  C   UNL     1      30.880  34.505  16.164  1.00  0.00     0.018 A 
ATOM     70  Br  UNL     1      28.482  35.996  16.359  1.00  0.00    -0.048 Br
ATOM     71  C   UNL     1      31.662  33.398  15.932  1.00  0.00     0.001 A 
ENDBRANCH  63  65
ENDBRANCH  59  60
ENDBRANCH  58  59
ENDBRANCH  55  58
ENDBRANCH  53  54
ENDBRANCH  50  53
ENDBRANCH  47  50
ENDBRANCH   5  47
BRANCH   4  72
ATOM     72  N   UNL     1      28.116  36.768  11.963  1.00  0.00    -0.348 N 
ATOM     73  C   UNL     1      29.277  36.148  12.484  1.00  0.00     0.217 C 
ATOM     74  H   UNL     1      28.137  37.792  11.788  1.00  0.00     0.163 HD
ATOM     75  C   UNL     1      30.466  37.011  12.753  1.00  0.00     0.114 C 
ATOM     76  O   UNL     1      29.329  34.926  12.720  1.00  0.00    -0.275 OA
ENDBRANCH   4  72
TORSDOF 30
BEGIN_RES LYS A 131
REMARK  4 active torsions:
REMARK  status: ('A' for Active; 'I' for Inactive)
REMARK    1  A    between atoms: CA   and  CB  
REMARK    2  A    between atoms: CB   and  CG  
REMARK    3  A    between atoms: CG   and  CD  
REMARK    4  A    between atoms: CD   and  CE  
ROOT
ATOM      1  CA  LYS A 131      29.867  25.555  16.977  1.00 20.52     0.186 C 
ENDROOT
BRANCH   1   2
ATOM      2  CB  LYS A 131      28.345  25.722  17.026  1.00 20.94     0.034 C 
BRANCH   2   3
ATOM      3  CG  LYS A 131      27.601  24.402  16.892  1.00 22.96     0.005 C 
BRANCH   3   4
ATOM      4  CD  LYS A 131      26.422  24.320  17.820  1.00 24.33     0.041 C 
BRANCH   4   5
ATOM      5  CE  LYS A 131      25.663  23.021  17.566  1.00 26.91     0.338 C 
ATOM      6  NZ  LYS A 131      24.271  23.306  17.146  1.00 27.40     0.618 N 
ENDBRANCH   4   5
ENDBRANCH   3   4
ENDBRANCH   2   3
ENDBRANCH   1   2
END_RES LYS A 131
BEGIN_RES LYS A 135
REMARK  4 active torsions:
REMARK  status: ('A' for Active; 'I' for Inactive)
REMARK    5  A    between atoms: CA   and  CB  
REMARK    6  A    between atoms: CB   and  CG  
REMARK    7  A    between atoms: CG   and  CD  
REMARK    8  A    between atoms: CD   and  CE  
ROOT
ATOM      7  CA  LYS A 135      33.193  34.663   9.290  1.00 25.02     0.186 C 
ENDROOT
BRANCH   7   8
ATOM      8  CB  LYS A 135      32.060  35.360  10.034  1.00 26.63     0.034 C 
BRANCH   8   9
ATOM      9  CG  LYS A 135      30.689  34.907   9.605  1.00 29.45     0.005 C 
BRANCH   9  10
ATOM     10  CD  LYS A 135      30.128  35.831   8.534  1.00 32.00     0.041 C 
BRANCH  10  11
ATOM     11  CE  LYS A 135      29.278  35.051   7.550  1.00 34.25     0.338 C 
ATOM     12  NZ  LYS A 135      28.826  35.919   6.427  1.00 35.99     0.618 N 
ENDBRANCH  10  11
ENDBRANCH   9  10
ENDBRANCH   8   9
ENDBRANCH   7   8
END_RES LYS A 135
