REMARK VINA RESULT:    -3.906      6.496     13.555
REMARK INTER + INTRA:         -22.227
REMARK INTER:                 -11.404
REMARK INTRA:                 -10.823
REMARK UNBOUND:               -12.270
REMARK SMILES CC(=O)N[C@@H]1[C@@H](O)C[C@](OC[C@H]2O[C@@H](O[C@H]3[C@H](O)[C@@H](O)[C@H](OCCN=[N+]=[N-])O[C@@H]3CO)[C@H](O)[C@@H](O)[C@H]2O)(C(=O)O)O[C@H]1C(O)[C@H](O)CNC(=O)OCc1cn(-c2ccc(S(N)(=O)=O)cc2)nn1
REMARK SMILES IDX 9 1 8 2 6 3 5 4 42 5 41 6 10 7 11 8 12 9 14 10 13 11 32 12
REMARK SMILES IDX 34 13 36 14 15 15 16 16 29 17 28 18 21 19 17 20 19 21 30 22
REMARK SMILES IDX 31 23 22 25 23 26 24 27 25 28 26 29 27 30 18 31 20 33 33 35
REMARK SMILES IDX 35 37 37 39 38 41 39 42 40 43 7 45 43 47 44 48 45 50 46 51
REMARK SMILES IDX 47 53 48 54 49 55 50 57 51 58 52 59 53 60 54 61 67 62 55 63
REMARK SMILES IDX 66 64 56 65 57 66 65 67 58 68 64 69 59 70 60 71 62 72 63 73
REMARK SMILES IDX 61 74 4 77 2 78 1 80 3 81
REMARK H PARENT 31 24 18 32 20 34 33 36 35 38 37 40 40 44 7 46 44 49 46 52
REMARK H PARENT 48 56 61 75 61 76 4 79
REMARK Flexibility Score: inf
ROOT
ATOM      1  C   UNL     1      30.680  31.109  20.717  1.00  0.00     0.272 C 
ATOM      2  C   UNL     1      29.373  31.372  21.482  1.00  0.00     0.113 C 
ATOM      3  C   UNL     1      28.375  30.287  21.277  1.00  0.00     0.145 C 
ATOM      4  C   UNL     1      28.421  29.838  19.840  1.00  0.00     0.142 C 
ATOM      5  C   UNL     1      29.048  31.008  19.073  1.00  0.00     0.178 C 
ATOM      6  O   UNL     1      30.407  30.966  19.377  1.00  0.00    -0.332 OA
ENDROOT
BRANCH   1   7
ATOM      7  O   UNL     1      31.239  29.987  21.314  1.00  0.00    -0.338 OA
BRANCH   7   8
ATOM      8  C   UNL     1      31.854  29.128  20.447  1.00  0.00     0.199 C 
BRANCH   8   9
ATOM      9  C   UNL     1      32.250  27.873  21.244  1.00  0.00     0.179 C 
ATOM     10  C   UNL     1      32.598  27.336  23.494  1.00  0.00     0.282 C 
ATOM     11  O   UNL     1      32.709  28.304  22.448  1.00  0.00    -0.341 OA
ATOM     12  C   UNL     1      31.114  27.189  23.675  1.00  0.00     0.202 C 
ATOM     13  C   UNL     1      30.517  26.480  22.466  1.00  0.00     0.179 C 
ATOM     14  C   UNL     1      31.226  26.812  21.205  1.00  0.00     0.177 C 
BRANCH  10  15
ATOM     15  O   UNL     1      33.188  27.864  24.588  1.00  0.00    -0.341 OA
BRANCH  15  16
ATOM     16  C   UNL     1      33.636  29.203  24.441  1.00  0.00     0.184 C 
ATOM     17  C   UNL     1      35.019  29.274  24.902  1.00  0.00     0.178 C 
ATOM     18  O   UNL     1      35.382  30.385  25.636  1.00  0.00    -0.341 OA
ATOM     19  C   UNL     1      34.643  31.518  25.443  1.00  0.00     0.281 C 
ATOM     20  C   UNL     1      32.661  30.130  25.131  1.00  0.00     0.180 C 
ATOM     21  C   UNL     1      33.244  31.235  25.921  1.00  0.00     0.202 C 
BRANCH  17  22
ATOM     22  C   UNL     1      36.050  29.139  23.800  1.00  0.00     0.191 C 
BRANCH  22  23
ATOM     23  O   UNL     1      35.712  28.104  22.939  1.00  0.00    -0.394 OA
ATOM     24  H   UNL     1      35.505  28.431  22.029  1.00  0.00     0.210 HD
ENDBRANCH  22  23
ENDBRANCH  17  22
BRANCH  19  25
ATOM     25  O   UNL     1      34.677  32.056  24.179  1.00  0.00    -0.350 OA
BRANCH  25  26
ATOM     26  C   UNL     1      35.716  32.973  24.075  1.00  0.00     0.169 C 
BRANCH  26  27
ATOM     27  C   UNL     1      36.442  32.708  22.759  1.00  0.00     0.119 C 
BRANCH  27  28
ATOM     28  N   UNL     1      35.469  32.701  21.702  1.00  0.00    -0.092 NA
ATOM     29  N   UNL     1      35.122  33.749  21.113  1.00  0.00     0.001 N 
ATOM     30  N   UNL     1      34.346  34.701  20.917  1.00  0.00    -0.003 NA
ENDBRANCH  27  28
ENDBRANCH  26  27
ENDBRANCH  25  26
ENDBRANCH  19  25
BRANCH  20  31
ATOM     31  O   UNL     1      31.764  30.687  24.215  1.00  0.00    -0.387 OA
ATOM     32  H   UNL     1      31.831  31.668  24.254  1.00  0.00     0.211 HD
ENDBRANCH  20  31
BRANCH  21  33
ATOM     33  O   UNL     1      33.252  31.015  27.294  1.00  0.00    -0.385 OA
ATOM     34  H   UNL     1      33.229  31.942  27.697  1.00  0.00     0.211 HD
ENDBRANCH  21  33
ENDBRANCH  15  16
ENDBRANCH  10  15
BRANCH  12  35
ATOM     35  O   UNL     1      30.717  26.650  24.863  1.00  0.00    -0.385 OA
ATOM     36  H   UNL     1      31.428  26.485  25.511  1.00  0.00     0.211 HD
ENDBRANCH  12  35
BRANCH  13  37
ATOM     37  O   UNL     1      29.140  26.622  22.424  1.00  0.00    -0.387 OA
ATOM     38  H   UNL     1      28.656  26.265  23.197  1.00  0.00     0.211 HD
ENDBRANCH  13  37
BRANCH  14  39
ATOM     39  O   UNL     1      30.242  27.209  20.267  1.00  0.00    -0.387 OA
ATOM     40  H   UNL     1      29.810  26.356  19.971  1.00  0.00     0.211 HD
ENDBRANCH  14  39
ENDBRANCH   8   9
ENDBRANCH   7   8
ENDBRANCH   1   7
BRANCH   1  41
ATOM     41  C   UNL     1      31.517  32.333  21.004  1.00  0.00     0.364 C 
ATOM     42  O   UNL     1      32.038  32.511  22.131  1.00  0.00    -0.246 OA
BRANCH  41  43
ATOM     43  O   UNL     1      31.738  33.293  20.036  1.00  0.00    -0.477 OA
ATOM     44  H   UNL     1      31.155  34.116  20.041  1.00  0.00     0.296 HD
ENDBRANCH  41  43
ENDBRANCH   1  41
BRANCH   3  45
ATOM     45  O   UNL     1      28.637  29.263  22.184  1.00  0.00    -0.391 OA
ATOM     46  H   UNL     1      29.094  29.639  22.973  1.00  0.00     0.211 HD
ENDBRANCH   3  45
BRANCH   5  47
ATOM     47  C   UNL     1      28.872  30.835  17.588  1.00  0.00     0.176 C 
BRANCH  47  48
ATOM     48  O   UNL     1      27.603  31.127  17.131  1.00  0.00    -0.388 OA
ATOM     49  H   UNL     1      27.569  31.950  16.583  1.00  0.00     0.211 HD
ENDBRANCH  47  48
BRANCH  47  50
ATOM     50  C   UNL     1      29.888  31.664  16.838  1.00  0.00     0.165 C 
BRANCH  50  51
ATOM     51  O   UNL     1      30.145  32.865  17.531  1.00  0.00    -0.388 OA
ATOM     52  H   UNL     1      30.099  33.641  16.902  1.00  0.00     0.211 HD
ENDBRANCH  50  51
BRANCH  50  53
ATOM     53  C   UNL     1      29.438  31.973  15.432  1.00  0.00     0.154 C 
BRANCH  53  54
ATOM     54  N   UNL     1      29.143  33.376  15.256  1.00  0.00    -0.319 N 
ATOM     55  C   UNL     1      27.799  33.795  15.076  1.00  0.00     0.407 C 
ATOM     56  H   UNL     1      29.883  34.104  15.254  1.00  0.00     0.167 HD
ATOM     57  O   UNL     1      26.886  32.919  15.073  1.00  0.00    -0.225 OA
BRANCH  55  58
ATOM     58  O   UNL     1      27.413  35.113  14.904  1.00  0.00    -0.443 OA
BRANCH  58  59
ATOM     59  C   UNL     1      27.106  35.654  13.641  1.00  0.00     0.294 C 
BRANCH  59  60
ATOM     60  C   UNL     1      28.271  36.440  13.155  1.00  0.00     0.121 A 
ATOM     61  C   UNL     1      28.504  36.829  11.830  1.00  0.00     0.144 A 
ATOM     62  N   UNL     1      29.322  36.932  13.832  1.00  0.00    -0.131 NA
ATOM     63  N   UNL     1      29.665  37.526  11.770  1.00  0.00    -0.220 N 
ATOM     64  N   UNL     1      30.135  37.574  12.980  1.00  0.00    -0.062 NA
BRANCH  63  65
ATOM     65  C   UNL     1      30.260  38.096  10.598  1.00  0.00     0.066 A 
ATOM     66  C   UNL     1      31.561  38.545  10.606  1.00  0.00     0.030 A 
ATOM     67  C   UNL     1      29.549  38.211   9.425  1.00  0.00     0.030 A 
ATOM     68  C   UNL     1      32.138  39.097   9.464  1.00  0.00     0.024 A 
ATOM     69  C   UNL     1      30.116  38.761   8.277  1.00  0.00     0.024 A 
ATOM     70  C   UNL     1      31.421  39.210   8.289  1.00  0.00     0.082 A 
BRANCH  70  71
ATOM     71  S   UNL     1      32.180  39.912   6.861  1.00  0.00     0.238 S 
ATOM     72  O   UNL     1      31.270  39.810   5.661  1.00  0.00    -0.207 OA
ATOM     73  O   UNL     1      32.462  41.367   7.081  1.00  0.00    -0.207 OA
BRANCH  71  74
ATOM     74  N   UNL     1      33.678  39.113   6.501  1.00  0.00    -0.225 NA
ATOM     75  H   UNL     1      33.481  38.404   5.738  1.00  0.00     0.137 HD
ATOM     76  H   UNL     1      34.087  38.640   7.341  1.00  0.00     0.137 HD
ENDBRANCH  71  74
ENDBRANCH  70  71
ENDBRANCH  63  65
ENDBRANCH  59  60
ENDBRANCH  58  59
ENDBRANCH  55  58
ENDBRANCH  53  54
ENDBRANCH  50  53
ENDBRANCH  47  50
ENDBRANCH   5  47
BRANCH   4  77
ATOM     77  N   UNL     1      27.140  29.489  19.284  1.00  0.00    -0.348 N 
ATOM     78  C   UNL     1      26.635  28.180  19.428  1.00  0.00     0.217 C 
ATOM     79  H   UNL     1      26.570  30.190  18.775  1.00  0.00     0.163 HD
ATOM     80  C   UNL     1      25.311  27.859  18.840  1.00  0.00     0.114 C 
ATOM     81  O   UNL     1      27.256  27.274  20.030  1.00  0.00    -0.275 OA
ENDBRANCH   4  77
TORSDOF 32
BEGIN_RES LYS A 131
REMARK  4 active torsions:
REMARK  status: ('A' for Active; 'I' for Inactive)
REMARK    1  A    between atoms: CA   and  CB  
REMARK    2  A    between atoms: CB   and  CG  
REMARK    3  A    between atoms: CG   and  CD  
REMARK    4  A    between atoms: CD   and  CE  
ROOT
ATOM      1  CA  LYS A 131      29.867  25.555  16.977  1.00 20.52     0.186 C 
ENDROOT
BRANCH   1   2
ATOM      2  CB  LYS A 131      28.345  25.722  17.026  1.00 20.94     0.034 C 
BRANCH   2   3
ATOM      3  CG  LYS A 131      27.602  24.398  16.932  1.00 22.96     0.005 C 
BRANCH   3   4
ATOM      4  CD  LYS A 131      26.157  24.531  17.325  1.00 24.33     0.041 C 
BRANCH   4   5
ATOM      5  CE  LYS A 131      25.945  23.912  18.703  1.00 26.91     0.338 C 
ATOM      6  NZ  LYS A 131      24.887  22.876  18.650  1.00 27.40     0.618 N 
ENDBRANCH   4   5
ENDBRANCH   3   4
ENDBRANCH   2   3
ENDBRANCH   1   2
END_RES LYS A 131
BEGIN_RES LYS A 135
REMARK  4 active torsions:
REMARK  status: ('A' for Active; 'I' for Inactive)
REMARK    5  A    between atoms: CA   and  CB  
REMARK    6  A    between atoms: CB   and  CG  
REMARK    7  A    between atoms: CG   and  CD  
REMARK    8  A    between atoms: CD   and  CE  
ROOT
ATOM      7  CA  LYS A 135      33.193  34.663   9.290  1.00 25.02     0.186 C 
ENDROOT
BRANCH   7   8
ATOM      8  CB  LYS A 135      32.060  35.360  10.034  1.00 26.63     0.034 C 
BRANCH   8   9
ATOM      9  CG  LYS A 135      30.734  34.655   9.909  1.00 29.45     0.005 C 
BRANCH   9  10
ATOM     10  CD  LYS A 135      30.328  34.530   8.448  1.00 32.00     0.041 C 
BRANCH  10  11
ATOM     11  CE  LYS A 135      28.818  34.557   8.311  1.00 34.25     0.338 C 
ATOM     12  NZ  LYS A 135      28.165  33.807   9.419  1.00 35.99     0.618 N 
ENDBRANCH  10  11
ENDBRANCH   9  10
ENDBRANCH   8   9
ENDBRANCH   7   8
END_RES LYS A 135
