REMARK VINA RESULT:    -4.478      2.425      8.384
REMARK INTER + INTRA:         -21.965
REMARK INTER:                  -9.606
REMARK INTRA:                 -12.359
REMARK UNBOUND:               -10.943
REMARK SMILES CC(=O)N[C@@H]1[C@@H](O)C[C@](OC[C@H]2O[C@@H](O[C@H]3[C@H](O)[C@@H](O)[C@H](OCCN=[N+]=[N-])O[C@@H]3CO)[C@H](O)[C@@H](O)[C@H]2O)(C(=O)O)O[C@H]1C(O)[C@H](O)CNC(=O)OCc1cn([C@@H]2C[C@H]3CC[C@@H](C2)N3C)nn1
REMARK SMILES IDX 9 1 8 2 6 3 5 4 42 5 41 6 10 7 11 8 12 9 14 10 13 11 32 12
REMARK SMILES IDX 34 13 36 14 15 15 16 16 29 17 28 18 21 19 17 20 19 21 30 22
REMARK SMILES IDX 31 23 22 25 23 26 24 27 25 28 26 29 27 30 18 31 20 33 33 35
REMARK SMILES IDX 35 37 37 39 38 41 39 42 40 43 7 45 43 47 44 48 45 50 46 51
REMARK SMILES IDX 47 53 48 54 49 55 50 57 51 58 52 59 53 60 54 61 66 62 55 63
REMARK SMILES IDX 65 64 56 65 62 66 57 67 61 68 58 69 63 70 60 71 59 72 64 73
REMARK SMILES IDX 4 74 2 75 1 77 3 78
REMARK H PARENT 31 24 18 32 20 34 33 36 35 38 37 40 40 44 7 46 44 49 46 52
REMARK H PARENT 48 56 4 76
REMARK Flexibility Score: inf
ROOT
ATOM      1  C   UNL     1      29.959  31.241  19.255  1.00  0.00     0.272 C 
ATOM      2  C   UNL     1      29.318  29.957  19.600  1.00  0.00     0.113 C 
ATOM      3  C   UNL     1      27.812  30.102  19.767  1.00  0.00     0.145 C 
ATOM      4  C   UNL     1      27.520  31.234  20.779  1.00  0.00     0.142 C 
ATOM      5  C   UNL     1      28.404  32.397  20.560  1.00  0.00     0.178 C 
ATOM      6  O   UNL     1      28.986  32.277  19.315  1.00  0.00    -0.332 OA
ENDROOT
BRANCH   1   7
ATOM      7  O   UNL     1      30.682  31.401  18.128  1.00  0.00    -0.338 OA
BRANCH   7   8
ATOM      8  C   UNL     1      30.364  31.276  16.880  1.00  0.00     0.199 C 
BRANCH   8   9
ATOM      9  C   UNL     1      30.992  32.249  15.894  1.00  0.00     0.179 C 
ATOM     10  C   UNL     1      29.627  33.597  14.534  1.00  0.00     0.282 C 
ATOM     11  O   UNL     1      30.116  32.352  14.803  1.00  0.00    -0.341 OA
ATOM     12  C   UNL     1      30.679  34.637  14.338  1.00  0.00     0.202 C 
ATOM     13  C   UNL     1      31.587  34.615  15.517  1.00  0.00     0.179 C 
ATOM     14  C   UNL     1      31.251  33.578  16.530  1.00  0.00     0.177 C 
BRANCH  10  15
ATOM     15  O   UNL     1      28.597  33.984  15.372  1.00  0.00    -0.341 OA
BRANCH  15  16
ATOM     16  C   UNL     1      27.343  33.925  14.800  1.00  0.00     0.184 C 
ATOM     17  C   UNL     1      26.548  35.142  15.064  1.00  0.00     0.178 C 
ATOM     18  O   UNL     1      25.346  35.154  14.349  1.00  0.00    -0.341 OA
ATOM     19  C   UNL     1      25.003  33.907  13.826  1.00  0.00     0.281 C 
ATOM     20  C   UNL     1      26.535  32.782  15.504  1.00  0.00     0.180 C 
ATOM     21  C   UNL     1      25.223  32.758  14.789  1.00  0.00     0.202 C 
BRANCH  17  22
ATOM     22  C   UNL     1      27.234  36.455  14.920  1.00  0.00     0.191 C 
BRANCH  22  23
ATOM     23  O   UNL     1      28.109  36.668  15.982  1.00  0.00    -0.394 OA
ATOM     24  H   UNL     1      27.855  36.075  16.731  1.00  0.00     0.210 HD
ENDBRANCH  22  23
ENDBRANCH  17  22
BRANCH  19  25
ATOM     25  O   UNL     1      25.514  33.706  12.574  1.00  0.00    -0.350 OA
BRANCH  25  26
ATOM     26  C   UNL     1      25.514  34.713  11.675  1.00  0.00     0.169 C 
BRANCH  26  27
ATOM     27  C   UNL     1      26.850  35.148  11.198  1.00  0.00     0.119 C 
BRANCH  27  28
ATOM     28  N   UNL     1      26.925  36.479  10.703  1.00  0.00    -0.092 NA
ATOM     29  N   UNL     1      27.986  37.078  10.498  1.00  0.00     0.001 N 
ATOM     30  N   UNL     1      28.797  38.000  10.625  1.00  0.00    -0.003 NA
ENDBRANCH  27  28
ENDBRANCH  26  27
ENDBRANCH  25  26
ENDBRANCH  19  25
BRANCH  20  31
ATOM     31  O   UNL     1      27.169  31.573  15.363  1.00  0.00    -0.387 OA
ATOM     32  H   UNL     1      28.130  31.705  15.142  1.00  0.00     0.211 HD
ENDBRANCH  20  31
BRANCH  21  33
ATOM     33  O   UNL     1      24.165  32.738  15.703  1.00  0.00    -0.385 OA
ATOM     34  H   UNL     1      24.491  32.380  16.542  1.00  0.00     0.211 HD
ENDBRANCH  21  33
ENDBRANCH  15  16
ENDBRANCH  10  15
BRANCH  12  35
ATOM     35  O   UNL     1      31.409  34.343  13.168  1.00  0.00    -0.385 OA
ATOM     36  H   UNL     1      32.283  34.810  13.241  1.00  0.00     0.211 HD
ENDBRANCH  12  35
BRANCH  13  37
ATOM     37  O   UNL     1      31.602  35.875  16.163  1.00  0.00    -0.387 OA
ATOM     38  H   UNL     1      31.493  36.598  15.500  1.00  0.00     0.211 HD
ENDBRANCH  13  37
BRANCH  14  39
ATOM     39  O   UNL     1      30.208  34.028  17.349  1.00  0.00    -0.387 OA
ATOM     40  H   UNL     1      29.532  33.289  17.357  1.00  0.00     0.211 HD
ENDBRANCH  14  39
ENDBRANCH   8   9
ENDBRANCH   7   8
ENDBRANCH   1   7
BRANCH   1  41
ATOM     41  C   UNL     1      30.948  31.555  20.359  1.00  0.00     0.364 C 
ATOM     42  O   UNL     1      31.608  32.604  20.443  1.00  0.00    -0.246 OA
BRANCH  41  43
ATOM     43  O   UNL     1      31.162  30.622  21.378  1.00  0.00    -0.477 OA
ATOM     44  H   UNL     1      31.080  29.617  21.181  1.00  0.00     0.296 HD
ENDBRANCH  41  43
ENDBRANCH   1  41
BRANCH   3  45
ATOM     45  O   UNL     1      27.124  30.275  18.587  1.00  0.00    -0.391 OA
ATOM     46  H   UNL     1      26.146  30.350  18.804  1.00  0.00     0.211 HD
ENDBRANCH   3  45
BRANCH   5  47
ATOM     47  C   UNL     1      27.558  33.712  20.370  1.00  0.00     0.176 C 
BRANCH  47  48
ATOM     48  O   UNL     1      26.378  33.447  21.190  1.00  0.00    -0.388 OA
ATOM     49  H   UNL     1      26.536  33.969  22.034  1.00  0.00     0.211 HD
ENDBRANCH  47  48
BRANCH  47  50
ATOM     50  C   UNL     1      26.969  33.815  19.003  1.00  0.00     0.165 C 
BRANCH  50  51
ATOM     51  O   UNL     1      27.684  34.702  18.231  1.00  0.00    -0.388 OA
ATOM     52  H   UNL     1      27.471  34.713  17.284  1.00  0.00     0.211 HD
ENDBRANCH  50  51
BRANCH  50  53
ATOM     53  C   UNL     1      25.499  33.991  18.941  1.00  0.00     0.154 C 
BRANCH  53  54
ATOM     54  N   UNL     1      24.836  32.712  18.690  1.00  0.00    -0.319 N 
ATOM     55  C   UNL     1      23.752  32.292  19.469  1.00  0.00     0.407 C 
ATOM     56  H   UNL     1      25.191  32.129  17.918  1.00  0.00     0.167 HD
ATOM     57  O   UNL     1      23.351  33.045  20.405  1.00  0.00    -0.225 OA
BRANCH  55  58
ATOM     58  O   UNL     1      23.094  31.085  19.264  1.00  0.00    -0.443 OA
BRANCH  58  59
ATOM     59  C   UNL     1      23.827  29.884  19.054  1.00  0.00     0.294 C 
BRANCH  59  60
ATOM     60  C   UNL     1      23.932  29.612  17.587  1.00  0.00     0.120 A 
ATOM     61  C   UNL     1      23.019  28.949  16.793  1.00  0.00     0.138 A 
ATOM     62  N   UNL     1      24.927  29.955  16.776  1.00  0.00    -0.132 NA
ATOM     63  N   UNL     1      23.476  28.905  15.533  1.00  0.00    -0.249 N 
ATOM     64  N   UNL     1      24.663  29.539  15.564  1.00  0.00    -0.067 NA
BRANCH  63  65
ATOM     65  C   UNL     1      22.897  28.329  14.343  1.00  0.00     0.112 C 
ATOM     66  C   UNL     1      21.404  28.194  14.402  1.00  0.00     0.046 C 
ATOM     67  C   UNL     1      23.198  29.277  13.172  1.00  0.00     0.046 C 
ATOM     68  C   UNL     1      20.742  29.545  14.339  1.00  0.00     0.058 C 
ATOM     69  C   UNL     1      22.517  30.611  13.408  1.00  0.00     0.058 C 
ATOM     70  N   UNL     1      21.764  30.537  14.648  1.00  0.00    -0.300 NA
ATOM     71  C   UNL     1      20.318  29.906  12.940  1.00  0.00     0.021 C 
ATOM     72  C   UNL     1      21.399  30.801  12.402  1.00  0.00     0.021 C 
ATOM     73  C   UNL     1      21.103  31.767  14.962  1.00  0.00     0.105 C 
ENDBRANCH  63  65
ENDBRANCH  59  60
ENDBRANCH  58  59
ENDBRANCH  55  58
ENDBRANCH  53  54
ENDBRANCH  50  53
ENDBRANCH  47  50
ENDBRANCH   5  47
BRANCH   4  74
ATOM     74  N   UNL     1      27.583  30.632  22.117  1.00  0.00    -0.348 N 
ATOM     75  C   UNL     1      26.382  30.459  22.904  1.00  0.00     0.217 C 
ATOM     76  H   UNL     1      28.454  30.303  22.573  1.00  0.00     0.163 HD
ATOM     77  C   UNL     1      26.359  29.868  24.244  1.00  0.00     0.114 C 
ATOM     78  O   UNL     1      25.316  30.847  22.380  1.00  0.00    -0.275 OA
ENDBRANCH   4  74
TORSDOF 30
BEGIN_RES LYS A 131
REMARK  4 active torsions:
REMARK  status: ('A' for Active; 'I' for Inactive)
REMARK    1  A    between atoms: CA   and  CB  
REMARK    2  A    between atoms: CB   and  CG  
REMARK    3  A    between atoms: CG   and  CD  
REMARK    4  A    between atoms: CD   and  CE  
ROOT
ATOM      1  CA  LYS A 131      29.867  25.555  16.977  1.00 20.52     0.186 C 
ENDROOT
BRANCH   1   2
ATOM      2  CB  LYS A 131      28.345  25.722  17.026  1.00 20.94     0.034 C 
BRANCH   2   3
ATOM      3  CG  LYS A 131      27.601  24.401  16.906  1.00 22.96     0.005 C 
BRANCH   3   4
ATOM      4  CD  LYS A 131      26.436  24.319  17.853  1.00 24.33     0.041 C 
BRANCH   4   5
ATOM      5  CE  LYS A 131      26.319  25.625  18.631  1.00 26.91     0.338 C 
ATOM      6  NZ  LYS A 131      24.981  26.229  18.433  1.00 27.40     0.618 N 
ENDBRANCH   4   5
ENDBRANCH   3   4
ENDBRANCH   2   3
ENDBRANCH   1   2
END_RES LYS A 131
BEGIN_RES LYS A 135
REMARK  4 active torsions:
REMARK  status: ('A' for Active; 'I' for Inactive)
REMARK    5  A    between atoms: CA   and  CB  
REMARK    6  A    between atoms: CB   and  CG  
REMARK    7  A    between atoms: CG   and  CD  
REMARK    8  A    between atoms: CD   and  CE  
ROOT
ATOM      7  CA  LYS A 135      33.193  34.663   9.290  1.00 25.02     0.186 C 
ENDROOT
BRANCH   7   8
ATOM      8  CB  LYS A 135      32.060  35.360  10.034  1.00 26.63     0.034 C 
BRANCH   8   9
ATOM      9  CG  LYS A 135      30.709  34.738   9.794  1.00 29.45     0.005 C 
BRANCH   9  10
ATOM     10  CD  LYS A 135      30.291  34.906   8.341  1.00 32.00     0.041 C 
BRANCH  10  11
ATOM     11  CE  LYS A 135      28.834  34.527   8.158  1.00 34.25     0.338 C 
ATOM     12  NZ  LYS A 135      28.171  35.411   7.160  1.00 35.99     0.618 N 
ENDBRANCH  10  11
ENDBRANCH   9  10
ENDBRANCH   8   9
ENDBRANCH   7   8
END_RES LYS A 135
