REMARK VINA RESULT:    -5.686      3.170      8.493
REMARK INTER + INTRA:         -23.622
REMARK INTER:                 -11.396
REMARK INTRA:                 -12.226
REMARK UNBOUND:                -8.960
REMARK SMILES CC(=O)N[C@@H]1[C@@H](O)C[C@](OC[C@H]2O[C@@H](O[C@H]3[C@H](O)[C@@H](O)[C@H](OCCN=[N+]=[N-])O[C@@H]3CO)[C@H](O)[C@@H](O)[C@H]2O)(C(=O)O)O[C@H]1C(O)[C@H](O)CNC(=O)OCc1cn(Cc2cccc(C#N)c2)nn1
REMARK SMILES IDX 9 1 8 2 6 3 5 4 42 5 41 6 10 7 11 8 12 9 14 10 13 11 32 12
REMARK SMILES IDX 34 13 36 14 15 15 16 16 29 17 28 18 21 19 17 20 19 21 30 22
REMARK SMILES IDX 31 23 22 25 23 26 24 27 25 28 26 29 27 30 18 31 20 33 33 35
REMARK SMILES IDX 35 37 37 39 38 41 39 42 40 43 7 45 43 47 44 48 45 50 46 51
REMARK SMILES IDX 47 53 48 54 49 55 50 57 51 58 52 59 53 60 54 61 66 62 55 63
REMARK SMILES IDX 65 64 56 65 57 66 58 67 64 68 59 69 61 70 60 71 62 72 63 73
REMARK SMILES IDX 4 74 2 75 1 77 3 78
REMARK H PARENT 31 24 18 32 20 34 33 36 35 38 37 40 40 44 7 46 44 49 46 52
REMARK H PARENT 48 56 4 76
REMARK Flexibility Score: inf
ROOT
ATOM      1  C   UNL     1      28.665  34.170  20.455  1.00  0.00     0.272 C 
ATOM      2  C   UNL     1      27.716  33.016  20.671  1.00  0.00     0.113 C 
ATOM      3  C   UNL     1      27.561  32.052  19.572  1.00  0.00     0.145 C 
ATOM      4  C   UNL     1      27.736  32.712  18.200  1.00  0.00     0.142 C 
ATOM      5  C   UNL     1      28.899  33.594  18.131  1.00  0.00     0.178 C 
ATOM      6  O   UNL     1      29.310  34.220  19.263  1.00  0.00    -0.332 OA
ENDROOT
BRANCH   1   7
ATOM      7  O   UNL     1      29.568  34.162  21.419  1.00  0.00    -0.338 OA
BRANCH   7   8
ATOM      8  C   UNL     1      30.139  33.561  22.348  1.00  0.00     0.199 C 
BRANCH   8   9
ATOM      9  C   UNL     1      31.569  33.102  22.416  1.00  0.00     0.179 C 
ATOM     10  C   UNL     1      32.885  31.329  21.966  1.00  0.00     0.282 C 
ATOM     11  O   UNL     1      31.699  31.950  21.552  1.00  0.00    -0.341 OA
ATOM     12  C   UNL     1      34.086  32.133  21.601  1.00  0.00     0.202 C 
ATOM     13  C   UNL     1      33.893  33.616  21.859  1.00  0.00     0.179 C 
ATOM     14  C   UNL     1      32.491  34.086  21.670  1.00  0.00     0.177 C 
BRANCH  10  15
ATOM     15  O   UNL     1      32.963  30.067  21.382  1.00  0.00    -0.341 OA
BRANCH  15  16
ATOM     16  C   UNL     1      32.056  29.182  21.904  1.00  0.00     0.184 C 
ATOM     17  C   UNL     1      32.697  28.051  22.621  1.00  0.00     0.178 C 
ATOM     18  O   UNL     1      31.808  27.108  23.082  1.00  0.00    -0.341 OA
ATOM     19  C   UNL     1      30.906  26.628  22.158  1.00  0.00     0.281 C 
ATOM     20  C   UNL     1      31.385  28.515  20.659  1.00  0.00     0.180 C 
ATOM     21  C   UNL     1      30.293  27.655  21.262  1.00  0.00     0.202 C 
BRANCH  17  22
ATOM     22  C   UNL     1      33.464  28.551  23.824  1.00  0.00     0.191 C 
BRANCH  22  23
ATOM     23  O   UNL     1      34.771  28.877  23.450  1.00  0.00    -0.394 OA
ATOM     24  H   UNL     1      35.242  29.403  24.118  1.00  0.00     0.210 HD
ENDBRANCH  22  23
ENDBRANCH  17  22
BRANCH  19  25
ATOM     25  O   UNL     1      29.841  26.068  22.895  1.00  0.00    -0.350 OA
BRANCH  25  26
ATOM     26  C   UNL     1      29.095  27.064  23.468  1.00  0.00     0.169 C 
BRANCH  26  27
ATOM     27  C   UNL     1      27.633  26.724  23.547  1.00  0.00     0.119 C 
BRANCH  27  28
ATOM     28  N   UNL     1      26.963  26.791  22.269  1.00  0.00    -0.092 NA
ATOM     29  N   UNL     1      26.828  27.897  21.728  1.00  0.00     0.001 N 
ATOM     30  N   UNL     1      26.549  28.957  21.123  1.00  0.00    -0.003 NA
ENDBRANCH  27  28
ENDBRANCH  26  27
ENDBRANCH  25  26
ENDBRANCH  19  25
BRANCH  20  31
ATOM     31  O   UNL     1      30.923  29.519  19.851  1.00  0.00    -0.387 OA
ATOM     32  H   UNL     1      30.336  29.173  19.119  1.00  0.00     0.211 HD
ENDBRANCH  20  31
BRANCH  21  33
ATOM     33  O   UNL     1      29.647  27.006  20.213  1.00  0.00    -0.385 OA
ATOM     34  H   UNL     1      29.654  27.640  19.437  1.00  0.00     0.211 HD
ENDBRANCH  21  33
ENDBRANCH  15  16
ENDBRANCH  10  15
BRANCH  12  35
ATOM     35  O   UNL     1      35.139  31.754  22.465  1.00  0.00    -0.385 OA
ATOM     36  H   UNL     1      35.836  31.361  21.884  1.00  0.00     0.211 HD
ENDBRANCH  12  35
BRANCH  13  37
ATOM     37  O   UNL     1      34.685  34.275  20.906  1.00  0.00    -0.387 OA
ATOM     38  H   UNL     1      35.309  34.914  21.300  1.00  0.00     0.211 HD
ENDBRANCH  13  37
BRANCH  14  39
ATOM     39  O   UNL     1      32.201  33.971  20.302  1.00  0.00    -0.387 OA
ATOM     40  H   UNL     1      32.993  34.094  19.743  1.00  0.00     0.211 HD
ENDBRANCH  14  39
ENDBRANCH   8   9
ENDBRANCH   7   8
ENDBRANCH   1   7
BRANCH   1  41
ATOM     41  C   UNL     1      27.811  35.411  20.489  1.00  0.00     0.364 C 
ATOM     42  O   UNL     1      28.297  36.527  20.879  1.00  0.00    -0.246 OA
BRANCH  41  43
ATOM     43  O   UNL     1      26.496  35.394  20.109  1.00  0.00    -0.477 OA
ATOM     44  H   UNL     1      25.811  35.792  20.772  1.00  0.00     0.296 HD
ENDBRANCH  41  43
ENDBRANCH   1  41
BRANCH   3  45
ATOM     45  O   UNL     1      28.490  31.029  19.697  1.00  0.00    -0.391 OA
ATOM     46  H   UNL     1      28.220  30.332  20.341  1.00  0.00     0.211 HD
ENDBRANCH   3  45
BRANCH   5  47
ATOM     47  C   UNL     1      30.171  32.947  17.623  1.00  0.00     0.176 C 
BRANCH  47  48
ATOM     48  O   UNL     1      30.695  32.269  18.774  1.00  0.00    -0.388 OA
ATOM     49  H   UNL     1      31.535  32.723  19.012  1.00  0.00     0.211 HD
ENDBRANCH  47  48
BRANCH  47  50
ATOM     50  C   UNL     1      30.076  31.912  16.581  1.00  0.00     0.165 C 
BRANCH  50  51
ATOM     51  O   UNL     1      30.450  30.703  17.314  1.00  0.00    -0.388 OA
ATOM     52  H   UNL     1      30.289  29.929  16.694  1.00  0.00     0.211 HD
ENDBRANCH  50  51
BRANCH  50  53
ATOM     53  C   UNL     1      31.047  31.938  15.459  1.00  0.00     0.154 C 
BRANCH  53  54
ATOM     54  N   UNL     1      31.893  33.082  15.356  1.00  0.00    -0.319 N 
ATOM     55  C   UNL     1      31.487  34.197  14.549  1.00  0.00     0.407 C 
ATOM     56  H   UNL     1      32.796  33.166  15.838  1.00  0.00     0.167 HD
ATOM     57  O   UNL     1      30.383  34.106  13.964  1.00  0.00    -0.225 OA
BRANCH  55  58
ATOM     58  O   UNL     1      32.237  35.327  14.400  1.00  0.00    -0.443 OA
BRANCH  58  59
ATOM     59  C   UNL     1      32.113  36.446  15.302  1.00  0.00     0.294 C 
BRANCH  59  60
ATOM     60  C   UNL     1      33.011  36.225  16.472  1.00  0.00     0.120 A 
ATOM     61  C   UNL     1      34.287  36.711  16.640  1.00  0.00     0.138 A 
ATOM     62  N   UNL     1      32.745  35.511  17.570  1.00  0.00    -0.132 NA
ATOM     63  N   UNL     1      34.776  36.284  17.839  1.00  0.00    -0.248 N 
ATOM     64  N   UNL     1      33.812  35.556  18.380  1.00  0.00    -0.067 NA
BRANCH  63  65
ATOM     65  C   UNL     1      36.076  36.569  18.375  1.00  0.00     0.181 C 
BRANCH  65  66
ATOM     66  C   UNL     1      37.020  35.504  17.965  1.00  0.00    -0.025 A 
ATOM     67  C   UNL     1      37.514  34.564  18.831  1.00  0.00     0.006 A 
ATOM     68  C   UNL     1      37.439  35.442  16.641  1.00  0.00     0.025 A 
ATOM     69  C   UNL     1      38.390  33.585  18.445  1.00  0.00     0.002 A 
ATOM     70  C   UNL     1      38.317  34.460  16.254  1.00  0.00     0.052 A 
ATOM     71  C   UNL     1      38.825  33.501  17.130  1.00  0.00     0.019 A 
BRANCH  70  72
ATOM     72  C   UNL     1      38.742  34.401  14.880  1.00  0.00     0.099 C 
ATOM     73  N   UNL     1      39.096  34.364  13.766  1.00  0.00    -0.192 NA
ENDBRANCH  70  72
ENDBRANCH  65  66
ENDBRANCH  63  65
ENDBRANCH  59  60
ENDBRANCH  58  59
ENDBRANCH  55  58
ENDBRANCH  53  54
ENDBRANCH  50  53
ENDBRANCH  47  50
ENDBRANCH   5  47
BRANCH   4  74
ATOM     74  N   UNL     1      26.456  33.296  17.803  1.00  0.00    -0.348 N 
ATOM     75  C   UNL     1      25.941  33.023  16.519  1.00  0.00     0.217 C 
ATOM     76  H   UNL     1      25.879  33.912  18.408  1.00  0.00     0.163 HD
ATOM     77  C   UNL     1      24.646  33.576  16.030  1.00  0.00     0.114 C 
ATOM     78  O   UNL     1      26.593  32.289  15.759  1.00  0.00    -0.275 OA
ENDBRANCH   4  74
TORSDOF 32
BEGIN_RES LYS A 131
REMARK  4 active torsions:
REMARK  status: ('A' for Active; 'I' for Inactive)
REMARK    1  A    between atoms: CA   and  CB  
REMARK    2  A    between atoms: CB   and  CG  
REMARK    3  A    between atoms: CG   and  CD  
REMARK    4  A    between atoms: CD   and  CE  
ROOT
ATOM      1  CA  LYS A 131      29.867  25.555  16.977  1.00 20.52     0.186 C 
ENDROOT
BRANCH   1   2
ATOM      2  CB  LYS A 131      28.345  25.722  17.026  1.00 20.94     0.034 C 
BRANCH   2   3
ATOM      3  CG  LYS A 131      27.603  24.396  16.963  1.00 22.96     0.005 C 
BRANCH   3   4
ATOM      4  CD  LYS A 131      26.579  24.267  18.056  1.00 24.33     0.041 C 
BRANCH   4   5
ATOM      5  CE  LYS A 131      26.490  25.580  18.827  1.00 26.91     0.338 C 
ATOM      6  NZ  LYS A 131      25.119  26.138  18.746  1.00 27.40     0.618 N 
ENDBRANCH   4   5
ENDBRANCH   3   4
ENDBRANCH   2   3
ENDBRANCH   1   2
END_RES LYS A 131
BEGIN_RES LYS A 135
REMARK  4 active torsions:
REMARK  status: ('A' for Active; 'I' for Inactive)
REMARK    5  A    between atoms: CA   and  CB  
REMARK    6  A    between atoms: CB   and  CG  
REMARK    7  A    between atoms: CG   and  CD  
REMARK    8  A    between atoms: CD   and  CE  
ROOT
ATOM      7  CA  LYS A 135      33.193  34.663   9.290  1.00 25.02     0.186 C 
ENDROOT
BRANCH   7   8
ATOM      8  CB  LYS A 135      32.060  35.360  10.034  1.00 26.63     0.034 C 
BRANCH   8   9
ATOM      9  CG  LYS A 135      30.698  34.793   9.725  1.00 29.45     0.005 C 
BRANCH   9  10
ATOM     10  CD  LYS A 135      30.563  34.502   8.239  1.00 32.00     0.041 C 
BRANCH  10  11
ATOM     11  CE  LYS A 135      29.191  34.913   7.738  1.00 34.25     0.338 C 
ATOM     12  NZ  LYS A 135      28.121  34.453   8.666  1.00 35.99     0.618 N 
ENDBRANCH  10  11
ENDBRANCH   9  10
ENDBRANCH   8   9
ENDBRANCH   7   8
END_RES LYS A 135
