REMARK VINA RESULT:    -5.483      2.934      8.681
REMARK INTER + INTRA:         -22.190
REMARK INTER:                 -11.872
REMARK INTRA:                 -10.318
REMARK UNBOUND:                -8.212
REMARK SMILES CC(=O)N[C@@H]1[C@@H](O)C[C@](OC[C@H]2O[C@@H](O[C@H]3[C@H](O)[C@@H](O)[C@H](OCCN=[N+]=[N-])O[C@@H]3CO)[C@H](O)[C@@H](O)[C@H]2O)(C(=O)O)O[C@H]1C(O)[C@H](O)CNC(=O)OCc1cn(-c2ccc(CO)cn2)nn1
REMARK SMILES IDX 9 1 8 2 6 3 5 4 42 5 41 6 10 7 11 8 12 9 14 10 13 11 32 12
REMARK SMILES IDX 34 13 36 14 15 15 16 16 29 17 28 18 21 19 17 20 19 21 30 22
REMARK SMILES IDX 31 23 22 25 23 26 24 27 25 28 26 29 27 30 18 31 20 33 33 35
REMARK SMILES IDX 35 37 37 39 38 41 39 42 40 43 7 45 43 47 44 48 45 50 46 51
REMARK SMILES IDX 47 53 48 54 49 55 50 57 51 58 52 59 53 60 54 61 65 62 55 63
REMARK SMILES IDX 64 64 56 65 57 66 63 67 58 68 62 69 59 70 60 71 61 72 4 74
REMARK SMILES IDX 2 75 1 77 3 78
REMARK H PARENT 31 24 18 32 20 34 33 36 35 38 37 40 40 44 7 46 44 49 46 52
REMARK H PARENT 48 56 61 73 4 76
REMARK Flexibility Score: inf
ROOT
ATOM      1  C   UNL     1      26.893  31.163  16.136  1.00  0.00     0.272 C 
ATOM      2  C   UNL     1      26.485  31.550  17.508  1.00  0.00     0.113 C 
ATOM      3  C   UNL     1      27.565  32.296  18.241  1.00  0.00     0.145 C 
ATOM      4  C   UNL     1      28.126  33.395  17.360  1.00  0.00     0.142 C 
ATOM      5  C   UNL     1      28.495  32.862  16.037  1.00  0.00     0.178 C 
ATOM      6  O   UNL     1      27.508  32.166  15.430  1.00  0.00    -0.332 OA
ENDROOT
BRANCH   1   7
ATOM      7  O   UNL     1      25.852  30.697  15.352  1.00  0.00    -0.338 OA
BRANCH   7   8
ATOM      8  C   UNL     1      24.747  30.316  16.086  1.00  0.00     0.199 C 
BRANCH   8   9
ATOM      9  C   UNL     1      23.500  30.799  15.410  1.00  0.00     0.179 C 
ATOM     10  C   UNL     1      22.586  32.616  14.423  1.00  0.00     0.282 C 
ATOM     11  O   UNL     1      23.770  31.838  14.497  1.00  0.00    -0.341 OA
ATOM     12  C   UNL     1      21.425  31.747  14.164  1.00  0.00     0.202 C 
ATOM     13  C   UNL     1      21.743  30.326  13.731  1.00  0.00     0.179 C 
ATOM     14  C   UNL     1      22.816  29.723  14.633  1.00  0.00     0.177 C 
BRANCH  10  15
ATOM     15  O   UNL     1      22.772  33.649  13.498  1.00  0.00    -0.341 OA
BRANCH  15  16
ATOM     16  C   UNL     1      23.983  34.288  13.651  1.00  0.00     0.184 C 
ATOM     17  C   UNL     1      23.911  35.741  14.005  1.00  0.00     0.178 C 
ATOM     18  O   UNL     1      24.353  36.584  12.990  1.00  0.00    -0.341 OA
ATOM     19  C   UNL     1      23.680  36.412  11.807  1.00  0.00     0.281 C 
ATOM     20  C   UNL     1      24.687  34.198  12.284  1.00  0.00     0.180 C 
ATOM     21  C   UNL     1      23.749  34.953  11.332  1.00  0.00     0.202 C 
BRANCH  17  22
ATOM     22  C   UNL     1      24.904  35.967  15.161  1.00  0.00     0.191 C 
BRANCH  22  23
ATOM     23  O   UNL     1      26.137  36.395  14.645  1.00  0.00    -0.394 OA
ATOM     24  H   UNL     1      26.668  36.870  15.354  1.00  0.00     0.210 HD
ENDBRANCH  22  23
ENDBRANCH  17  22
BRANCH  19  25
ATOM     25  O   UNL     1      24.270  37.225  10.843  1.00  0.00    -0.350 OA
BRANCH  25  26
ATOM     26  C   UNL     1      23.724  37.074   9.595  1.00  0.00     0.169 C 
BRANCH  26  27
ATOM     27  C   UNL     1      22.547  38.035   9.475  1.00  0.00     0.119 C 
BRANCH  27  28
ATOM     28  N   UNL     1      21.423  37.377   8.824  1.00  0.00    -0.092 NA
ATOM     29  N   UNL     1      21.046  36.250   9.096  1.00  0.00     0.001 N 
ATOM     30  N   UNL     1      20.374  35.326   9.556  1.00  0.00    -0.003 NA
ENDBRANCH  27  28
ENDBRANCH  26  27
ENDBRANCH  25  26
ENDBRANCH  19  25
BRANCH  20  31
ATOM     31  O   UNL     1      25.958  34.703  12.303  1.00  0.00    -0.387 OA
ATOM     32  H   UNL     1      26.086  35.295  11.548  1.00  0.00     0.211 HD
ENDBRANCH  20  31
BRANCH  21  33
ATOM     33  O   UNL     1      22.500  34.351  11.463  1.00  0.00    -0.385 OA
ATOM     34  H   UNL     1      22.336  33.826  10.639  1.00  0.00     0.211 HD
ENDBRANCH  21  33
ENDBRANCH  15  16
ENDBRANCH  10  15
BRANCH  12  35
ATOM     35  O   UNL     1      20.638  31.672  15.338  1.00  0.00    -0.385 OA
ATOM     36  H   UNL     1      20.190  30.791  15.418  1.00  0.00     0.211 HD
ENDBRANCH  12  35
BRANCH  13  37
ATOM     37  O   UNL     1      22.065  30.248  12.387  1.00  0.00    -0.387 OA
ATOM     38  H   UNL     1      21.647  29.510  11.919  1.00  0.00     0.211 HD
ENDBRANCH  13  37
BRANCH  14  39
ATOM     39  O   UNL     1      23.694  29.033  13.825  1.00  0.00    -0.387 OA
ATOM     40  H   UNL     1      24.299  28.501  14.377  1.00  0.00     0.211 HD
ENDBRANCH  14  39
ENDBRANCH   8   9
ENDBRANCH   7   8
ENDBRANCH   1   7
BRANCH   1  41
ATOM     41  C   UNL     1      27.899  30.031  16.157  1.00  0.00     0.364 C 
ATOM     42  O   UNL     1      28.873  29.967  15.370  1.00  0.00    -0.246 OA
BRANCH  41  43
ATOM     43  O   UNL     1      27.772  29.002  17.069  1.00  0.00    -0.477 OA
ATOM     44  H   UNL     1      28.106  29.132  18.032  1.00  0.00     0.296 HD
ENDBRANCH  41  43
ENDBRANCH   1  41
BRANCH   3  45
ATOM     45  O   UNL     1      26.933  32.951  19.316  1.00  0.00    -0.391 OA
ATOM     46  H   UNL     1      26.220  33.555  19.037  1.00  0.00     0.211 HD
ENDBRANCH   3  45
BRANCH   5  47
ATOM     47  C   UNL     1      29.059  33.911  15.096  1.00  0.00     0.176 C 
BRANCH  47  48
ATOM     48  O   UNL     1      28.105  34.236  14.133  1.00  0.00    -0.388 OA
ATOM     49  H   UNL     1      27.197  34.186  14.512  1.00  0.00     0.211 HD
ENDBRANCH  47  48
BRANCH  47  50
ATOM     50  C   UNL     1      30.314  33.538  14.403  1.00  0.00     0.165 C 
BRANCH  50  51
ATOM     51  O   UNL     1      30.722  32.225  14.674  1.00  0.00    -0.388 OA
ATOM     52  H   UNL     1      31.533  31.966  14.210  1.00  0.00     0.211 HD
ENDBRANCH  50  51
BRANCH  50  53
ATOM     53  C   UNL     1      31.461  34.496  14.550  1.00  0.00     0.154 C 
BRANCH  53  54
ATOM     54  N   UNL     1      30.992  35.853  14.645  1.00  0.00    -0.319 N 
ATOM     55  C   UNL     1      31.399  36.814  13.690  1.00  0.00     0.407 C 
ATOM     56  H   UNL     1      30.333  36.134  15.443  1.00  0.00     0.167 HD
ATOM     57  O   UNL     1      32.164  36.545  12.738  1.00  0.00    -0.225 OA
BRANCH  55  58
ATOM     58  O   UNL     1      30.956  38.139  13.767  1.00  0.00    -0.443 OA
BRANCH  58  59
ATOM     59  C   UNL     1      29.584  38.406  13.708  1.00  0.00     0.294 C 
BRANCH  59  60
ATOM     60  C   UNL     1      28.888  37.919  12.525  1.00  0.00     0.121 A 
ATOM     61  C   UNL     1      29.058  38.348  11.232  1.00  0.00     0.146 A 
ATOM     62  N   UNL     1      27.946  36.962  12.475  1.00  0.00    -0.131 NA
ATOM     63  N   UNL     1      28.223  37.649  10.436  1.00  0.00    -0.202 N 
ATOM     64  N   UNL     1      27.568  36.820  11.229  1.00  0.00    -0.061 NA
BRANCH  63  65
ATOM     65  C   UNL     1      28.112  37.818   9.032  1.00  0.00     0.155 A 
ATOM     66  C   UNL     1      27.069  37.252   8.307  1.00  0.00     0.049 A 
ATOM     67  N   UNL     1      29.022  38.529   8.344  1.00  0.00    -0.237 NA
ATOM     68  C   UNL     1      26.982  37.422   6.931  1.00  0.00     0.011 A 
ATOM     69  C   UNL     1      28.956  38.707   7.003  1.00  0.00     0.119 A 
ATOM     70  C   UNL     1      27.930  38.156   6.253  1.00  0.00    -0.004 A 
BRANCH  70  71
ATOM     71  C   UNL     1      27.833  38.331   4.780  1.00  0.00     0.193 C 
BRANCH  71  72
ATOM     72  O   UNL     1      27.719  39.681   4.446  1.00  0.00    -0.392 OA
ATOM     73  H   UNL     1      27.283  39.817   3.580  1.00  0.00     0.211 HD
ENDBRANCH  71  72
ENDBRANCH  70  71
ENDBRANCH  63  65
ENDBRANCH  59  60
ENDBRANCH  58  59
ENDBRANCH  55  58
ENDBRANCH  53  54
ENDBRANCH  50  53
ENDBRANCH  47  50
ENDBRANCH   5  47
BRANCH   4  74
ATOM     74  N   UNL     1      29.256  34.030  18.041  1.00  0.00    -0.348 N 
ATOM     75  C   UNL     1      30.488  33.399  18.196  1.00  0.00     0.217 C 
ATOM     76  H   UNL     1      29.120  34.992  18.411  1.00  0.00     0.163 HD
ATOM     77  C   UNL     1      31.567  34.166  18.927  1.00  0.00     0.114 C 
ATOM     78  O   UNL     1      30.747  32.262  17.777  1.00  0.00    -0.275 OA
ENDBRANCH   4  74
TORSDOF 32
BEGIN_RES LYS A 131
REMARK  4 active torsions:
REMARK  status: ('A' for Active; 'I' for Inactive)
REMARK    1  A    between atoms: CA   and  CB  
REMARK    2  A    between atoms: CB   and  CG  
REMARK    3  A    between atoms: CG   and  CD  
REMARK    4  A    between atoms: CD   and  CE  
ROOT
ATOM      1  CA  LYS A 131      29.867  25.555  16.977  1.00 20.52     0.186 C 
ENDROOT
BRANCH   1   2
ATOM      2  CB  LYS A 131      28.345  25.722  17.026  1.00 20.94     0.034 C 
BRANCH   2   3
ATOM      3  CG  LYS A 131      27.606  24.393  17.077  1.00 22.96     0.005 C 
BRANCH   3   4
ATOM      4  CD  LYS A 131      26.121  24.576  17.227  1.00 24.33     0.041 C 
BRANCH   4   5
ATOM      5  CE  LYS A 131      25.689  24.106  18.612  1.00 26.91     0.338 C 
ATOM      6  NZ  LYS A 131      25.776  25.217  19.589  1.00 27.40     0.618 N 
ENDBRANCH   4   5
ENDBRANCH   3   4
ENDBRANCH   2   3
ENDBRANCH   1   2
END_RES LYS A 131
BEGIN_RES LYS A 135
REMARK  4 active torsions:
REMARK  status: ('A' for Active; 'I' for Inactive)
REMARK    5  A    between atoms: CA   and  CB  
REMARK    6  A    between atoms: CB   and  CG  
REMARK    7  A    between atoms: CG   and  CD  
REMARK    8  A    between atoms: CD   and  CE  
ROOT
ATOM      7  CA  LYS A 135      33.193  34.663   9.290  1.00 25.02     0.186 C 
ENDROOT
BRANCH   7   8
ATOM      8  CB  LYS A 135      32.060  35.360  10.034  1.00 26.63     0.034 C 
BRANCH   8   9
ATOM      9  CG  LYS A 135      30.792  35.477   9.228  1.00 29.45     0.005 C 
BRANCH   9  10
ATOM     10  CD  LYS A 135      30.204  34.102   8.950  1.00 32.00     0.041 C 
BRANCH  10  11
ATOM     11  CE  LYS A 135      28.748  34.219   8.541  1.00 34.25     0.338 C 
ATOM     12  NZ  LYS A 135      27.848  33.698   9.607  1.00 35.99     0.618 N 
ENDBRANCH  10  11
ENDBRANCH   9  10
ENDBRANCH   8   9
ENDBRANCH   7   8
END_RES LYS A 135
