REMARK VINA RESULT:    -4.549      2.513      4.495
REMARK INTER + INTRA:         -24.995
REMARK INTER:                 -12.563
REMARK INTRA:                 -12.432
REMARK UNBOUND:               -13.000
REMARK SMILES CC(=O)N[C@@H]1[C@@H](O)C[C@](OC[C@H]2O[C@@H](O[C@H]3[C@H](O)[C@@H](O)[C@H](OCCN=[N+]=[N-])O[C@@H]3CO)[C@H](O)[C@@H](O)[C@H]2O)(C(=O)O)O[C@H]1C(O)[C@H](O)CNC(=O)OCc1cn(C(C)CC(=O)c2ccccc2)nn1
REMARK SMILES IDX 43 1 42 2 9 3 8 4 41 5 6 6 5 7 10 8 11 9 12 10 14 11 13 12
REMARK SMILES IDX 32 13 34 14 36 15 15 16 16 17 29 18 28 19 21 20 17 21 19 22
REMARK SMILES IDX 30 23 31 24 22 26 23 27 24 28 25 29 26 30 27 31 18 32 20 34
REMARK SMILES IDX 33 36 35 38 37 40 38 42 39 43 40 44 7 46 4 48 2 49 1 51 3 52
REMARK SMILES IDX 44 53 45 55 46 56 47 58 48 59 49 60 50 62 51 63 52 64 53 65
REMARK SMILES IDX 54 66 68 67 55 68 67 69 56 70 57 71 58 72 59 73 60 74 61 75
REMARK SMILES IDX 62 76 66 77 63 78 65 79 64 80
REMARK H PARENT 31 25 18 33 20 35 33 37 35 39 37 41 40 45 7 47 4 50 44 54
REMARK H PARENT 46 57 48 61
REMARK Flexibility Score: inf
ROOT
ATOM      1  C   UNL     1      23.183  39.291  10.525  1.00  0.00     0.176 C 
ENDROOT
BRANCH   1   2
ATOM      2  C   UNL     1      23.015  37.876  10.865  1.00  0.00     0.178 C 
ATOM      3  C   UNL     1      24.555  36.325   9.978  1.00  0.00     0.272 C 
ATOM      4  C   UNL     1      23.551  35.226   9.898  1.00  0.00     0.113 C 
ATOM      5  O   UNL     1      24.108  37.135  11.086  1.00  0.00    -0.332 OA
ATOM      6  C   UNL     1      22.150  35.729  10.194  1.00  0.00     0.145 C 
ATOM      7  C   UNL     1      22.021  37.178   9.909  1.00  0.00     0.142 C 
BRANCH   3   8
ATOM      8  O   UNL     1      24.793  37.132   8.987  1.00  0.00    -0.338 OA
BRANCH   8   9
ATOM      9  C   UNL     1      25.523  37.198   7.930  1.00  0.00     0.199 C 
BRANCH   9  10
ATOM     10  C   UNL     1      26.648  38.138   7.642  1.00  0.00     0.179 C 
ATOM     11  C   UNL     1      28.689  38.703   8.701  1.00  0.00     0.282 C 
ATOM     12  O   UNL     1      27.436  38.216   8.720  1.00  0.00    -0.341 OA
ATOM     13  C   UNL     1      29.512  38.055   7.637  1.00  0.00     0.202 C 
ATOM     14  C   UNL     1      28.802  37.885   6.372  1.00  0.00     0.179 C 
ATOM     15  C   UNL     1      27.318  38.028   6.331  1.00  0.00     0.177 C 
BRANCH  11  16
ATOM     16  O   UNL     1      29.217  38.411   9.988  1.00  0.00    -0.341 OA
BRANCH  16  17
ATOM     17  C   UNL     1      28.982  39.474  10.826  1.00  0.00     0.184 C 
ATOM     18  C   UNL     1      29.041  40.780  10.089  1.00  0.00     0.178 C 
ATOM     19  O   UNL     1      30.312  41.040   9.603  1.00  0.00    -0.341 OA
ATOM     20  C   UNL     1      31.338  41.012  10.495  1.00  0.00     0.281 C 
ATOM     21  C   UNL     1      30.060  39.471  11.930  1.00  0.00     0.180 C 
ATOM     22  C   UNL     1      31.396  39.815  11.381  1.00  0.00     0.202 C 
BRANCH  18  23
ATOM     23  C   UNL     1      28.517  41.923  10.935  1.00  0.00     0.191 C 
BRANCH  23  24
ATOM     24  O   UNL     1      27.398  41.568  11.678  1.00  0.00    -0.394 OA
ATOM     25  H   UNL     1      26.632  41.423  11.061  1.00  0.00     0.210 HD
ENDBRANCH  23  24
ENDBRANCH  18  23
BRANCH  20  26
ATOM     26  O   UNL     1      31.513  42.166  11.216  1.00  0.00    -0.350 OA
BRANCH  26  27
ATOM     27  C   UNL     1      32.589  42.174  12.061  1.00  0.00     0.169 C 
BRANCH  27  28
ATOM     28  C   UNL     1      32.312  42.892  13.355  1.00  0.00     0.119 C 
BRANCH  28  29
ATOM     29  N   UNL     1      31.593  41.990  14.236  1.00  0.00    -0.092 NA
ATOM     30  N   UNL     1      31.554  42.225  15.441  1.00  0.00     0.001 N 
ATOM     31  N   UNL     1      31.356  42.580  16.605  1.00  0.00    -0.003 NA
ENDBRANCH  28  29
ENDBRANCH  27  28
ENDBRANCH  26  27
ENDBRANCH  20  26
BRANCH  21  32
ATOM     32  O   UNL     1      29.673  40.272  12.997  1.00  0.00    -0.387 OA
ATOM     33  H   UNL     1      30.407  40.844  13.328  1.00  0.00     0.211 HD
ENDBRANCH  21  32
BRANCH  22  34
ATOM     34  O   UNL     1      32.023  38.719  10.786  1.00  0.00    -0.385 OA
ATOM     35  H   UNL     1      32.467  39.076   9.975  1.00  0.00     0.211 HD
ENDBRANCH  22  34
ENDBRANCH  16  17
ENDBRANCH  11  16
BRANCH  13  36
ATOM     36  O   UNL     1      30.681  38.835   7.394  1.00  0.00    -0.385 OA
ATOM     37  H   UNL     1      30.856  38.727   6.421  1.00  0.00     0.211 HD
ENDBRANCH  13  36
BRANCH  14  38
ATOM     38  O   UNL     1      29.172  36.618   5.836  1.00  0.00    -0.387 OA
ATOM     39  H   UNL     1      28.401  36.161   5.426  1.00  0.00     0.211 HD
ENDBRANCH  14  38
BRANCH  15  40
ATOM     40  O   UNL     1      26.819  37.067   5.476  1.00  0.00    -0.387 OA
ATOM     41  H   UNL     1      25.897  37.121   5.214  1.00  0.00     0.211 HD
ENDBRANCH  15  40
ENDBRANCH   9  10
ENDBRANCH   8   9
ENDBRANCH   3   8
BRANCH   3  42
ATOM     42  C   UNL     1      25.837  35.716  10.544  1.00  0.00     0.364 C 
ATOM     43  O   UNL     1      25.897  34.498  10.750  1.00  0.00    -0.246 OA
BRANCH  42  44
ATOM     44  O   UNL     1      26.928  36.507  10.825  1.00  0.00    -0.477 OA
ATOM     45  H   UNL     1      27.845  36.116  10.645  1.00  0.00     0.296 HD
ENDBRANCH  42  44
ENDBRANCH   3  42
BRANCH   6  46
ATOM     46  O   UNL     1      21.188  34.954   9.556  1.00  0.00    -0.391 OA
ATOM     47  H   UNL     1      21.396  33.982   9.755  1.00  0.00     0.211 HD
ENDBRANCH   6  46
BRANCH   7  48
ATOM     48  N   UNL     1      20.693  37.655  10.283  1.00  0.00    -0.348 N 
ATOM     49  C   UNL     1      19.892  38.466   9.434  1.00  0.00     0.217 C 
ATOM     50  H   UNL     1      20.313  37.391  11.209  1.00  0.00     0.163 HD
ATOM     51  C   UNL     1      18.562  38.943   9.815  1.00  0.00     0.114 C 
ATOM     52  O   UNL     1      20.356  38.796   8.289  1.00  0.00    -0.275 OA
ENDBRANCH   7  48
ENDBRANCH   1   2
BRANCH   1  53
ATOM     53  O   UNL     1      23.116  39.570   9.139  1.00  0.00    -0.388 OA
ATOM     54  H   UNL     1      24.056  39.791   8.857  1.00  0.00     0.211 HD
ENDBRANCH   1  53
BRANCH   1  55
ATOM     55  C   UNL     1      24.428  39.991  11.027  1.00  0.00     0.165 C 
BRANCH  55  56
ATOM     56  O   UNL     1      25.595  39.506  10.533  1.00  0.00    -0.388 OA
ATOM     57  H   UNL     1      26.081  39.017  11.237  1.00  0.00     0.211 HD
ENDBRANCH  55  56
BRANCH  55  58
ATOM     58  C   UNL     1      24.410  39.852  12.557  1.00  0.00     0.154 C 
BRANCH  58  59
ATOM     59  N   UNL     1      25.582  39.141  13.014  1.00  0.00    -0.319 N 
ATOM     60  C   UNL     1      25.594  38.060  13.923  1.00  0.00     0.407 C 
ATOM     61  H   UNL     1      26.547  39.418  12.650  1.00  0.00     0.167 HD
ATOM     62  O   UNL     1      24.532  37.595  14.381  1.00  0.00    -0.225 OA
BRANCH  60  63
ATOM     63  O   UNL     1      26.803  37.472  14.347  1.00  0.00    -0.443 OA
BRANCH  63  64
ATOM     64  C   UNL     1      26.861  36.034  14.459  1.00  0.00     0.294 C 
BRANCH  64  65
ATOM     65  C   UNL     1      28.191  35.687  13.835  1.00  0.00     0.120 A 
ATOM     66  C   UNL     1      29.381  36.372  14.145  1.00  0.00     0.138 A 
ATOM     67  N   UNL     1      28.524  34.800  12.917  1.00  0.00    -0.132 NA
ATOM     68  N   UNL     1      30.375  35.871  13.397  1.00  0.00    -0.249 N 
ATOM     69  N   UNL     1      29.844  34.924  12.664  1.00  0.00    -0.067 NA
BRANCH  68  70
ATOM     70  C   UNL     1      31.753  36.367  13.440  1.00  0.00     0.114 C 
ATOM     71  C   UNL     1      31.872  37.368  14.546  1.00  0.00     0.034 C 
BRANCH  70  72
ATOM     72  C   UNL     1      32.721  35.232  13.485  1.00  0.00     0.108 C 
BRANCH  72  73
ATOM     73  C   UNL     1      33.058  34.977  14.911  1.00  0.00     0.164 C 
ATOM     74  O   UNL     1      34.025  35.519  15.451  1.00  0.00    -0.294 OA
BRANCH  73  75
ATOM     75  C   UNL     1      32.189  34.051  15.655  1.00  0.00     0.018 A 
ATOM     76  C   UNL     1      31.722  32.904  15.126  1.00  0.00     0.012 A 
ATOM     77  C   UNL     1      31.861  34.414  16.971  1.00  0.00     0.012 A 
ATOM     78  C   UNL     1      30.902  32.055  15.888  1.00  0.00     0.001 A 
ATOM     79  C   UNL     1      31.064  33.575  17.695  1.00  0.00     0.001 A 
ATOM     80  C   UNL     1      30.578  32.403  17.179  1.00  0.00     0.000 A 
ENDBRANCH  73  75
ENDBRANCH  72  73
ENDBRANCH  70  72
ENDBRANCH  68  70
ENDBRANCH  64  65
ENDBRANCH  63  64
ENDBRANCH  60  63
ENDBRANCH  58  59
ENDBRANCH  55  58
ENDBRANCH   1  55
TORSDOF 33
BEGIN_RES LYS A 131
REMARK  4 active torsions:
REMARK  status: ('A' for Active; 'I' for Inactive)
REMARK    1  A    between atoms: CA   and  CB  
REMARK    2  A    between atoms: CB   and  CG  
REMARK    3  A    between atoms: CG   and  CD  
REMARK    4  A    between atoms: CD   and  CE  
ROOT
ATOM      1  CA  LYS A 131      29.867  25.555  16.977  1.00 20.52     0.186 C 
ENDROOT
BRANCH   1   2
ATOM      2  CB  LYS A 131      28.345  25.722  17.026  1.00 20.94     0.034 C 
BRANCH   2   3
ATOM      3  CG  LYS A 131      27.599  24.426  16.749  1.00 22.96     0.005 C 
BRANCH   3   4
ATOM      4  CD  LYS A 131      26.958  23.865  17.988  1.00 24.33     0.041 C 
BRANCH   4   5
ATOM      5  CE  LYS A 131      25.615  23.237  17.627  1.00 26.91     0.338 C 
ATOM      6  NZ  LYS A 131      24.758  24.217  16.918  1.00 27.40     0.618 N 
ENDBRANCH   4   5
ENDBRANCH   3   4
ENDBRANCH   2   3
ENDBRANCH   1   2
END_RES LYS A 131
BEGIN_RES LYS A 135
REMARK  4 active torsions:
REMARK  status: ('A' for Active; 'I' for Inactive)
REMARK    5  A    between atoms: CA   and  CB  
REMARK    6  A    between atoms: CB   and  CG  
REMARK    7  A    between atoms: CG   and  CD  
REMARK    8  A    between atoms: CD   and  CE  
ROOT
ATOM      7  CA  LYS A 135      33.193  34.663   9.290  1.00 25.02     0.186 C 
ENDROOT
BRANCH   7   8
ATOM      8  CB  LYS A 135      32.060  35.360  10.034  1.00 26.63     0.034 C 
BRANCH   8   9
ATOM      9  CG  LYS A 135      30.790  35.472   9.230  1.00 29.45     0.005 C 
BRANCH   9  10
ATOM     10  CD  LYS A 135      30.289  34.095   8.824  1.00 32.00     0.041 C 
BRANCH  10  11
ATOM     11  CE  LYS A 135      28.809  33.956   9.125  1.00 34.25     0.338 C 
ATOM     12  NZ  LYS A 135      27.985  34.632   8.085  1.00 35.99     0.618 N 
ENDBRANCH  10  11
ENDBRANCH   9  10
ENDBRANCH   8   9
ENDBRANCH   7   8
END_RES LYS A 135
