REMARK VINA RESULT:    -4.260      3.782      9.435
REMARK INTER + INTRA:         -22.292
REMARK INTER:                  -9.901
REMARK INTRA:                 -12.392
REMARK UNBOUND:               -11.308
REMARK SMILES CC(=O)N[C@@H]1[C@@H](O)C[C@](OC[C@H]2O[C@@H](O[C@H]3[C@H](O)[C@@H](O)[C@H](OCCN=[N+]=[N-])O[C@@H]3CO)[C@H](O)[C@@H](O)[C@H]2O)(C(=O)O)O[C@H]1C(O)[C@H](O)CNC(=O)OCc1cn(CCN2CCCC2)nn1
REMARK SMILES IDX 9 1 8 2 6 3 5 4 42 5 41 6 10 7 11 8 12 9 14 10 13 11 32 12
REMARK SMILES IDX 34 13 36 14 15 15 16 16 29 17 28 18 21 19 17 20 19 21 30 22
REMARK SMILES IDX 31 23 22 25 23 26 24 27 25 28 26 29 27 30 18 31 20 33 33 35
REMARK SMILES IDX 35 37 37 39 38 41 39 42 40 43 7 45 43 47 44 48 45 50 46 51
REMARK SMILES IDX 47 53 48 54 49 55 50 57 51 58 52 59 53 60 54 61 64 62 55 63
REMARK SMILES IDX 63 64 56 65 57 66 58 67 59 68 62 69 60 70 61 71 4 72 2 73
REMARK SMILES IDX 1 75 3 76
REMARK H PARENT 31 24 18 32 20 34 33 36 35 38 37 40 40 44 7 46 44 49 46 52
REMARK H PARENT 48 56 4 74
REMARK Flexibility Score: inf
ROOT
ATOM      1  C   UNL     1      26.560  36.933  10.848  1.00  0.00     0.272 C 
ATOM      2  C   UNL     1      25.312  36.190  11.205  1.00  0.00     0.113 C 
ATOM      3  C   UNL     1      24.614  35.662   9.945  1.00  0.00     0.145 C 
ATOM      4  C   UNL     1      24.174  36.930   9.160  1.00  0.00     0.142 C 
ATOM      5  C   UNL     1      25.393  37.753   8.962  1.00  0.00     0.178 C 
ATOM      6  O   UNL     1      26.531  37.111   9.459  1.00  0.00    -0.332 OA
ENDROOT
BRANCH   1   7
ATOM      7  O   UNL     1      27.704  36.153  11.036  1.00  0.00    -0.338 OA
BRANCH   7   8
ATOM      8  C   UNL     1      27.955  35.689  12.276  1.00  0.00     0.199 C 
BRANCH   8   9
ATOM      9  C   UNL     1      29.262  36.218  12.859  1.00  0.00     0.179 C 
ATOM     10  C   UNL     1      31.170  37.384  12.346  1.00  0.00     0.282 C 
ATOM     11  O   UNL     1      29.832  37.228  12.102  1.00  0.00    -0.341 OA
ATOM     12  C   UNL     1      31.462  37.220  13.799  1.00  0.00     0.202 C 
ATOM     13  C   UNL     1      30.224  37.584  14.598  1.00  0.00     0.179 C 
ATOM     14  C   UNL     1      29.078  36.638  14.304  1.00  0.00     0.177 C 
BRANCH  10  15
ATOM     15  O   UNL     1      31.754  38.465  11.756  1.00  0.00    -0.341 OA
BRANCH  15  16
ATOM     16  C   UNL     1      31.058  39.512  11.325  1.00  0.00     0.184 C 
ATOM     17  C   UNL     1      30.895  39.680   9.829  1.00  0.00     0.178 C 
ATOM     18  O   UNL     1      29.745  40.450   9.631  1.00  0.00    -0.341 OA
ATOM     19  C   UNL     1      30.127  41.788   9.938  1.00  0.00     0.281 C 
ATOM     20  C   UNL     1      31.511  40.872  11.827  1.00  0.00     0.180 C 
ATOM     21  C   UNL     1      30.394  41.818  11.429  1.00  0.00     0.202 C 
BRANCH  17  22
ATOM     22  C   UNL     1      30.831  38.402   9.064  1.00  0.00     0.191 C 
BRANCH  22  23
ATOM     23  O   UNL     1      29.631  37.771   9.380  1.00  0.00    -0.394 OA
ATOM     24  H   UNL     1      29.807  36.846   9.707  1.00  0.00     0.210 HD
ENDBRANCH  22  23
ENDBRANCH  17  22
BRANCH  19  25
ATOM     25  O   UNL     1      29.027  42.546   9.696  1.00  0.00    -0.350 OA
BRANCH  25  26
ATOM     26  C   UNL     1      28.360  42.421   8.526  1.00  0.00     0.169 C 
BRANCH  26  27
ATOM     27  C   UNL     1      26.874  42.358   8.570  1.00  0.00     0.119 C 
BRANCH  27  28
ATOM     28  N   UNL     1      26.340  41.315   9.411  1.00  0.00    -0.092 NA
ATOM     29  N   UNL     1      25.147  41.052   9.361  1.00  0.00     0.001 N 
ATOM     30  N   UNL     1      23.950  40.828   9.152  1.00  0.00    -0.003 NA
ENDBRANCH  27  28
ENDBRANCH  26  27
ENDBRANCH  25  26
ENDBRANCH  19  25
BRANCH  20  31
ATOM     31  O   UNL     1      31.578  40.904  13.212  1.00  0.00    -0.387 OA
ATOM     32  H   UNL     1      32.376  41.339  13.568  1.00  0.00     0.211 HD
ENDBRANCH  20  31
BRANCH  21  33
ATOM     33  O   UNL     1      30.562  43.092  11.918  1.00  0.00    -0.385 OA
ATOM     34  H   UNL     1      29.821  43.709  11.791  1.00  0.00     0.211 HD
ENDBRANCH  21  33
ENDBRANCH  15  16
ENDBRANCH  10  15
BRANCH  12  35
ATOM     35  O   UNL     1      31.800  35.908  14.153  1.00  0.00    -0.385 OA
ATOM     36  H   UNL     1      32.734  35.875  14.511  1.00  0.00     0.211 HD
ENDBRANCH  12  35
BRANCH  13  37
ATOM     37  O   UNL     1      29.793  38.866  14.244  1.00  0.00    -0.387 OA
ATOM     38  H   UNL     1      30.547  39.371  13.803  1.00  0.00     0.211 HD
ENDBRANCH  13  37
BRANCH  14  39
ATOM     39  O   UNL     1      27.904  37.366  14.485  1.00  0.00    -0.387 OA
ATOM     40  H   UNL     1      27.460  37.373  13.586  1.00  0.00     0.211 HD
ENDBRANCH  14  39
ENDBRANCH   8   9
ENDBRANCH   7   8
ENDBRANCH   1   7
BRANCH   1  41
ATOM     41  C   UNL     1      26.698  38.250  11.523  1.00  0.00     0.364 C 
ATOM     42  O   UNL     1      25.863  38.534  12.436  1.00  0.00    -0.246 OA
BRANCH  41  43
ATOM     43  O   UNL     1      27.648  39.199  11.253  1.00  0.00    -0.477 OA
ATOM     44  H   UNL     1      28.563  39.279  11.634  1.00  0.00     0.296 HD
ENDBRANCH  41  43
ENDBRANCH   1  41
BRANCH   3  45
ATOM     45  O   UNL     1      25.488  34.987   9.131  1.00  0.00    -0.391 OA
ATOM     46  H   UNL     1      25.295  34.013   9.072  1.00  0.00     0.211 HD
ENDBRANCH   3  45
BRANCH   5  47
ATOM     47  C   UNL     1      25.693  37.922   7.491  1.00  0.00     0.176 C 
BRANCH  47  48
ATOM     48  O   UNL     1      24.801  38.729   6.811  1.00  0.00    -0.388 OA
ATOM     49  H   UNL     1      25.170  39.572   6.467  1.00  0.00     0.211 HD
ENDBRANCH  47  48
BRANCH  47  50
ATOM     50  C   UNL     1      27.088  38.180   7.074  1.00  0.00     0.165 C 
BRANCH  50  51
ATOM     51  O   UNL     1      27.778  39.140   7.776  1.00  0.00    -0.388 OA
ATOM     52  H   UNL     1      28.551  38.821   8.294  1.00  0.00     0.211 HD
ENDBRANCH  50  51
BRANCH  50  53
ATOM     53  C   UNL     1      27.397  38.036   5.620  1.00  0.00     0.154 C 
BRANCH  53  54
ATOM     54  N   UNL     1      28.274  39.027   5.116  1.00  0.00    -0.319 N 
ATOM     55  C   UNL     1      27.804  40.240   4.503  1.00  0.00     0.407 C 
ATOM     56  H   UNL     1      29.313  38.900   5.184  1.00  0.00     0.167 HD
ATOM     57  O   UNL     1      26.596  40.511   4.370  1.00  0.00    -0.225 OA
BRANCH  55  58
ATOM     58  O   UNL     1      28.715  41.184   4.028  1.00  0.00    -0.443 OA
BRANCH  58  59
ATOM     59  C   UNL     1      29.157  42.245   4.882  1.00  0.00     0.294 C 
BRANCH  59  60
ATOM     60  C   UNL     1      30.514  41.973   5.395  1.00  0.00     0.120 A 
ATOM     61  C   UNL     1      31.031  40.967   6.161  1.00  0.00     0.138 A 
ATOM     62  N   UNL     1      31.579  42.790   5.145  1.00  0.00    -0.132 NA
ATOM     63  N   UNL     1      32.333  41.176   6.354  1.00  0.00    -0.251 N 
ATOM     64  N   UNL     1      32.648  42.319   5.710  1.00  0.00    -0.067 NA
BRANCH  63  65
ATOM     65  C   UNL     1      33.295  40.409   7.080  1.00  0.00     0.161 C 
BRANCH  65  66
ATOM     66  C   UNL     1      34.591  40.220   6.382  1.00  0.00     0.108 C 
BRANCH  66  67
ATOM     67  N   UNL     1      34.733  39.186   5.446  1.00  0.00    -0.301 NA
ATOM     68  C   UNL     1      34.530  39.422   4.072  1.00  0.00     0.084 C 
ATOM     69  C   UNL     1      35.830  38.291   5.656  1.00  0.00     0.084 C 
ATOM     70  C   UNL     1      35.698  38.805   3.317  1.00  0.00     0.017 C 
ATOM     71  C   UNL     1      36.355  37.893   4.312  1.00  0.00     0.017 C 
ENDBRANCH  66  67
ENDBRANCH  65  66
ENDBRANCH  63  65
ENDBRANCH  59  60
ENDBRANCH  58  59
ENDBRANCH  55  58
ENDBRANCH  53  54
ENDBRANCH  50  53
ENDBRANCH  47  50
ENDBRANCH   5  47
BRANCH   4  72
ATOM     72  N   UNL     1      23.139  37.554   9.963  1.00  0.00    -0.348 N 
ATOM     73  C   UNL     1      21.859  37.925   9.459  1.00  0.00     0.217 C 
ATOM     74  H   UNL     1      23.302  37.755  10.967  1.00  0.00     0.163 HD
ATOM     75  C   UNL     1      20.864  38.575  10.381  1.00  0.00     0.114 C 
ATOM     76  O   UNL     1      21.589  37.708   8.276  1.00  0.00    -0.275 OA
ENDBRANCH   4  72
TORSDOF 32
BEGIN_RES LYS A 131
REMARK  4 active torsions:
REMARK  status: ('A' for Active; 'I' for Inactive)
REMARK    1  A    between atoms: CA   and  CB  
REMARK    2  A    between atoms: CB   and  CG  
REMARK    3  A    between atoms: CG   and  CD  
REMARK    4  A    between atoms: CD   and  CE  
ROOT
ATOM      1  CA  LYS A 131      29.867  25.555  16.977  1.00 20.52     0.186 C 
ENDROOT
BRANCH   1   2
ATOM      2  CB  LYS A 131      28.345  25.722  17.026  1.00 20.94     0.034 C 
BRANCH   2   3
ATOM      3  CG  LYS A 131      27.601  24.403  16.887  1.00 22.96     0.005 C 
BRANCH   3   4
ATOM      4  CD  LYS A 131      26.527  24.246  17.927  1.00 24.33     0.041 C 
BRANCH   4   5
ATOM      5  CE  LYS A 131      25.647  23.051  17.574  1.00 26.91     0.338 C 
ATOM      6  NZ  LYS A 131      24.340  23.508  17.045  1.00 27.40     0.618 N 
ENDBRANCH   4   5
ENDBRANCH   3   4
ENDBRANCH   2   3
ENDBRANCH   1   2
END_RES LYS A 131
BEGIN_RES LYS A 135
REMARK  4 active torsions:
REMARK  status: ('A' for Active; 'I' for Inactive)
REMARK    5  A    between atoms: CA   and  CB  
REMARK    6  A    between atoms: CB   and  CG  
REMARK    7  A    between atoms: CG   and  CD  
REMARK    8  A    between atoms: CD   and  CE  
ROOT
ATOM      7  CA  LYS A 135      33.193  34.663   9.290  1.00 25.02     0.186 C 
ENDROOT
BRANCH   7   8
ATOM      8  CB  LYS A 135      32.060  35.360  10.034  1.00 26.63     0.034 C 
BRANCH   8   9
ATOM      9  CG  LYS A 135      30.773  34.576  10.044  1.00 29.45     0.005 C 
BRANCH   9  10
ATOM     10  CD  LYS A 135      30.408  34.126   8.637  1.00 32.00     0.041 C 
BRANCH  10  11
ATOM     11  CE  LYS A 135      28.970  34.487   8.319  1.00 34.25     0.338 C 
ATOM     12  NZ  LYS A 135      28.879  35.252   7.044  1.00 35.99     0.618 N 
ENDBRANCH  10  11
ENDBRANCH   9  10
ENDBRANCH   8   9
ENDBRANCH   7   8
END_RES LYS A 135
