REMARK VINA RESULT:    -5.534      2.699      7.630
REMARK INTER + INTRA:         -25.780
REMARK INTER:                 -12.550
REMARK INTRA:                 -13.230
REMARK UNBOUND:               -11.349
REMARK SMILES CC(=O)N[C@@H]1[C@@H](O)C[C@](OC[C@H]2O[C@@H](O[C@H]3[C@H](O)[C@@H](O)[C@H](OCCN=[N+]=[N-])O[C@@H]3CO)[C@H](O)[C@@H](O)[C@H]2O)(C(=O)O)O[C@H]1C(O)[C@H](O)CNC(=O)OCc1cn(-c2ccc(-c3c4ccc(=O)cc-4oc4cc(O)ccc34)c(C(=O)[O-])c2)nn1
REMARK SMILES IDX 9 1 8 2 6 3 5 4 42 5 41 6 10 7 11 8 12 9 14 10 13 11 32 12
REMARK SMILES IDX 34 13 36 14 15 15 16 16 29 17 28 18 21 19 17 20 19 21 30 22
REMARK SMILES IDX 31 23 22 25 23 26 24 27 25 28 26 29 27 30 18 31 20 33 33 35
REMARK SMILES IDX 35 37 37 39 38 41 39 42 40 43 7 45 43 47 44 48 45 50 46 51
REMARK SMILES IDX 47 53 48 54 49 55 50 57 51 58 52 59 53 60 54 61 82 62 55 63
REMARK SMILES IDX 81 64 56 65 80 66 57 67 76 68 58 69 59 70 77 71 78 72 79 73
REMARK SMILES IDX 60 74 75 75 61 76 74 77 69 78 67 79 62 80 73 81 70 82 68 83
REMARK SMILES IDX 66 84 63 85 71 86 64 87 65 88 72 89 4 91 2 92 1 94 3 95
REMARK H PARENT 31 24 18 32 20 34 33 36 35 38 37 40 40 44 7 46 44 49 46 52
REMARK H PARENT 48 56 72 90 4 93
REMARK Flexibility Score: inf
ROOT
ATOM      1  C   UNL     1      28.440  39.289  13.949  1.00  0.00     0.272 C 
ATOM      2  C   UNL     1      26.943  39.104  13.941  1.00  0.00     0.113 C 
ATOM      3  C   UNL     1      26.481  38.035  12.991  1.00  0.00     0.145 C 
ATOM      4  C   UNL     1      27.614  37.738  12.042  1.00  0.00     0.142 C 
ATOM      5  C   UNL     1      28.186  39.067  11.624  1.00  0.00     0.178 C 
ATOM      6  O   UNL     1      28.923  39.597  12.654  1.00  0.00    -0.332 OA
ENDROOT
BRANCH   1   7
ATOM      7  O   UNL     1      29.169  38.257  14.471  1.00  0.00    -0.338 OA
BRANCH   7   8
ATOM      8  C   UNL     1      30.492  38.498  14.582  1.00  0.00     0.199 C 
BRANCH   8   9
ATOM      9  C   UNL     1      31.298  37.197  14.714  1.00  0.00     0.179 C 
ATOM     10  C   UNL     1      31.083  34.986  15.333  1.00  0.00     0.282 C 
ATOM     11  O   UNL     1      30.701  36.287  15.507  1.00  0.00    -0.341 OA
ATOM     12  C   UNL     1      32.460  34.790  14.831  1.00  0.00     0.202 C 
ATOM     13  C   UNL     1      32.764  35.616  13.604  1.00  0.00     0.179 C 
ATOM     14  C   UNL     1      31.670  36.650  13.386  1.00  0.00     0.177 C 
BRANCH  10  15
ATOM     15  O   UNL     1      30.059  34.358  14.625  1.00  0.00    -0.341 OA
BRANCH  15  16
ATOM     16  C   UNL     1      29.448  33.362  15.314  1.00  0.00     0.184 C 
ATOM     17  C   UNL     1      28.360  33.861  16.213  1.00  0.00     0.178 C 
ATOM     18  O   UNL     1      27.496  32.812  16.556  1.00  0.00    -0.341 OA
ATOM     19  C   UNL     1      28.204  31.656  16.865  1.00  0.00     0.281 C 
ATOM     20  C   UNL     1      30.406  32.607  16.254  1.00  0.00     0.180 C 
ATOM     21  C   UNL     1      29.585  31.939  17.336  1.00  0.00     0.202 C 
BRANCH  17  22
ATOM     22  C   UNL     1      27.561  34.926  15.526  1.00  0.00     0.191 C 
BRANCH  22  23
ATOM     23  O   UNL     1      27.930  36.169  16.043  1.00  0.00    -0.394 OA
ATOM     24  H   UNL     1      27.330  36.835  15.640  1.00  0.00     0.210 HD
ENDBRANCH  22  23
ENDBRANCH  17  22
BRANCH  19  25
ATOM     25  O   UNL     1      28.190  30.764  15.814  1.00  0.00    -0.350 OA
BRANCH  25  26
ATOM     26  C   UNL     1      27.886  29.458  16.179  1.00  0.00     0.169 C 
BRANCH  26  27
ATOM     27  C   UNL     1      26.879  29.553  17.311  1.00  0.00     0.119 C 
BRANCH  27  28
ATOM     28  N   UNL     1      25.558  29.172  16.887  1.00  0.00    -0.092 NA
ATOM     29  N   UNL     1      25.079  28.114  17.316  1.00  0.00     0.001 N 
ATOM     30  N   UNL     1      24.331  27.264  17.799  1.00  0.00    -0.003 NA
ENDBRANCH  27  28
ENDBRANCH  26  27
ENDBRANCH  25  26
ENDBRANCH  19  25
BRANCH  20  31
ATOM     31  O   UNL     1      30.990  31.602  15.489  1.00  0.00    -0.387 OA
ATOM     32  H   UNL     1      31.963  31.691  15.391  1.00  0.00     0.211 HD
ENDBRANCH  20  31
BRANCH  21  33
ATOM     33  O   UNL     1      29.611  32.634  18.546  1.00  0.00    -0.385 OA
ATOM     34  H   UNL     1      28.725  33.110  18.594  1.00  0.00     0.211 HD
ENDBRANCH  21  33
ENDBRANCH  15  16
ENDBRANCH  10  15
BRANCH  12  35
ATOM     35  O   UNL     1      33.405  35.092  15.844  1.00  0.00    -0.385 OA
ATOM     36  H   UNL     1      34.133  35.650  15.437  1.00  0.00     0.211 HD
ENDBRANCH  12  35
BRANCH  13  37
ATOM     37  O   UNL     1      32.997  34.836  12.484  1.00  0.00    -0.387 OA
ATOM     38  H   UNL     1      32.132  34.678  12.039  1.00  0.00     0.211 HD
ENDBRANCH  13  37
BRANCH  14  39
ATOM     39  O   UNL     1      30.633  36.029  12.701  1.00  0.00    -0.387 OA
ATOM     40  H   UNL     1      30.852  35.051  12.713  1.00  0.00     0.211 HD
ENDBRANCH  14  39
ENDBRANCH   8   9
ENDBRANCH   7   8
ENDBRANCH   1   7
BRANCH   1  41
ATOM     41  C   UNL     1      28.659  40.591  14.697  1.00  0.00     0.364 C 
ATOM     42  O   UNL     1      28.381  40.748  15.899  1.00  0.00    -0.246 OA
BRANCH  41  43
ATOM     43  O   UNL     1      29.199  41.688  14.033  1.00  0.00    -0.477 OA
ATOM     44  H   UNL     1      30.157  41.969  14.184  1.00  0.00     0.296 HD
ENDBRANCH  41  43
ENDBRANCH   1  41
BRANCH   3  45
ATOM     45  O   UNL     1      26.039  36.941  13.709  1.00  0.00    -0.391 OA
ATOM     46  H   UNL     1      25.397  36.450  13.139  1.00  0.00     0.211 HD
ENDBRANCH   3  45
BRANCH   5  47
ATOM     47  C   UNL     1      29.158  38.889  10.454  1.00  0.00     0.176 C 
BRANCH  47  48
ATOM     48  O   UNL     1      30.089  37.887  10.820  1.00  0.00    -0.388 OA
ATOM     49  H   UNL     1      30.361  37.951  11.749  1.00  0.00     0.211 HD
ENDBRANCH  47  48
BRANCH  47  50
ATOM     50  C   UNL     1      29.961  40.129  10.232  1.00  0.00     0.165 C 
BRANCH  50  51
ATOM     51  O   UNL     1      29.191  41.255  10.530  1.00  0.00    -0.388 OA
ATOM     52  H   UNL     1      28.657  41.492   9.729  1.00  0.00     0.211 HD
ENDBRANCH  50  51
BRANCH  50  53
ATOM     53  C   UNL     1      30.599  40.254   8.894  1.00  0.00     0.154 C 
BRANCH  53  54
ATOM     54  N   UNL     1      29.653  40.070   7.817  1.00  0.00    -0.319 N 
ATOM     55  C   UNL     1      28.877  41.108   7.249  1.00  0.00     0.407 C 
ATOM     56  H   UNL     1      29.489  39.111   7.384  1.00  0.00     0.167 HD
ATOM     57  O   UNL     1      28.988  42.273   7.675  1.00  0.00    -0.225 OA
BRANCH  55  58
ATOM     58  O   UNL     1      27.974  40.892   6.215  1.00  0.00    -0.443 OA
BRANCH  58  59
ATOM     59  C   UNL     1      27.459  39.591   5.910  1.00  0.00     0.294 C 
BRANCH  59  60
ATOM     60  C   UNL     1      26.286  39.399   6.801  1.00  0.00     0.121 A 
ATOM     61  C   UNL     1      25.961  38.273   7.505  1.00  0.00     0.144 A 
ATOM     62  N   UNL     1      25.311  40.309   7.086  1.00  0.00    -0.131 NA
ATOM     63  N   UNL     1      24.822  38.497   8.195  1.00  0.00    -0.220 N 
ATOM     64  N   UNL     1      24.455  39.745   7.917  1.00  0.00    -0.062 NA
BRANCH  63  65
ATOM     65  C   UNL     1      24.171  37.565   9.045  1.00  0.00     0.067 A 
ATOM     66  C   UNL     1      23.653  37.927  10.266  1.00  0.00     0.039 A 
ATOM     67  C   UNL     1      24.051  36.263   8.629  1.00  0.00     0.029 A 
ATOM     68  C   UNL     1      23.027  36.988  11.050  1.00  0.00     0.007 A 
ATOM     69  C   UNL     1      23.422  35.323   9.417  1.00  0.00     0.012 A 
ATOM     70  C   UNL     1      22.897  35.662  10.642  1.00  0.00    -0.008 A 
BRANCH  68  71
ATOM     71  C   UNL     1      22.464  37.339  12.356  1.00  0.00     0.072 C 
ATOM     72  O   UNL     1      21.298  37.786  12.479  1.00  0.00    -0.545 OA
ATOM     73  O   UNL     1      23.231  37.176  13.483  1.00  0.00    -0.545 OA
ENDBRANCH  68  71
BRANCH  70  74
ATOM     74  C   UNL     1      22.231  34.681  11.479  1.00  0.00     0.004 A 
ATOM     75  C   UNL     1      22.981  33.935  12.354  1.00  0.00     0.026 A 
ATOM     76  C   UNL     1      20.877  34.471  11.421  1.00  0.00     0.026 A 
ATOM     77  C   UNL     1      24.343  34.077  12.479  1.00  0.00     0.016 A 
ATOM     78  C   UNL     1      22.328  32.997  13.145  1.00  0.00     0.139 A 
ATOM     79  C   UNL     1      20.228  33.461  12.285  1.00  0.00     0.139 A 
ATOM     80  C   UNL     1      20.063  35.177  10.572  1.00  0.00     0.016 A 
ATOM     81  C   UNL     1      25.088  33.321  13.364  1.00  0.00     0.047 A 
ATOM     82  C   UNL     1      23.075  32.250  14.022  1.00  0.00     0.093 A 
ATOM     83  O   UNL     1      21.025  32.801  13.084  1.00  0.00    -0.456 OA
ATOM     84  C   UNL     1      18.873  33.254  12.224  1.00  0.00     0.099 A 
ATOM     85  C   UNL     1      18.698  34.958  10.522  1.00  0.00     0.053 A 
ATOM     86  C   UNL     1      24.450  32.389  14.153  1.00  0.00     0.119 A 
ATOM     87  C   UNL     1      18.127  34.004  11.345  1.00  0.00     0.182 A 
ATOM     88  O   UNL     1      16.879  33.852  11.252  1.00  0.00    -0.290 OA
BRANCH  86  89
ATOM     89  O   UNL     1      25.205  31.635  15.038  1.00  0.00    -0.508 OA
ATOM     90  H   UNL     1      24.708  31.228  15.827  1.00  0.00     0.293 HD
ENDBRANCH  86  89
ENDBRANCH  70  74
ENDBRANCH  63  65
ENDBRANCH  59  60
ENDBRANCH  58  59
ENDBRANCH  55  58
ENDBRANCH  53  54
ENDBRANCH  50  53
ENDBRANCH  47  50
ENDBRANCH   5  47
BRANCH   4  91
ATOM     91  N   UNL     1      27.194  36.943  10.907  1.00  0.00    -0.348 N 
ATOM     92  C   UNL     1      27.367  35.546  10.961  1.00  0.00     0.217 C 
ATOM     93  H   UNL     1      26.769  37.354  10.047  1.00  0.00     0.163 HD
ATOM     94  C   UNL     1      26.975  34.635   9.857  1.00  0.00     0.114 C 
ATOM     95  O   UNL     1      27.883  34.981  11.987  1.00  0.00    -0.275 OA
ENDBRANCH   4  91
TORSDOF 33
BEGIN_RES LYS A 131
REMARK  4 active torsions:
REMARK  status: ('A' for Active; 'I' for Inactive)
REMARK    1  A    between atoms: CA   and  CB  
REMARK    2  A    between atoms: CB   and  CG  
REMARK    3  A    between atoms: CG   and  CD  
REMARK    4  A    between atoms: CD   and  CE  
ROOT
ATOM      1  CA  LYS A 131      29.867  25.555  16.977  1.00 20.52     0.186 C 
ENDROOT
BRANCH   1   2
ATOM      2  CB  LYS A 131      28.345  25.722  17.026  1.00 20.94     0.034 C 
BRANCH   2   3
ATOM      3  CG  LYS A 131      27.601  24.401  16.902  1.00 22.96     0.005 C 
BRANCH   3   4
ATOM      4  CD  LYS A 131      26.527  24.255  17.943  1.00 24.33     0.041 C 
BRANCH   4   5
ATOM      5  CE  LYS A 131      25.232  23.798  17.279  1.00 26.91     0.338 C 
ATOM      6  NZ  LYS A 131      24.959  22.377  17.599  1.00 27.40     0.618 N 
ENDBRANCH   4   5
ENDBRANCH   3   4
ENDBRANCH   2   3
ENDBRANCH   1   2
END_RES LYS A 131
BEGIN_RES LYS A 135
REMARK  4 active torsions:
REMARK  status: ('A' for Active; 'I' for Inactive)
REMARK    5  A    between atoms: CA   and  CB  
REMARK    6  A    between atoms: CB   and  CG  
REMARK    7  A    between atoms: CG   and  CD  
REMARK    8  A    between atoms: CD   and  CE  
ROOT
ATOM      7  CA  LYS A 135      33.193  34.663   9.290  1.00 25.02     0.186 C 
ENDROOT
BRANCH   7   8
ATOM      8  CB  LYS A 135      32.060  35.360  10.034  1.00 26.63     0.034 C 
BRANCH   8   9
ATOM      9  CG  LYS A 135      30.708  34.742   9.788  1.00 29.45     0.005 C 
BRANCH   9  10
ATOM     10  CD  LYS A 135      30.405  34.689   8.298  1.00 32.00     0.041 C 
BRANCH  10  11
ATOM     11  CE  LYS A 135      29.620  35.915   7.871  1.00 34.25     0.338 C 
ATOM     12  NZ  LYS A 135      28.817  35.638   6.648  1.00 35.99     0.618 N 
ENDBRANCH  10  11
ENDBRANCH   9  10
ENDBRANCH   8   9
ENDBRANCH   7   8
END_RES LYS A 135
