REMARK VINA RESULT:    -4.484      4.686     10.323
REMARK INTER + INTRA:         -24.612
REMARK INTER:                 -13.089
REMARK INTRA:                 -11.522
REMARK UNBOUND:               -12.132
REMARK SMILES CCOCCc1c(-c2ccccc2)nc(N)nc1-n1cc(COC(=O)NC[C@@H](O)C(O)[C@@H]2O[C@@](OC[C@H]3O[C@@H](O[C@H]4[C@H](O)[C@@H](O)[C@H](OCCN=[N+]=[N-])O[C@@H]4CO)[C@H](O)[C@@H](O)[C@H]3O)(C(=O)O)C[C@H](O)[C@H]2NC(C)=O)nn1
REMARK SMILES IDX 30 1 32 2 34 3 66 4 33 5 67 6 69 7 35 8 36 9 37 10 39 11
REMARK SMILES IDX 38 12 57 13 59 14 61 15 40 16 41 17 54 18 53 19 46 20 42 21
REMARK SMILES IDX 44 22 55 23 56 24 47 26 48 27 49 28 50 29 51 30 52 31 43 32
REMARK SMILES IDX 45 34 58 36 60 38 62 40 63 42 64 43 65 44 68 46 70 48 71 49
REMARK SMILES IDX 72 51 73 52 31 53 28 55 29 56 27 58 26 59 24 60 25 62 23 63
REMARK SMILES IDX 22 64 21 65 20 66 74 67 19 68 75 69 18 70 17 71 6 72 15 73
REMARK SMILES IDX 7 74 14 75 5 76 4 77 3 78 2 79 1 80 16 81 8 84 9 85 13 86
REMARK SMILES IDX 10 87 12 88 11 89
REMARK H PARENT 56 25 43 33 45 35 58 37 60 39 62 41 65 45 68 47 70 50 31 54
REMARK H PARENT 29 57 26 61 16 82 16 83
REMARK Flexibility Score: inf
ROOT
ATOM      1  C   UNL     1      21.270  34.815  12.580  1.00  0.00     0.176 C 
ENDROOT
BRANCH   1   2
ATOM      2  C   UNL     1      20.981  35.930  11.620  1.00  0.00     0.178 C 
ATOM      3  C   UNL     1      21.629  36.487   9.441  1.00  0.00     0.272 C 
ATOM      4  C   UNL     1      20.676  37.655   9.705  1.00  0.00     0.113 C 
ATOM      5  O   UNL     1      21.549  35.519  10.376  1.00  0.00    -0.332 OA
ATOM      6  C   UNL     1      20.907  38.291  11.042  1.00  0.00     0.145 C 
ATOM      7  C   UNL     1      21.576  37.259  11.932  1.00  0.00     0.142 C 
BRANCH   3   8
ATOM      8  O   UNL     1      22.884  37.025   9.259  1.00  0.00    -0.338 OA
BRANCH   8   9
ATOM      9  C   UNL     1      23.922  36.133   9.229  1.00  0.00     0.199 C 
BRANCH   9  10
ATOM     10  C   UNL     1      25.271  36.819   9.072  1.00  0.00     0.179 C 
ATOM     11  C   UNL     1      25.983  38.752   7.977  1.00  0.00     0.282 C 
ATOM     12  O   UNL     1      25.211  37.625   7.973  1.00  0.00    -0.341 OA
ATOM     13  C   UNL     1      25.548  39.568   9.201  1.00  0.00     0.202 C 
ATOM     14  C   UNL     1      26.145  38.806  10.383  1.00  0.00     0.179 C 
ATOM     15  C   UNL     1      25.860  37.347  10.317  1.00  0.00     0.177 C 
BRANCH  11  16
ATOM     16  O   UNL     1      25.819  39.444   6.799  1.00  0.00    -0.341 OA
BRANCH  16  17
ATOM     17  C   UNL     1      26.962  39.433   6.016  1.00  0.00     0.184 C 
ATOM     18  C   UNL     1      28.025  38.577   6.617  1.00  0.00     0.178 C 
ATOM     19  O   UNL     1      29.122  39.214   7.104  1.00  0.00    -0.341 OA
ATOM     20  C   UNL     1      29.680  40.216   6.376  1.00  0.00     0.281 C 
ATOM     21  C   UNL     1      27.416  40.822   5.684  1.00  0.00     0.180 C 
ATOM     22  C   UNL     1      28.863  40.788   5.266  1.00  0.00     0.202 C 
BRANCH  18  23
ATOM     23  C   UNL     1      28.389  37.405   5.705  1.00  0.00     0.191 C 
BRANCH  23  24
ATOM     24  O   UNL     1      27.260  36.725   5.281  1.00  0.00    -0.394 OA
ATOM     25  H   UNL     1      27.187  36.856   4.301  1.00  0.00     0.210 HD
ENDBRANCH  23  24
ENDBRANCH  18  23
BRANCH  20  26
ATOM     26  O   UNL     1      30.882  39.746   5.859  1.00  0.00    -0.350 OA
BRANCH  26  27
ATOM     27  C   UNL     1      31.942  39.826   6.729  1.00  0.00     0.169 C 
BRANCH  27  28
ATOM     28  C   UNL     1      33.295  39.789   6.059  1.00  0.00     0.119 C 
BRANCH  28  29
ATOM     29  N   UNL     1      33.974  41.061   6.301  1.00  0.00    -0.092 NA
ATOM     30  N   UNL     1      34.341  41.393   7.435  1.00  0.00     0.001 N 
ATOM     31  N   UNL     1      34.527  41.635   8.626  1.00  0.00    -0.003 NA
ENDBRANCH  28  29
ENDBRANCH  27  28
ENDBRANCH  26  27
ENDBRANCH  20  26
BRANCH  21  32
ATOM     32  O   UNL     1      26.679  41.389   4.641  1.00  0.00    -0.387 OA
ATOM     33  H   UNL     1      25.737  41.564   4.909  1.00  0.00     0.211 HD
ENDBRANCH  21  32
BRANCH  22  34
ATOM     34  O   UNL     1      29.269  42.104   5.051  1.00  0.00    -0.385 OA
ATOM     35  H   UNL     1      29.919  42.413   5.731  1.00  0.00     0.211 HD
ENDBRANCH  22  34
ENDBRANCH  16  17
ENDBRANCH  11  16
BRANCH  13  36
ATOM     36  O   UNL     1      26.030  40.854   9.181  1.00  0.00    -0.385 OA
ATOM     37  H   UNL     1      26.657  41.026   9.936  1.00  0.00     0.211 HD
ENDBRANCH  13  36
BRANCH  14  38
ATOM     38  O   UNL     1      25.885  39.399  11.597  1.00  0.00    -0.387 OA
ATOM     39  H   UNL     1      25.537  40.336  11.488  1.00  0.00     0.211 HD
ENDBRANCH  14  38
BRANCH  15  40
ATOM     40  O   UNL     1      25.001  37.036  11.393  1.00  0.00    -0.387 OA
ATOM     41  H   UNL     1      24.717  36.089  11.317  1.00  0.00     0.211 HD
ENDBRANCH  15  40
ENDBRANCH   9  10
ENDBRANCH   8   9
ENDBRANCH   3   8
BRANCH   3  42
ATOM     42  C   UNL     1      21.139  35.934   8.138  1.00  0.00     0.364 C 
ATOM     43  O   UNL     1      20.416  34.881   8.242  1.00  0.00    -0.246 OA
BRANCH  42  44
ATOM     44  O   UNL     1      21.400  36.456   6.904  1.00  0.00    -0.477 OA
ATOM     45  H   UNL     1      21.894  37.341   6.830  1.00  0.00     0.296 HD
ENDBRANCH  42  44
ENDBRANCH   3  42
BRANCH   6  46
ATOM     46  O   UNL     1      21.735  39.404  10.828  1.00  0.00    -0.391 OA
ATOM     47  H   UNL     1      22.195  39.679  11.645  1.00  0.00     0.211 HD
ENDBRANCH   6  46
BRANCH   7  48
ATOM     48  N   UNL     1      21.573  37.667  13.303  1.00  0.00    -0.348 N 
ATOM     49  C   UNL     1      22.618  38.412  13.909  1.00  0.00     0.217 C 
ATOM     50  H   UNL     1      20.736  37.405  13.868  1.00  0.00     0.163 HD
ATOM     51  C   UNL     1      22.508  38.780  15.334  1.00  0.00     0.114 C 
ATOM     52  O   UNL     1      23.615  38.750  13.236  1.00  0.00    -0.275 OA
ENDBRANCH   7  48
ENDBRANCH   1   2
BRANCH   1  53
ATOM     53  O   UNL     1      22.649  34.986  12.947  1.00  0.00    -0.388 OA
ATOM     54  H   UNL     1      22.930  34.121  13.313  1.00  0.00     0.211 HD
ENDBRANCH   1  53
BRANCH   1  55
ATOM     55  C   UNL     1      21.126  33.422  12.117  1.00  0.00     0.165 C 
BRANCH  55  56
ATOM     56  O   UNL     1      20.021  33.443  11.218  1.00  0.00    -0.388 OA
ATOM     57  H   UNL     1      19.232  33.740  11.715  1.00  0.00     0.211 HD
ENDBRANCH  55  56
BRANCH  55  58
ATOM     58  C   UNL     1      20.883  32.379  13.125  1.00  0.00     0.154 C 
BRANCH  58  59
ATOM     59  N   UNL     1      21.826  32.285  14.171  1.00  0.00    -0.319 N 
ATOM     60  C   UNL     1      23.031  31.559  14.138  1.00  0.00     0.407 C 
ATOM     61  H   UNL     1      21.668  32.796  15.118  1.00  0.00     0.167 HD
ATOM     62  O   UNL     1      23.390  30.900  13.138  1.00  0.00    -0.225 OA
BRANCH  60  63
ATOM     63  O   UNL     1      23.914  31.526  15.223  1.00  0.00    -0.443 OA
BRANCH  63  64
ATOM     64  C   UNL     1      25.282  31.213  15.067  1.00  0.00     0.294 C 
BRANCH  64  65
ATOM     65  C   UNL     1      26.145  32.388  15.332  1.00  0.00     0.121 A 
ATOM     66  C   UNL     1      26.237  33.534  14.585  1.00  0.00     0.146 A 
ATOM     67  N   UNL     1      27.028  32.555  16.343  1.00  0.00    -0.131 NA
ATOM     68  N   UNL     1      27.177  34.378  15.155  1.00  0.00    -0.202 N 
ATOM     69  N   UNL     1      27.607  33.733  16.197  1.00  0.00    -0.060 NA
BRANCH  68  70
ATOM     70  C   UNL     1      27.449  35.610  14.535  1.00  0.00     0.164 A 
ATOM     71  N   UNL     1      26.713  36.692  14.894  1.00  0.00    -0.193 NA
ATOM     72  C   UNL     1      28.490  35.823  13.620  1.00  0.00     0.026 A 
ATOM     73  C   UNL     1      26.934  37.922  14.427  1.00  0.00     0.222 A 
ATOM     74  C   UNL     1      28.737  37.071  13.133  1.00  0.00     0.081 A 
ATOM     75  N   UNL     1      27.933  38.102  13.560  1.00  0.00    -0.213 NA
BRANCH  72  76
ATOM     76  C   UNL     1      29.188  34.618  13.157  1.00  0.00     0.070 C 
BRANCH  76  77
ATOM     77  C   UNL     1      30.341  34.189  14.038  1.00  0.00     0.165 C 
BRANCH  77  78
ATOM     78  O   UNL     1      30.362  32.890  14.444  1.00  0.00    -0.381 OA
BRANCH  78  79
ATOM     79  C   UNL     1      31.177  32.552  15.482  1.00  0.00     0.156 C 
ATOM     80  C   UNL     1      31.864  33.793  16.078  1.00  0.00     0.035 C 
ENDBRANCH  78  79
ENDBRANCH  77  78
ENDBRANCH  76  77
ENDBRANCH  72  76
BRANCH  73  81
ATOM     81  N   UNL     1      26.127  39.031  14.834  1.00  0.00    -0.368 N 
ATOM     82  H   UNL     1      26.548  39.815  15.373  1.00  0.00     0.159 HD
ATOM     83  H   UNL     1      25.119  39.101  14.615  1.00  0.00     0.159 HD
ENDBRANCH  73  81
BRANCH  74  84
ATOM     84  C   UNL     1      29.805  37.379  12.208  1.00  0.00     0.001 A 
ATOM     85  C   UNL     1      29.456  37.774  10.918  1.00  0.00     0.010 A 
ATOM     86  C   UNL     1      31.139  37.319  12.565  1.00  0.00     0.010 A 
ATOM     87  C   UNL     1      30.424  38.112   9.981  1.00  0.00     0.001 A 
ATOM     88  C   UNL     1      32.081  37.657  11.622  1.00  0.00     0.001 A 
ATOM     89  C   UNL     1      31.747  38.049  10.349  1.00  0.00     0.000 A 
ENDBRANCH  74  84
ENDBRANCH  68  70
ENDBRANCH  64  65
ENDBRANCH  63  64
ENDBRANCH  60  63
ENDBRANCH  58  59
ENDBRANCH  55  58
ENDBRANCH   1  55
TORSDOF 36
BEGIN_RES LYS A 131
REMARK  4 active torsions:
REMARK  status: ('A' for Active; 'I' for Inactive)
REMARK    1  A    between atoms: CA   and  CB  
REMARK    2  A    between atoms: CB   and  CG  
REMARK    3  A    between atoms: CG   and  CD  
REMARK    4  A    between atoms: CD   and  CE  
ROOT
ATOM      1  CA  LYS A 131      29.867  25.555  16.977  1.00 20.52     0.186 C 
ENDROOT
BRANCH   1   2
ATOM      2  CB  LYS A 131      28.345  25.722  17.026  1.00 20.94     0.034 C 
BRANCH   2   3
ATOM      3  CG  LYS A 131      27.602  24.398  16.935  1.00 22.96     0.005 C 
BRANCH   3   4
ATOM      4  CD  LYS A 131      26.131  24.554  17.206  1.00 24.33     0.041 C 
BRANCH   4   5
ATOM      5  CE  LYS A 131      25.682  23.491  18.204  1.00 26.91     0.338 C 
ATOM      6  NZ  LYS A 131      25.595  24.064  19.568  1.00 27.40     0.618 N 
ENDBRANCH   4   5
ENDBRANCH   3   4
ENDBRANCH   2   3
ENDBRANCH   1   2
END_RES LYS A 131
BEGIN_RES LYS A 135
REMARK  4 active torsions:
REMARK  status: ('A' for Active; 'I' for Inactive)
REMARK    5  A    between atoms: CA   and  CB  
REMARK    6  A    between atoms: CB   and  CG  
REMARK    7  A    between atoms: CG   and  CD  
REMARK    8  A    between atoms: CD   and  CE  
ROOT
ATOM      7  CA  LYS A 135      33.193  34.663   9.290  1.00 25.02     0.186 C 
ENDROOT
BRANCH   7   8
ATOM      8  CB  LYS A 135      32.060  35.360  10.034  1.00 26.63     0.034 C 
BRANCH   8   9
ATOM      9  CG  LYS A 135      30.733  34.658   9.905  1.00 29.45     0.005 C 
BRANCH   9  10
ATOM     10  CD  LYS A 135      30.318  34.558   8.445  1.00 32.00     0.041 C 
BRANCH  10  11
ATOM     11  CE  LYS A 135      28.807  34.558   8.320  1.00 34.25     0.338 C 
ATOM     12  NZ  LYS A 135      28.157  34.558   9.660  1.00 35.99     0.618 N 
ENDBRANCH  10  11
ENDBRANCH   9  10
ENDBRANCH   8   9
ENDBRANCH   7   8
END_RES LYS A 135
