REMARK VINA RESULT:    -4.775      2.034      3.648
REMARK INTER + INTRA:         -23.244
REMARK INTER:                 -13.442
REMARK INTRA:                  -9.802
REMARK UNBOUND:               -11.213
REMARK SMILES CC(=O)N[C@@H]1[C@@H](O)C[C@](OC[C@H]2O[C@@H](O[C@H]3[C@H](O)[C@@H](O)[C@H](OCCN=[N+]=[N-])O[C@@H]3CO)[C@H](O)[C@@H](O)[C@H]2O)(C(=O)O)O[C@H]1C(O)[C@H](O)CNC(=O)OCc1cn(CC2=CC[C@H]3C[C@@H]2C3(C)C)nn1
REMARK SMILES IDX 9 1 8 2 6 3 5 4 42 5 41 6 10 7 11 8 12 9 14 10 13 11 32 12
REMARK SMILES IDX 34 13 36 14 15 15 16 16 29 17 28 18 21 19 17 20 19 21 30 22
REMARK SMILES IDX 31 23 22 25 23 26 24 27 25 28 26 29 27 30 18 31 20 33 33 35
REMARK SMILES IDX 35 37 37 39 38 41 39 42 40 43 7 45 43 47 44 48 45 50 46 51
REMARK SMILES IDX 47 53 48 54 49 55 50 57 51 58 52 59 53 60 54 61 67 62 55 63
REMARK SMILES IDX 66 64 56 65 57 66 58 67 62 68 59 69 61 70 63 71 60 72 64 73
REMARK SMILES IDX 65 74 4 75 2 76 1 78 3 79
REMARK H PARENT 31 24 18 32 20 34 33 36 35 38 37 40 40 44 7 46 44 49 46 52
REMARK H PARENT 48 56 4 77
REMARK Flexibility Score: inf
ROOT
ATOM      1  C   UNL     1      28.210  39.455   5.391  1.00  0.00     0.272 C 
ATOM      2  C   UNL     1      28.951  38.248   4.916  1.00  0.00     0.113 C 
ATOM      3  C   UNL     1      28.357  36.978   5.550  1.00  0.00     0.145 C 
ATOM      4  C   UNL     1      28.508  37.012   7.028  1.00  0.00     0.142 C 
ATOM      5  C   UNL     1      28.857  38.438   7.403  1.00  0.00     0.178 C 
ATOM      6  O   UNL     1      28.043  39.336   6.812  1.00  0.00    -0.332 OA
ENDROOT
BRANCH   1   7
ATOM      7  O   UNL     1      26.979  39.627   4.935  1.00  0.00    -0.338 OA
BRANCH   7   8
ATOM      8  C   UNL     1      26.286  40.726   4.781  1.00  0.00     0.199 C 
BRANCH   8   9
ATOM      9  C   UNL     1      25.210  41.221   5.652  1.00  0.00     0.179 C 
ATOM     10  C   UNL     1      23.783  40.410   7.282  1.00  0.00     0.282 C 
ATOM     11  O   UNL     1      24.992  40.201   6.630  1.00  0.00    -0.341 OA
ATOM     12  C   UNL     1      23.483  41.794   7.644  1.00  0.00     0.202 C 
ATOM     13  C   UNL     1      24.375  42.878   7.186  1.00  0.00     0.179 C 
ATOM     14  C   UNL     1      25.656  42.381   6.564  1.00  0.00     0.177 C 
BRANCH  10  15
ATOM     15  O   UNL     1      23.879  39.625   8.447  1.00  0.00    -0.341 OA
BRANCH  15  16
ATOM     16  C   UNL     1      23.019  38.541   8.430  1.00  0.00     0.184 C 
ATOM     17  C   UNL     1      22.175  38.530   9.672  1.00  0.00     0.178 C 
ATOM     18  O   UNL     1      21.554  37.320   9.925  1.00  0.00    -0.341 OA
ATOM     19  C   UNL     1      21.606  36.390   8.928  1.00  0.00     0.281 C 
ATOM     20  C   UNL     1      23.894  37.284   8.489  1.00  0.00     0.180 C 
ATOM     21  C   UNL     1      23.007  36.077   8.462  1.00  0.00     0.202 C 
BRANCH  17  22
ATOM     22  C   UNL     1      21.099  39.612   9.519  1.00  0.00     0.191 C 
BRANCH  22  23
ATOM     23  O   UNL     1      20.731  39.659   8.182  1.00  0.00    -0.394 OA
ATOM     24  H   UNL     1      21.319  39.018   7.678  1.00  0.00     0.210 HD
ENDBRANCH  22  23
ENDBRANCH  17  22
BRANCH  19  25
ATOM     25  O   UNL     1      20.837  36.767   7.819  1.00  0.00    -0.350 OA
BRANCH  25  26
ATOM     26  C   UNL     1      19.515  36.334   7.932  1.00  0.00     0.169 C 
BRANCH  26  27
ATOM     27  C   UNL     1      19.539  34.850   7.557  1.00  0.00     0.119 C 
BRANCH  27  28
ATOM     28  N   UNL     1      18.481  34.160   8.263  1.00  0.00    -0.092 NA
ATOM     29  N   UNL     1      18.462  34.064   9.477  1.00  0.00     0.001 N 
ATOM     30  N   UNL     1      18.553  33.870  10.695  1.00  0.00    -0.003 NA
ENDBRANCH  27  28
ENDBRANCH  26  27
ENDBRANCH  25  26
ENDBRANCH  19  25
BRANCH  20  31
ATOM     31  O   UNL     1      24.733  37.239   7.361  1.00  0.00    -0.387 OA
ATOM     32  H   UNL     1      24.633  36.381   6.894  1.00  0.00     0.211 HD
ENDBRANCH  20  31
BRANCH  21  33
ATOM     33  O   UNL     1      23.533  35.008   9.185  1.00  0.00    -0.385 OA
ATOM     34  H   UNL     1      24.314  35.346   9.708  1.00  0.00     0.211 HD
ENDBRANCH  21  33
ENDBRANCH  15  16
ENDBRANCH  10  15
BRANCH  12  35
ATOM     35  O   UNL     1      22.178  42.084   7.160  1.00  0.00    -0.385 OA
ATOM     36  H   UNL     1      21.886  41.414   6.492  1.00  0.00     0.211 HD
ENDBRANCH  12  35
BRANCH  13  37
ATOM     37  O   UNL     1      24.603  43.833   8.183  1.00  0.00    -0.387 OA
ATOM     38  H   UNL     1      25.501  44.245   8.061  1.00  0.00     0.211 HD
ENDBRANCH  13  37
BRANCH  14  39
ATOM     39  O   UNL     1      26.432  41.815   7.596  1.00  0.00    -0.387 OA
ATOM     40  H   UNL     1      26.926  42.524   8.076  1.00  0.00     0.211 HD
ENDBRANCH  14  39
ENDBRANCH   8   9
ENDBRANCH   7   8
ENDBRANCH   1   7
BRANCH   1  41
ATOM     41  C   UNL     1      29.080  40.657   5.309  1.00  0.00     0.364 C 
ATOM     42  O   UNL     1      29.199  41.428   6.324  1.00  0.00    -0.246 OA
BRANCH  41  43
ATOM     43  O   UNL     1      29.773  41.010   4.200  1.00  0.00    -0.477 OA
ATOM     44  H   UNL     1      29.991  41.936   3.872  1.00  0.00     0.296 HD
ENDBRANCH  41  43
ENDBRANCH   1  41
BRANCH   3  45
ATOM     45  O   UNL     1      26.986  37.082   5.275  1.00  0.00    -0.391 OA
ATOM     46  H   UNL     1      26.498  36.623   6.002  1.00  0.00     0.211 HD
ENDBRANCH   3  45
BRANCH   5  47
ATOM     47  C   UNL     1      28.741  38.634   8.917  1.00  0.00     0.176 C 
BRANCH  47  48
ATOM     48  O   UNL     1      29.747  37.967   9.568  1.00  0.00    -0.388 OA
ATOM     49  H   UNL     1      30.656  38.101   9.180  1.00  0.00     0.211 HD
ENDBRANCH  47  48
BRANCH  47  50
ATOM     50  C   UNL     1      27.392  38.200   9.407  1.00  0.00     0.165 C 
BRANCH  50  51
ATOM     51  O   UNL     1      26.595  39.380   9.413  1.00  0.00    -0.388 OA
ATOM     52  H   UNL     1      25.800  39.117   8.851  1.00  0.00     0.211 HD
ENDBRANCH  50  51
BRANCH  50  53
ATOM     53  C   UNL     1      27.432  37.729  10.825  1.00  0.00     0.154 C 
BRANCH  53  54
ATOM     54  N   UNL     1      27.194  36.334  11.008  1.00  0.00    -0.319 N 
ATOM     55  C   UNL     1      25.905  35.868  11.362  1.00  0.00     0.407 C 
ATOM     56  H   UNL     1      27.985  35.657  10.869  1.00  0.00     0.167 HD
ATOM     57  O   UNL     1      24.973  36.669  11.516  1.00  0.00    -0.225 OA
BRANCH  55  58
ATOM     58  O   UNL     1      25.663  34.519  11.538  1.00  0.00    -0.443 OA
BRANCH  58  59
ATOM     59  C   UNL     1      25.193  33.901  12.689  1.00  0.00     0.294 C 
BRANCH  59  60
ATOM     60  C   UNL     1      23.715  33.701  12.727  1.00  0.00     0.120 A 
ATOM     61  C   UNL     1      22.973  33.044  13.678  1.00  0.00     0.138 A 
ATOM     62  N   UNL     1      22.818  34.154  11.808  1.00  0.00    -0.132 NA
ATOM     63  N   UNL     1      21.684  33.105  13.334  1.00  0.00    -0.248 N 
ATOM     64  N   UNL     1      21.618  33.780  12.203  1.00  0.00    -0.067 NA
BRANCH  63  65
ATOM     65  C   UNL     1      20.539  32.537  14.070  1.00  0.00     0.177 C 
BRANCH  65  66
ATOM     66  C   UNL     1      20.609  31.059  13.819  1.00  0.00    -0.049 C 
ATOM     67  C   UNL     1      19.842  30.204  14.526  1.00  0.00    -0.025 C 
ATOM     68  C   UNL     1      21.497  30.471  12.806  1.00  0.00     0.023 C 
ATOM     69  C   UNL     1      20.052  28.749  14.363  1.00  0.00     0.031 C 
ATOM     70  C   UNL     1      20.679  29.394  12.079  1.00  0.00     0.013 C 
ATOM     71  C   UNL     1      22.291  29.357  13.419  1.00  0.00    -0.026 C 
ATOM     72  C   UNL     1      21.038  28.484  13.261  1.00  0.00    -0.000 C 
ATOM     73  C   UNL     1      23.391  28.810  12.542  1.00  0.00     0.012 C 
ATOM     74  C   UNL     1      22.764  29.540  14.821  1.00  0.00     0.012 C 
ENDBRANCH  65  66
ENDBRANCH  63  65
ENDBRANCH  59  60
ENDBRANCH  58  59
ENDBRANCH  55  58
ENDBRANCH  53  54
ENDBRANCH  50  53
ENDBRANCH  47  50
ENDBRANCH   5  47
BRANCH   4  75
ATOM     75  N   UNL     1      29.492  36.158   7.597  1.00  0.00    -0.348 N 
ATOM     76  C   UNL     1      29.267  34.947   8.266  1.00  0.00     0.217 C 
ATOM     77  H   UNL     1      30.496  36.486   7.497  1.00  0.00     0.163 HD
ATOM     78  C   UNL     1      30.394  34.149   8.815  1.00  0.00     0.114 C 
ATOM     79  O   UNL     1      28.085  34.575   8.377  1.00  0.00    -0.275 OA
ENDBRANCH   4  75
TORSDOF 31
BEGIN_RES LYS A 131
REMARK  4 active torsions:
REMARK  status: ('A' for Active; 'I' for Inactive)
REMARK    1  A    between atoms: CA   and  CB  
REMARK    2  A    between atoms: CB   and  CG  
REMARK    3  A    between atoms: CG   and  CD  
REMARK    4  A    between atoms: CD   and  CE  
ROOT
ATOM      1  CA  LYS A 131      29.867  25.555  16.977  1.00 20.52     0.186 C 
ENDROOT
BRANCH   1   2
ATOM      2  CB  LYS A 131      28.345  25.722  17.026  1.00 20.94     0.034 C 
BRANCH   2   3
ATOM      3  CG  LYS A 131      27.601  24.402  16.897  1.00 22.96     0.005 C 
BRANCH   3   4
ATOM      4  CD  LYS A 131      26.152  24.528  17.276  1.00 24.33     0.041 C 
BRANCH   4   5
ATOM      5  CE  LYS A 131      26.043  24.931  18.743  1.00 26.91     0.338 C 
ATOM      6  NZ  LYS A 131      24.971  25.938  18.927  1.00 27.40     0.618 N 
ENDBRANCH   4   5
ENDBRANCH   3   4
ENDBRANCH   2   3
ENDBRANCH   1   2
END_RES LYS A 131
BEGIN_RES LYS A 135
REMARK  4 active torsions:
REMARK  status: ('A' for Active; 'I' for Inactive)
REMARK    5  A    between atoms: CA   and  CB  
REMARK    6  A    between atoms: CB   and  CG  
REMARK    7  A    between atoms: CG   and  CD  
REMARK    8  A    between atoms: CD   and  CE  
ROOT
ATOM      7  CA  LYS A 135      33.193  34.663   9.290  1.00 25.02     0.186 C 
ENDROOT
BRANCH   7   8
ATOM      8  CB  LYS A 135      32.060  35.360  10.034  1.00 26.63     0.034 C 
BRANCH   8   9
ATOM      9  CG  LYS A 135      32.532  36.246  11.158  1.00 29.45     0.005 C 
BRANCH   9  10
ATOM     10  CD  LYS A 135      32.040  35.722  12.498  1.00 32.00     0.041 C 
BRANCH  10  11
ATOM     11  CE  LYS A 135      30.759  34.929  12.321  1.00 34.25     0.338 C 
ATOM     12  NZ  LYS A 135      29.731  35.342  13.317  1.00 35.99     0.618 N 
ENDBRANCH  10  11
ENDBRANCH   9  10
ENDBRANCH   8   9
ENDBRANCH   7   8
END_RES LYS A 135
