REMARK VINA RESULT:    -5.273      4.003      9.658
REMARK INTER + INTRA:         -22.733
REMARK INTER:                 -13.261
REMARK INTRA:                  -9.471
REMARK UNBOUND:                -9.445
REMARK SMILES CC(=O)N[C@@H]1[C@@H](O)C[C@](OC[C@H]2O[C@@H](O[C@H]3[C@H](O)[C@@H](O)[C@H](OCCN=[N+]=[N-])O[C@@H]3CO)[C@H](O)[C@@H](O)[C@H]2O)(C(=O)O)O[C@H]1C(O)[C@H](O)CNC(=O)OCc1cn(Cc2cccc(Br)c2)nn1
REMARK SMILES IDX 9 1 8 2 6 3 5 4 42 5 41 6 10 7 11 8 12 9 14 10 13 11 32 12
REMARK SMILES IDX 34 13 36 14 15 15 16 16 29 17 28 18 21 19 17 20 19 21 30 22
REMARK SMILES IDX 31 23 22 25 23 26 24 27 25 28 26 29 27 30 18 31 20 33 33 35
REMARK SMILES IDX 35 37 37 39 38 41 39 42 40 43 7 45 43 47 44 48 45 50 46 51
REMARK SMILES IDX 47 53 48 54 49 55 50 57 51 58 52 59 53 60 54 61 65 62 55 63
REMARK SMILES IDX 64 64 56 65 57 66 58 67 63 68 59 69 61 70 60 71 62 72 4 73
REMARK SMILES IDX 2 74 1 76 3 77
REMARK H PARENT 31 24 18 32 20 34 33 36 35 38 37 40 40 44 7 46 44 49 46 52
REMARK H PARENT 48 56 4 75
REMARK Flexibility Score: inf
ROOT
ATOM      1  C   UNL     1      29.468  32.063  17.632  1.00  0.00     0.272 C 
ATOM      2  C   UNL     1      30.587  32.856  18.193  1.00  0.00     0.113 C 
ATOM      3  C   UNL     1      30.427  34.339  18.087  1.00  0.00     0.145 C 
ATOM      4  C   UNL     1      29.669  34.764  16.850  1.00  0.00     0.142 C 
ATOM      5  C   UNL     1      28.692  33.788  16.364  1.00  0.00     0.178 C 
ATOM      6  O   UNL     1      28.376  32.759  17.195  1.00  0.00    -0.332 OA
ENDROOT
BRANCH   1   7
ATOM      7  O   UNL     1      29.057  31.098  18.604  1.00  0.00    -0.338 OA
BRANCH   7   8
ATOM      8  C   UNL     1      27.811  31.351  19.101  1.00  0.00     0.199 C 
BRANCH   8   9
ATOM      9  C   UNL     1      27.264  30.114  19.845  1.00  0.00     0.179 C 
ATOM     10  C   UNL     1      25.501  28.597  19.567  1.00  0.00     0.282 C 
ATOM     11  O   UNL     1      26.031  29.888  19.329  1.00  0.00    -0.341 OA
ATOM     12  C   UNL     1      26.257  27.863  20.602  1.00  0.00     0.202 C 
ATOM     13  C   UNL     1      27.744  27.776  20.306  1.00  0.00     0.179 C 
ATOM     14  C   UNL     1      28.187  28.971  19.481  1.00  0.00     0.177 C 
BRANCH  10  15
ATOM     15  O   UNL     1      25.419  28.037  18.315  1.00  0.00    -0.341 OA
BRANCH  15  16
ATOM     16  C   UNL     1      24.636  28.657  17.409  1.00  0.00     0.184 C 
ATOM     17  C   UNL     1      23.614  27.679  16.888  1.00  0.00     0.178 C 
ATOM     18  O   UNL     1      22.705  28.367  16.089  1.00  0.00    -0.341 OA
ATOM     19  C   UNL     1      23.275  28.890  14.926  1.00  0.00     0.281 C 
ATOM     20  C   UNL     1      25.379  29.118  16.159  1.00  0.00     0.180 C 
ATOM     21  C   UNL     1      24.323  29.889  15.353  1.00  0.00     0.202 C 
BRANCH  17  22
ATOM     22  C   UNL     1      22.862  27.091  18.034  1.00  0.00     0.191 C 
BRANCH  22  23
ATOM     23  O   UNL     1      22.632  25.742  17.835  1.00  0.00    -0.394 OA
ATOM     24  H   UNL     1      23.301  25.240  18.369  1.00  0.00     0.210 HD
ENDBRANCH  22  23
ENDBRANCH  17  22
BRANCH  19  25
ATOM     25  O   UNL     1      22.240  29.460  14.215  1.00  0.00    -0.350 OA
BRANCH  25  26
ATOM     26  C   UNL     1      21.633  30.527  14.815  1.00  0.00     0.169 C 
BRANCH  26  27
ATOM     27  C   UNL     1      21.255  31.645  13.870  1.00  0.00     0.119 C 
BRANCH  27  28
ATOM     28  N   UNL     1      22.008  32.813  14.268  1.00  0.00    -0.092 NA
ATOM     29  N   UNL     1      23.176  33.015  13.969  1.00  0.00     0.001 N 
ATOM     30  N   UNL     1      24.299  33.190  13.502  1.00  0.00    -0.003 NA
ENDBRANCH  27  28
ENDBRANCH  26  27
ENDBRANCH  25  26
ENDBRANCH  19  25
BRANCH  20  31
ATOM     31  O   UNL     1      26.412  29.975  16.411  1.00  0.00    -0.387 OA
ATOM     32  H   UNL     1      26.153  30.852  16.771  1.00  0.00     0.211 HD
ENDBRANCH  20  31
BRANCH  21  33
ATOM     33  O   UNL     1      24.978  30.502  14.318  1.00  0.00    -0.385 OA
ATOM     34  H   UNL     1      24.354  30.773  13.570  1.00  0.00     0.211 HD
ENDBRANCH  21  33
ENDBRANCH  15  16
ENDBRANCH  10  15
BRANCH  12  35
ATOM     35  O   UNL     1      26.099  28.572  21.821  1.00  0.00    -0.385 OA
ATOM     36  H   UNL     1      25.363  29.229  21.721  1.00  0.00     0.211 HD
ENDBRANCH  12  35
BRANCH  13  37
ATOM     37  O   UNL     1      28.101  26.561  19.729  1.00  0.00    -0.387 OA
ATOM     38  H   UNL     1      29.049  26.344  20.009  1.00  0.00     0.211 HD
ENDBRANCH  13  37
BRANCH  14  39
ATOM     39  O   UNL     1      28.112  28.768  18.123  1.00  0.00    -0.387 OA
ATOM     40  H   UNL     1      28.589  27.920  17.867  1.00  0.00     0.211 HD
ENDBRANCH  14  39
ENDBRANCH   8   9
ENDBRANCH   7   8
ENDBRANCH   1   7
BRANCH   1  41
ATOM     41  C   UNL     1      29.983  31.224  16.508  1.00  0.00     0.364 C 
ATOM     42  O   UNL     1      31.128  31.500  16.003  1.00  0.00    -0.246 OA
BRANCH  41  43
ATOM     43  O   UNL     1      29.339  30.161  15.940  1.00  0.00    -0.477 OA
ATOM     44  H   UNL     1      28.912  29.468  16.569  1.00  0.00     0.296 HD
ENDBRANCH  41  43
ENDBRANCH   1  41
BRANCH   3  45
ATOM     45  O   UNL     1      29.912  34.884  19.254  1.00  0.00    -0.391 OA
ATOM     46  H   UNL     1      29.595  35.809  19.156  1.00  0.00     0.211 HD
ENDBRANCH   3  45
BRANCH   5  47
ATOM     47  C   UNL     1      27.395  34.446  15.864  1.00  0.00     0.176 C 
BRANCH  47  48
ATOM     48  O   UNL     1      27.134  33.820  14.579  1.00  0.00    -0.388 OA
ATOM     49  H   UNL     1      26.282  33.325  14.688  1.00  0.00     0.211 HD
ENDBRANCH  47  48
BRANCH  47  50
ATOM     50  C   UNL     1      26.196  34.191  16.702  1.00  0.00     0.165 C 
BRANCH  50  51
ATOM     51  O   UNL     1      25.716  32.902  16.257  1.00  0.00    -0.388 OA
ATOM     52  H   UNL     1      25.041  33.072  15.531  1.00  0.00     0.211 HD
ENDBRANCH  50  51
BRANCH  50  53
ATOM     53  C   UNL     1      25.014  35.082  16.520  1.00  0.00     0.154 C 
BRANCH  53  54
ATOM     54  N   UNL     1      25.014  35.813  15.263  1.00  0.00    -0.319 N 
ATOM     55  C   UNL     1      23.812  36.414  14.816  1.00  0.00     0.407 C 
ATOM     56  H   UNL     1      25.869  35.907  14.687  1.00  0.00     0.167 HD
ATOM     57  O   UNL     1      22.756  36.308  15.502  1.00  0.00    -0.225 OA
BRANCH  55  58
ATOM     58  O   UNL     1      23.763  37.132  13.621  1.00  0.00    -0.443 OA
BRANCH  58  59
ATOM     59  C   UNL     1      24.960  37.783  13.173  1.00  0.00     0.294 C 
BRANCH  59  60
ATOM     60  C   UNL     1      25.849  36.759  12.577  1.00  0.00     0.120 A 
ATOM     61  C   UNL     1      25.581  35.887  11.551  1.00  0.00     0.138 A 
ATOM     62  N   UNL     1      27.107  36.524  12.973  1.00  0.00    -0.132 NA
ATOM     63  N   UNL     1      26.691  35.149  11.358  1.00  0.00    -0.248 N 
ATOM     64  N   UNL     1      27.601  35.552  12.232  1.00  0.00    -0.067 NA
BRANCH  63  65
ATOM     65  C   UNL     1      26.834  34.098  10.355  1.00  0.00     0.181 C 
BRANCH  65  66
ATOM     66  C   UNL     1      27.790  34.495   9.290  1.00  0.00    -0.025 A 
ATOM     67  C   UNL     1      29.107  34.087   9.339  1.00  0.00     0.006 A 
ATOM     68  C   UNL     1      27.430  35.278   8.220  1.00  0.00     0.021 A 
ATOM     69  C   UNL     1      30.042  34.423   8.386  1.00  0.00     0.002 A 
ATOM     70  C   UNL     1      28.338  35.633   7.250  1.00  0.00     0.018 A 
ATOM     71  C   UNL     1      29.645  35.223   7.305  1.00  0.00     0.016 A 
ATOM     72  Br  UNL     1      27.840  36.722   5.757  1.00  0.00    -0.051 Br
ENDBRANCH  65  66
ENDBRANCH  63  65
ENDBRANCH  59  60
ENDBRANCH  58  59
ENDBRANCH  55  58
ENDBRANCH  53  54
ENDBRANCH  50  53
ENDBRANCH  47  50
ENDBRANCH   5  47
BRANCH   4  73
ATOM     73  N   UNL     1      30.641  35.101  15.778  1.00  0.00    -0.348 N 
ATOM     74  C   UNL     1      31.298  36.355  15.772  1.00  0.00     0.217 C 
ATOM     75  H   UNL     1      30.856  34.418  15.008  1.00  0.00     0.163 HD
ATOM     76  C   UNL     1      32.286  36.720  14.697  1.00  0.00     0.114 C 
ATOM     77  O   UNL     1      31.042  37.175  16.694  1.00  0.00    -0.275 OA
ENDBRANCH   4  73
TORSDOF 31
BEGIN_RES LYS A 131
REMARK  4 active torsions:
REMARK  status: ('A' for Active; 'I' for Inactive)
REMARK    1  A    between atoms: CA   and  CB  
REMARK    2  A    between atoms: CB   and  CG  
REMARK    3  A    between atoms: CG   and  CD  
REMARK    4  A    between atoms: CD   and  CE  
ROOT
ATOM      1  CA  LYS A 131      29.867  25.555  16.977  1.00 20.52     0.186 C 
ENDROOT
BRANCH   1   2
ATOM      2  CB  LYS A 131      28.345  25.722  17.026  1.00 20.94     0.034 C 
BRANCH   2   3
ATOM      3  CG  LYS A 131      27.603  24.396  16.968  1.00 22.96     0.005 C 
BRANCH   3   4
ATOM      4  CD  LYS A 131      26.111  24.579  17.010  1.00 24.33     0.041 C 
BRANCH   4   5
ATOM      5  CE  LYS A 131      25.483  23.455  17.828  1.00 26.91     0.338 C 
ATOM      6  NZ  LYS A 131      25.887  23.561  19.250  1.00 27.40     0.618 N 
ENDBRANCH   4   5
ENDBRANCH   3   4
ENDBRANCH   2   3
ENDBRANCH   1   2
END_RES LYS A 131
BEGIN_RES LYS A 135
REMARK  4 active torsions:
REMARK  status: ('A' for Active; 'I' for Inactive)
REMARK    5  A    between atoms: CA   and  CB  
REMARK    6  A    between atoms: CB   and  CG  
REMARK    7  A    between atoms: CG   and  CD  
REMARK    8  A    between atoms: CD   and  CE  
ROOT
ATOM      7  CA  LYS A 135      33.193  34.663   9.290  1.00 25.02     0.186 C 
ENDROOT
BRANCH   7   8
ATOM      8  CB  LYS A 135      32.060  35.360  10.034  1.00 26.63     0.034 C 
BRANCH   8   9
ATOM      9  CG  LYS A 135      32.536  36.370  11.047  1.00 29.45     0.005 C 
BRANCH   9  10
ATOM     10  CD  LYS A 135      31.477  37.436  11.279  1.00 32.00     0.041 C 
BRANCH  10  11
ATOM     11  CE  LYS A 135      30.867  37.878   9.963  1.00 34.25     0.338 C 
ATOM     12  NZ  LYS A 135      29.381  37.782  10.000  1.00 35.99     0.618 N 
ENDBRANCH  10  11
ENDBRANCH   9  10
ENDBRANCH   8   9
ENDBRANCH   7   8
END_RES LYS A 135
