REMARK VINA RESULT:    -4.590      0.000      0.000
REMARK INTER + INTRA:         -23.342
REMARK INTER:                  -9.667
REMARK INTRA:                 -13.676
REMARK UNBOUND:               -11.507
REMARK SMILES COc1ccc(Cn2cc(COC(=O)NC[C@@H](O)C(O)[C@@H]3O[C@@](OC[C@H]4O[C@@H](O[C@H]5[C@H](O)[C@@H](O)[C@H](OCCN=[N+]=[N-])O[C@@H]5CO)[C@H](O)[C@@H](O)[C@H]4O)(C(=O)O)C[C@H](O)[C@H]3NC(C)=O)nn2)cc1
REMARK SMILES IDX 23 1 55 2 56 3 58 4 21 5 22 6 24 7 25 8 26 9 28 10 27 11
REMARK SMILES IDX 46 12 48 13 50 14 29 15 30 16 43 17 42 18 35 19 31 20 33 21
REMARK SMILES IDX 44 22 45 23 36 25 37 26 38 27 39 28 40 29 41 30 32 31 34 33
REMARK SMILES IDX 47 35 49 37 51 39 52 41 53 42 54 43 57 45 19 47 20 48 17 50
REMARK SMILES IDX 18 51 16 53 15 54 13 55 14 57 12 58 11 59 10 60 9 61 63 62
REMARK SMILES IDX 8 63 64 64 7 65 6 66 5 67 65 68 4 69 66 70 3 71 2 72 1 73
REMARK SMILES IDX 59 74 60 75 61 77 62 78
REMARK H PARENT 45 24 32 32 34 34 47 36 49 38 51 40 54 44 57 46 20 49 18 52
REMARK H PARENT 15 56 59 76
REMARK Flexibility Score: inf
ROOT
ATOM      1  C   UNL     1      24.039  36.423  11.648  1.00  0.00     0.272 C 
ATOM      2  C   UNL     1      24.294  37.872  11.288  1.00  0.00     0.113 C 
ATOM      3  C   UNL     1      25.179  37.947  10.060  1.00  0.00     0.145 C 
ATOM      4  C   UNL     1      24.757  37.024   8.955  1.00  0.00     0.142 C 
ATOM      5  C   UNL     1      23.586  36.131   9.330  1.00  0.00     0.178 C 
ATOM      6  O   UNL     1      23.699  35.644  10.618  1.00  0.00    -0.332 OA
ENDROOT
BRANCH   1   7
ATOM      7  O   UNL     1      23.347  36.300  12.805  1.00  0.00    -0.338 OA
BRANCH   7   8
ATOM      8  C   UNL     1      23.238  35.156  13.488  1.00  0.00     0.199 C 
BRANCH   8   9
ATOM      9  C   UNL     1      21.824  34.619  13.534  1.00  0.00     0.179 C 
ATOM     10  C   UNL     1      19.733  35.373  14.030  1.00  0.00     0.282 C 
ATOM     11  O   UNL     1      20.907  35.685  13.309  1.00  0.00    -0.341 OA
ATOM     12  C   UNL     1      19.374  33.938  13.909  1.00  0.00     0.202 C 
ATOM     13  C   UNL     1      20.049  33.160  12.831  1.00  0.00     0.179 C 
ATOM     14  C   UNL     1      21.480  33.569  12.547  1.00  0.00     0.177 C 
BRANCH  10  15
ATOM     15  O   UNL     1      18.745  36.293  13.825  1.00  0.00    -0.341 OA
BRANCH  15  16
ATOM     16  C   UNL     1      18.966  37.237  12.844  1.00  0.00     0.184 C 
ATOM     17  C   UNL     1      18.801  38.670  13.288  1.00  0.00     0.178 C 
ATOM     18  O   UNL     1      18.399  39.477  12.224  1.00  0.00    -0.341 OA
ATOM     19  C   UNL     1      18.905  39.041  10.987  1.00  0.00     0.281 C 
ATOM     20  C   UNL     1      17.809  37.050  11.843  1.00  0.00     0.180 C 
ATOM     21  C   UNL     1      18.247  37.714  10.566  1.00  0.00     0.202 C 
BRANCH  17  22
ATOM     22  C   UNL     1      20.028  39.295  13.872  1.00  0.00     0.191 C 
BRANCH  22  23
ATOM     23  O   UNL     1      21.121  38.458  13.656  1.00  0.00    -0.394 OA
ATOM     24  H   UNL     1      21.644  38.847  12.899  1.00  0.00     0.210 HD
ENDBRANCH  22  23
ENDBRANCH  17  22
BRANCH  19  25
ATOM     25  O   UNL     1      20.259  38.952  10.931  1.00  0.00    -0.350 OA
BRANCH  25  26
ATOM     26  C   UNL     1      20.960  39.867  10.207  1.00  0.00     0.169 C 
BRANCH  26  27
ATOM     27  C   UNL     1      20.399  40.304   8.907  1.00  0.00     0.119 C 
BRANCH  27  28
ATOM     28  N   UNL     1      21.349  40.849   8.001  1.00  0.00    -0.092 NA
ATOM     29  N   UNL     1      22.467  40.363   7.778  1.00  0.00     0.001 N 
ATOM     30  N   UNL     1      23.385  39.770   7.166  1.00  0.00    -0.003 NA
ENDBRANCH  27  28
ENDBRANCH  26  27
ENDBRANCH  25  26
ENDBRANCH  19  25
BRANCH  20  31
ATOM     31  O   UNL     1      17.439  35.741  11.712  1.00  0.00    -0.387 OA
ATOM     32  H   UNL     1      18.196  35.108  11.930  1.00  0.00     0.211 HD
ENDBRANCH  20  31
BRANCH  21  33
ATOM     33  O   UNL     1      17.170  37.929   9.706  1.00  0.00    -0.385 OA
ATOM     34  H   UNL     1      17.512  38.011   8.777  1.00  0.00     0.211 HD
ENDBRANCH  21  33
ENDBRANCH  15  16
ENDBRANCH  10  15
BRANCH  12  35
ATOM     35  O   UNL     1      19.494  33.255  15.147  1.00  0.00    -0.385 OA
ATOM     36  H   UNL     1      20.467  33.192  15.393  1.00  0.00     0.211 HD
ENDBRANCH  12  35
BRANCH  13  37
ATOM     37  O   UNL     1      19.283  33.143  11.640  1.00  0.00    -0.387 OA
ATOM     38  H   UNL     1      19.289  34.060  11.264  1.00  0.00     0.211 HD
ENDBRANCH  13  37
BRANCH  14  39
ATOM     39  O   UNL     1      21.646  33.977  11.227  1.00  0.00    -0.387 OA
ATOM     40  H   UNL     1      22.584  33.900  10.925  1.00  0.00     0.211 HD
ENDBRANCH  14  39
ENDBRANCH   8   9
ENDBRANCH   7   8
ENDBRANCH   1   7
BRANCH   1  41
ATOM     41  C   UNL     1      25.449  35.978  12.159  1.00  0.00     0.364 C 
ATOM     42  O   UNL     1      25.937  34.898  11.763  1.00  0.00    -0.246 OA
BRANCH  41  43
ATOM     43  O   UNL     1      26.185  36.715  13.022  1.00  0.00    -0.477 OA
ATOM     44  H   UNL     1      26.542  36.469  13.912  1.00  0.00     0.296 HD
ENDBRANCH  41  43
ENDBRANCH   1  41
BRANCH   3  45
ATOM     45  O   UNL     1      25.044  39.301   9.632  1.00  0.00    -0.391 OA
ATOM     46  H   UNL     1      24.164  39.434   9.195  1.00  0.00     0.211 HD
ENDBRANCH   3  45
BRANCH   5  47
ATOM     47  C   UNL     1      22.343  36.842   8.959  1.00  0.00     0.176 C 
BRANCH  47  48
ATOM     48  O   UNL     1      21.222  36.497   9.769  1.00  0.00    -0.388 OA
ATOM     49  H   UNL     1      20.719  37.322   9.938  1.00  0.00     0.211 HD
ENDBRANCH  47  48
BRANCH  47  50
ATOM     50  C   UNL     1      21.751  36.390   7.591  1.00  0.00     0.165 C 
BRANCH  50  51
ATOM     51  O   UNL     1      22.254  36.942   6.482  1.00  0.00    -0.388 OA
ATOM     52  H   UNL     1      23.234  36.809   6.426  1.00  0.00     0.211 HD
ENDBRANCH  50  51
BRANCH  50  53
ATOM     53  C   UNL     1      20.226  36.615   7.688  1.00  0.00     0.154 C 
BRANCH  53  54
ATOM     54  N   UNL     1      19.470  35.499   7.221  1.00  0.00    -0.319 N 
ATOM     55  C   UNL     1      18.999  34.522   8.158  1.00  0.00     0.407 C 
ATOM     56  H   UNL     1      19.255  35.375   6.227  1.00  0.00     0.167 HD
ATOM     57  O   UNL     1      19.261  34.671   9.384  1.00  0.00    -0.225 OA
BRANCH  55  58
ATOM     58  O   UNL     1      18.271  33.450   7.676  1.00  0.00    -0.443 OA
BRANCH  58  59
ATOM     59  C   UNL     1      16.879  33.326   8.026  1.00  0.00     0.294 C 
BRANCH  59  60
ATOM     60  C   UNL     1      16.792  32.572   9.294  1.00  0.00     0.120 A 
ATOM     61  C   UNL     1      17.061  31.213   9.484  1.00  0.00     0.138 A 
ATOM     62  N   UNL     1      16.430  33.036  10.496  1.00  0.00    -0.132 NA
ATOM     63  N   UNL     1      16.844  30.943  10.777  1.00  0.00    -0.248 N 
ATOM     64  N   UNL     1      16.462  32.059  11.380  1.00  0.00    -0.067 NA
BRANCH  63  65
ATOM     65  C   UNL     1      16.998  29.658  11.411  1.00  0.00     0.181 C 
BRANCH  65  66
ATOM     66  C   UNL     1      18.243  29.658  12.210  1.00  0.00    -0.026 A 
ATOM     67  C   UNL     1      18.177  29.851  13.587  1.00  0.00     0.009 A 
ATOM     68  C   UNL     1      19.481  29.458  11.658  1.00  0.00     0.009 A 
ATOM     69  C   UNL     1      19.304  29.845  14.381  1.00  0.00     0.047 A 
ATOM     70  C   UNL     1      20.623  29.452  12.466  1.00  0.00     0.047 A 
ATOM     71  C   UNL     1      20.556  29.642  13.819  1.00  0.00     0.118 A 
BRANCH  71  72
ATOM     72  O   UNL     1      21.654  29.643  14.658  1.00  0.00    -0.497 OA
ATOM     73  C   UNL     1      21.812  30.476  15.769  1.00  0.00     0.278 C 
ENDBRANCH  71  72
ENDBRANCH  65  66
ENDBRANCH  63  65
ENDBRANCH  59  60
ENDBRANCH  58  59
ENDBRANCH  55  58
ENDBRANCH  53  54
ENDBRANCH  50  53
ENDBRANCH  47  50
ENDBRANCH   5  47
BRANCH   4  74
ATOM     74  N   UNL     1      25.830  36.279   8.333  1.00  0.00    -0.348 N 
ATOM     75  C   UNL     1      26.690  36.793   7.323  1.00  0.00     0.217 C 
ATOM     76  H   UNL     1      25.988  35.302   8.618  1.00  0.00     0.163 HD
ATOM     77  C   UNL     1      27.778  35.919   6.739  1.00  0.00     0.114 C 
ATOM     78  O   UNL     1      26.544  37.971   6.919  1.00  0.00    -0.275 OA
ENDBRANCH   4  74
TORSDOF 32
BEGIN_RES LYS A 131
REMARK  4 active torsions:
REMARK  status: ('A' for Active; 'I' for Inactive)
REMARK    1  A    between atoms: CA   and  CB  
REMARK    2  A    between atoms: CB   and  CG  
REMARK    3  A    between atoms: CG   and  CD  
REMARK    4  A    between atoms: CD   and  CE  
ROOT
ATOM      1  CA  LYS A 131      29.867  25.555  16.977  1.00 20.52     0.186 C 
ENDROOT
BRANCH   1   2
ATOM      2  CB  LYS A 131      28.345  25.722  17.026  1.00 20.94     0.034 C 
BRANCH   2   3
ATOM      3  CG  LYS A 131      27.601  24.401  16.907  1.00 22.96     0.005 C 
BRANCH   3   4
ATOM      4  CD  LYS A 131      26.162  24.521  17.325  1.00 24.33     0.041 C 
BRANCH   4   5
ATOM      5  CE  LYS A 131      25.876  23.534  18.453  1.00 26.91     0.338 C 
ATOM      6  NZ  LYS A 131      25.477  24.255  19.684  1.00 27.40     0.618 N 
ENDBRANCH   4   5
ENDBRANCH   3   4
ENDBRANCH   2   3
ENDBRANCH   1   2
END_RES LYS A 131
BEGIN_RES LYS A 135
REMARK  4 active torsions:
REMARK  status: ('A' for Active; 'I' for Inactive)
REMARK    5  A    between atoms: CA   and  CB  
REMARK    6  A    between atoms: CB   and  CG  
REMARK    7  A    between atoms: CG   and  CD  
REMARK    8  A    between atoms: CD   and  CE  
ROOT
ATOM      7  CA  LYS A 135      33.193  34.663   9.290  1.00 25.02     0.186 C 
ENDROOT
BRANCH   7   8
ATOM      8  CB  LYS A 135      32.060  35.360  10.034  1.00 26.63     0.034 C 
BRANCH   8   9
ATOM      9  CG  LYS A 135      30.818  35.548   9.201  1.00 29.45     0.005 C 
BRANCH   9  10
ATOM     10  CD  LYS A 135      30.032  34.249   9.110  1.00 32.00     0.041 C 
BRANCH  10  11
ATOM     11  CE  LYS A 135      28.817  34.297  10.017  1.00 34.25     0.338 C 
ATOM     12  NZ  LYS A 135      27.693  33.501   9.452  1.00 35.99     0.618 N 
ENDBRANCH  10  11
ENDBRANCH   9  10
ENDBRANCH   8   9
ENDBRANCH   7   8
END_RES LYS A 135
