REMARK VINA RESULT:    -4.291      4.793     11.696
REMARK INTER + INTRA:         -22.134
REMARK INTER:                 -12.480
REMARK INTRA:                  -9.654
REMARK UNBOUND:               -11.571
REMARK SMILES CC(=O)N[C@@H]1[C@@H](O)C[C@](OC[C@H]2O[C@@H](O[C@H]3[C@H](O)[C@@H](O)[C@H](OCCN=[N+]=[N-])O[C@@H]3CO)[C@H](O)[C@@H](O)[C@H]2O)(C(=O)O)O[C@H]1C(O)[C@H](O)CNC(=O)OCc1cn(-c2ccc3[nH]ncc3c2)nn1
REMARK SMILES IDX 9 1 8 2 6 3 5 4 42 5 41 6 10 7 11 8 12 9 14 10 13 11 32 12
REMARK SMILES IDX 34 13 36 14 15 15 16 16 29 17 28 18 21 19 17 20 19 21 30 22
REMARK SMILES IDX 31 23 22 25 23 26 24 27 25 28 26 29 27 30 18 31 20 33 33 35
REMARK SMILES IDX 35 37 37 39 38 41 39 42 40 43 7 45 43 47 44 48 45 50 46 51
REMARK SMILES IDX 47 53 48 54 49 55 50 57 51 58 52 59 53 60 54 61 66 62 55 63
REMARK SMILES IDX 65 64 56 65 57 66 64 67 58 68 63 69 59 70 62 71 60 72 61 73
REMARK SMILES IDX 4 75 2 76 1 78 3 79
REMARK H PARENT 31 24 18 32 20 34 33 36 35 38 37 40 40 44 7 46 44 49 46 52
REMARK H PARENT 48 56 60 74 4 77
REMARK Flexibility Score: inf
ROOT
ATOM      1  C   UNL     1      28.044  35.812   8.793  1.00  0.00     0.272 C 
ATOM      2  C   UNL     1      28.889  35.814   7.571  1.00  0.00     0.113 C 
ATOM      3  C   UNL     1      28.291  36.500   6.369  1.00  0.00     0.145 C 
ATOM      4  C   UNL     1      28.024  37.954   6.844  1.00  0.00     0.142 C 
ATOM      5  C   UNL     1      27.167  37.814   8.042  1.00  0.00     0.178 C 
ATOM      6  O   UNL     1      27.628  37.106   9.097  1.00  0.00    -0.332 OA
ENDROOT
BRANCH   1   7
ATOM      7  O   UNL     1      28.826  35.338   9.868  1.00  0.00    -0.338 OA
BRANCH   7   8
ATOM      8  C   UNL     1      28.723  36.045  11.020  1.00  0.00     0.199 C 
BRANCH   8   9
ATOM      9  C   UNL     1      28.100  35.206  12.159  1.00  0.00     0.179 C 
ATOM     10  C   UNL     1      28.544  35.404  14.423  1.00  0.00     0.282 C 
ATOM     11  O   UNL     1      28.997  34.987  13.160  1.00  0.00    -0.341 OA
ATOM     12  C   UNL     1      28.353  36.884  14.333  1.00  0.00     0.202 C 
ATOM     13  C   UNL     1      27.117  37.107  13.451  1.00  0.00     0.179 C 
ATOM     14  C   UNL     1      26.826  35.880  12.631  1.00  0.00     0.177 C 
BRANCH  10  15
ATOM     15  O   UNL     1      29.431  34.976  15.395  1.00  0.00    -0.341 OA
BRANCH  15  16
ATOM     16  C   UNL     1      28.968  33.795  15.960  1.00  0.00     0.184 C 
ATOM     17  C   UNL     1      28.857  33.817  17.455  1.00  0.00     0.178 C 
ATOM     18  O   UNL     1      28.321  32.678  17.923  1.00  0.00    -0.341 OA
ATOM     19  C   UNL     1      28.296  31.543  17.177  1.00  0.00     0.281 C 
ATOM     20  C   UNL     1      29.992  32.672  15.701  1.00  0.00     0.180 C 
ATOM     21  C   UNL     1      29.360  31.398  16.143  1.00  0.00     0.202 C 
BRANCH  17  22
ATOM     22  C   UNL     1      28.087  35.000  18.005  1.00  0.00     0.191 C 
BRANCH  22  23
ATOM     23  O   UNL     1      28.835  36.163  17.985  1.00  0.00    -0.394 OA
ATOM     24  H   UNL     1      28.713  36.545  17.063  1.00  0.00     0.210 HD
ENDBRANCH  22  23
ENDBRANCH  17  22
BRANCH  19  25
ATOM     25  O   UNL     1      27.050  31.446  16.610  1.00  0.00    -0.350 OA
BRANCH  25  26
ATOM     26  C   UNL     1      26.814  30.385  15.806  1.00  0.00     0.169 C 
BRANCH  26  27
ATOM     27  C   UNL     1      25.367  30.093  15.572  1.00  0.00     0.119 C 
BRANCH  27  28
ATOM     28  N   UNL     1      24.814  30.629  14.364  1.00  0.00    -0.092 NA
ATOM     29  N   UNL     1      24.120  29.993  13.595  1.00  0.00     0.001 N 
ATOM     30  N   UNL     1      23.725  29.280  12.646  1.00  0.00    -0.003 NA
ENDBRANCH  27  28
ENDBRANCH  26  27
ENDBRANCH  25  26
ENDBRANCH  19  25
BRANCH  20  31
ATOM     31  O   UNL     1      30.393  32.640  14.392  1.00  0.00    -0.387 OA
ATOM     32  H   UNL     1      30.867  31.806  14.138  1.00  0.00     0.211 HD
ENDBRANCH  20  31
BRANCH  21  33
ATOM     33  O   UNL     1      30.394  30.553  16.588  1.00  0.00    -0.385 OA
ATOM     34  H   UNL     1      30.362  30.428  17.571  1.00  0.00     0.211 HD
ENDBRANCH  21  33
ENDBRANCH  15  16
ENDBRANCH  10  15
BRANCH  12  35
ATOM     35  O   UNL     1      28.234  37.549  15.527  1.00  0.00    -0.385 OA
ATOM     36  H   UNL     1      28.831  38.357  15.569  1.00  0.00     0.211 HD
ENDBRANCH  12  35
BRANCH  13  37
ATOM     37  O   UNL     1      27.207  38.275  12.722  1.00  0.00    -0.387 OA
ATOM     38  H   UNL     1      26.989  38.042  11.770  1.00  0.00     0.211 HD
ENDBRANCH  13  37
BRANCH  14  39
ATOM     39  O   UNL     1      26.143  36.327  11.472  1.00  0.00    -0.387 OA
ATOM     40  H   UNL     1      25.202  36.096  11.479  1.00  0.00     0.211 HD
ENDBRANCH  14  39
ENDBRANCH   8   9
ENDBRANCH   7   8
ENDBRANCH   1   7
BRANCH   1  41
ATOM     41  C   UNL     1      26.795  35.012   8.678  1.00  0.00     0.364 C 
ATOM     42  O   UNL     1      26.933  33.750   8.552  1.00  0.00    -0.246 OA
BRANCH  41  43
ATOM     43  O   UNL     1      25.515  35.473   8.690  1.00  0.00    -0.477 OA
ATOM     44  H   UNL     1      25.074  35.940   7.897  1.00  0.00     0.296 HD
ENDBRANCH  41  43
ENDBRANCH   1  41
BRANCH   3  45
ATOM     45  O   UNL     1      29.229  36.498   5.355  1.00  0.00    -0.391 OA
ATOM     46  H   UNL     1      29.698  35.612   5.282  1.00  0.00     0.211 HD
ENDBRANCH   3  45
BRANCH   5  47
ATOM     47  C   UNL     1      26.517  39.113   8.413  1.00  0.00     0.176 C 
BRANCH  47  48
ATOM     48  O   UNL     1      25.635  38.752   9.496  1.00  0.00    -0.388 OA
ATOM     49  H   UNL     1      26.152  38.525  10.294  1.00  0.00     0.211 HD
ENDBRANCH  47  48
BRANCH  47  50
ATOM     50  C   UNL     1      27.431  40.157   9.007  1.00  0.00     0.165 C 
BRANCH  50  51
ATOM     51  O   UNL     1      27.775  39.656  10.293  1.00  0.00    -0.388 OA
ATOM     52  H   UNL     1      27.695  40.335  10.986  1.00  0.00     0.211 HD
ENDBRANCH  50  51
BRANCH  50  53
ATOM     53  C   UNL     1      26.853  41.512   9.163  1.00  0.00     0.154 C 
BRANCH  53  54
ATOM     54  N   UNL     1      25.606  41.631   9.832  1.00  0.00    -0.319 N 
ATOM     55  C   UNL     1      25.384  41.720  11.227  1.00  0.00     0.407 C 
ATOM     56  H   UNL     1      24.711  41.664   9.246  1.00  0.00     0.167 HD
ATOM     57  O   UNL     1      26.322  41.713  12.030  1.00  0.00    -0.225 OA
BRANCH  55  58
ATOM     58  O   UNL     1      24.086  41.818  11.719  1.00  0.00    -0.443 OA
BRANCH  58  59
ATOM     59  C   UNL     1      23.433  40.865  12.501  1.00  0.00     0.294 C 
BRANCH  59  60
ATOM     60  C   UNL     1      23.287  39.544  11.875  1.00  0.00     0.121 A 
ATOM     61  C   UNL     1      22.383  39.197  10.896  1.00  0.00     0.144 A 
ATOM     62  N   UNL     1      24.008  38.440  12.162  1.00  0.00    -0.131 NA
ATOM     63  N   UNL     1      22.602  37.905  10.642  1.00  0.00    -0.220 N 
ATOM     64  N   UNL     1      23.582  37.469  11.412  1.00  0.00    -0.062 NA
BRANCH  63  65
ATOM     65  C   UNL     1      21.879  37.130   9.686  1.00  0.00     0.067 A 
ATOM     66  C   UNL     1      22.208  37.164   8.349  1.00  0.00     0.030 A 
ATOM     67  C   UNL     1      20.832  36.333  10.087  1.00  0.00     0.040 A 
ATOM     68  C   UNL     1      21.508  36.421   7.430  1.00  0.00     0.030 A 
ATOM     69  C   UNL     1      20.133  35.585   9.142  1.00  0.00     0.022 A 
ATOM     70  C   UNL     1      20.451  35.610   7.795  1.00  0.00     0.065 A 
ATOM     71  C   UNL     1      19.069  34.727   9.295  1.00  0.00     0.143 A 
ATOM     72  N   UNL     1      19.599  34.788   7.159  1.00  0.00    -0.278 N 
ATOM     73  N   UNL     1      18.792  34.276   8.060  1.00  0.00    -0.183 NA
ATOM     74  H   UNL     1      19.607  34.610   6.125  1.00  0.00     0.190 HD
ENDBRANCH  63  65
ENDBRANCH  59  60
ENDBRANCH  58  59
ENDBRANCH  55  58
ENDBRANCH  53  54
ENDBRANCH  50  53
ENDBRANCH  47  50
ENDBRANCH   5  47
BRANCH   4  75
ATOM     75  N   UNL     1      27.226  38.500   5.742  1.00  0.00    -0.348 N 
ATOM     76  C   UNL     1      27.725  39.583   5.015  1.00  0.00     0.217 C 
ATOM     77  H   UNL     1      26.304  38.110   5.488  1.00  0.00     0.163 HD
ATOM     78  C   UNL     1      26.969  40.205   3.878  1.00  0.00     0.114 C 
ATOM     79  O   UNL     1      28.865  40.068   5.316  1.00  0.00    -0.275 OA
ENDBRANCH   4  75
TORSDOF 30
BEGIN_RES LYS A 131
REMARK  4 active torsions:
REMARK  status: ('A' for Active; 'I' for Inactive)
REMARK    1  A    between atoms: CA   and  CB  
REMARK    2  A    between atoms: CB   and  CG  
REMARK    3  A    between atoms: CG   and  CD  
REMARK    4  A    between atoms: CD   and  CE  
ROOT
ATOM      1  CA  LYS A 131      29.867  25.555  16.977  1.00 20.52     0.186 C 
ENDROOT
BRANCH   1   2
ATOM      2  CB  LYS A 131      28.345  25.722  17.026  1.00 20.94     0.034 C 
BRANCH   2   3
ATOM      3  CG  LYS A 131      27.599  24.477  16.571  1.00 22.96     0.005 C 
BRANCH   3   4
ATOM      4  CD  LYS A 131      27.013  23.714  17.726  1.00 24.33     0.041 C 
BRANCH   4   5
ATOM      5  CE  LYS A 131      25.680  24.339  18.125  1.00 26.91     0.338 C 
ATOM      6  NZ  LYS A 131      24.756  24.377  16.967  1.00 27.40     0.618 N 
ENDBRANCH   4   5
ENDBRANCH   3   4
ENDBRANCH   2   3
ENDBRANCH   1   2
END_RES LYS A 131
BEGIN_RES LYS A 135
REMARK  4 active torsions:
REMARK  status: ('A' for Active; 'I' for Inactive)
REMARK    5  A    between atoms: CA   and  CB  
REMARK    6  A    between atoms: CB   and  CG  
REMARK    7  A    between atoms: CG   and  CD  
REMARK    8  A    between atoms: CD   and  CE  
ROOT
ATOM      7  CA  LYS A 135      33.193  34.663   9.290  1.00 25.02     0.186 C 
ENDROOT
BRANCH   7   8
ATOM      8  CB  LYS A 135      32.060  35.360  10.034  1.00 26.63     0.034 C 
BRANCH   8   9
ATOM      9  CG  LYS A 135      32.505  36.057  11.293  1.00 29.45     0.005 C 
BRANCH   9  10
ATOM     10  CD  LYS A 135      31.980  37.484  11.332  1.00 32.00     0.041 C 
BRANCH  10  11
ATOM     11  CE  LYS A 135      31.519  37.844  12.731  1.00 34.25     0.338 C 
ATOM     12  NZ  LYS A 135      31.927  36.804  13.715  1.00 35.99     0.618 N 
ENDBRANCH  10  11
ENDBRANCH   9  10
ENDBRANCH   8   9
ENDBRANCH   7   8
END_RES LYS A 135
