REMARK VINA RESULT:    -4.754      2.954      6.071
REMARK INTER + INTRA:         -22.907
REMARK INTER:                 -10.675
REMARK INTRA:                 -12.232
REMARK UNBOUND:               -10.372
REMARK SMILES CC(=O)N[C@@H]1[C@@H](O)C[C@](OC[C@H]2O[C@@H](O[C@H]3[C@H](O)[C@@H](O)[C@H](OCCN=[N+]=[N-])O[C@@H]3CO)[C@H](O)[C@@H](O)[C@H]2O)(C(=O)O)O[C@H]1C(O)[C@H](O)CNC(=O)OCc1cn(CC(=O)NCc2cccs2)nn1
REMARK SMILES IDX 43 1 42 2 9 3 8 4 41 5 6 6 5 7 10 8 11 9 12 10 14 11 13 12
REMARK SMILES IDX 32 13 34 14 36 15 15 16 16 17 29 18 28 19 21 20 17 21 19 22
REMARK SMILES IDX 30 23 31 24 22 26 23 27 24 28 25 29 26 30 27 31 18 32 20 34
REMARK SMILES IDX 33 36 35 38 37 40 38 42 39 43 40 44 7 46 4 48 2 49 1 51 3 52
REMARK SMILES IDX 44 53 45 55 46 56 47 58 48 59 49 60 50 62 51 63 52 64 53 65
REMARK SMILES IDX 54 66 67 67 55 68 66 69 56 70 57 71 58 72 59 73 60 75 61 76
REMARK SMILES IDX 62 77 65 78 63 79 64 80
REMARK H PARENT 31 25 18 33 20 35 33 37 35 39 37 41 40 45 7 47 4 50 44 54
REMARK H PARENT 46 57 48 61 59 74
REMARK Flexibility Score: inf
ROOT
ATOM      1  C   UNL     1      27.553  41.331   5.802  1.00  0.00     0.176 C 
ENDROOT
BRANCH   1   2
ATOM      2  C   UNL     1      27.170  42.777   5.985  1.00  0.00     0.178 C 
ATOM      3  C   UNL     1      28.884  44.130   6.892  1.00  0.00     0.272 C 
ATOM      4  C   UNL     1      28.403  43.679   8.281  1.00  0.00     0.113 C 
ATOM      5  O   UNL     1      28.284  43.531   5.859  1.00  0.00    -0.332 OA
ATOM      6  C   UNL     1      26.928  43.719   8.304  1.00  0.00     0.145 C 
ATOM      7  C   UNL     1      26.266  43.071   7.117  1.00  0.00     0.142 C 
BRANCH   3   8
ATOM      8  O   UNL     1      30.234  43.870   6.909  1.00  0.00    -0.338 OA
BRANCH   8   9
ATOM      9  C   UNL     1      30.860  43.504   8.029  1.00  0.00     0.199 C 
BRANCH   9  10
ATOM     10  C   UNL     1      31.848  42.373   7.996  1.00  0.00     0.179 C 
ATOM     11  C   UNL     1      32.304  40.531   9.287  1.00  0.00     0.282 C 
ATOM     12  O   UNL     1      31.283  41.374   8.826  1.00  0.00    -0.341 OA
ATOM     13  C   UNL     1      33.244  40.149   8.192  1.00  0.00     0.202 C 
ATOM     14  C   UNL     1      32.771  40.448   6.809  1.00  0.00     0.179 C 
ATOM     15  C   UNL     1      31.971  41.701   6.646  1.00  0.00     0.177 C 
BRANCH  11  16
ATOM     16  O   UNL     1      31.826  39.422   9.927  1.00  0.00    -0.341 OA
BRANCH  16  17
ATOM     17  C   UNL     1      30.803  39.701  10.832  1.00  0.00     0.184 C 
ATOM     18  C   UNL     1      31.158  39.457  12.232  1.00  0.00     0.178 C 
ATOM     19  O   UNL     1      30.565  38.412  12.887  1.00  0.00    -0.341 OA
ATOM     20  C   UNL     1      29.849  37.520  12.155  1.00  0.00     0.281 C 
ATOM     21  C   UNL     1      29.556  39.042  10.314  1.00  0.00     0.180 C 
ATOM     22  C   UNL     1      28.782  38.322  11.389  1.00  0.00     0.202 C 
BRANCH  18  23
ATOM     23  C   UNL     1      30.824  40.697  13.086  1.00  0.00     0.191 C 
BRANCH  23  24
ATOM     24  O   UNL     1      31.392  41.848  12.584  1.00  0.00    -0.394 OA
ATOM     25  H   UNL     1      30.786  42.207  11.881  1.00  0.00     0.210 HD
ENDBRANCH  23  24
ENDBRANCH  18  23
BRANCH  20  26
ATOM     26  O   UNL     1      29.103  36.718  13.035  1.00  0.00    -0.350 OA
BRANCH  26  27
ATOM     27  C   UNL     1      29.909  36.073  13.951  1.00  0.00     0.169 C 
BRANCH  27  28
ATOM     28  C   UNL     1      30.443  34.808  13.272  1.00  0.00     0.119 C 
BRANCH  28  29
ATOM     29  N   UNL     1      29.955  33.639  13.988  1.00  0.00    -0.092 NA
ATOM     30  N   UNL     1      30.727  32.994  14.695  1.00  0.00     0.001 N 
ATOM     31  N   UNL     1      31.401  32.424  15.573  1.00  0.00    -0.003 NA
ENDBRANCH  28  29
ENDBRANCH  27  28
ENDBRANCH  26  27
ENDBRANCH  20  26
BRANCH  21  32
ATOM     32  O   UNL     1      28.731  39.917   9.601  1.00  0.00    -0.387 OA
ATOM     33  H   UNL     1      27.820  39.975  10.023  1.00  0.00     0.211 HD
ENDBRANCH  21  32
BRANCH  22  34
ATOM     34  O   UNL     1      27.875  37.478  10.780  1.00  0.00    -0.385 OA
ATOM     35  H   UNL     1      27.265  37.075  11.449  1.00  0.00     0.211 HD
ENDBRANCH  22  34
ENDBRANCH  16  17
ENDBRANCH  11  16
BRANCH  13  36
ATOM     36  O   UNL     1      34.529  40.705   8.391  1.00  0.00    -0.385 OA
ATOM     37  H   UNL     1      34.730  41.442   7.793  1.00  0.00     0.211 HD
ENDBRANCH  13  36
BRANCH  14  38
ATOM     38  O   UNL     1      32.103  39.329   6.260  1.00  0.00    -0.387 OA
ATOM     39  H   UNL     1      31.159  39.561   6.079  1.00  0.00     0.211 HD
ENDBRANCH  14  38
BRANCH  15  40
ATOM     40  O   UNL     1      30.682  41.297   6.225  1.00  0.00    -0.387 OA
ATOM     41  H   UNL     1      30.523  41.492   5.273  1.00  0.00     0.211 HD
ENDBRANCH  15  40
ENDBRANCH   9  10
ENDBRANCH   8   9
ENDBRANCH   3   8
BRANCH   3  42
ATOM     42  C   UNL     1      28.611  45.601   6.871  1.00  0.00     0.364 C 
ATOM     43  O   UNL     1      29.248  46.452   7.533  1.00  0.00    -0.246 OA
BRANCH  42  44
ATOM     44  O   UNL     1      27.586  46.086   6.068  1.00  0.00    -0.477 OA
ATOM     45  H   UNL     1      26.855  45.468   5.740  1.00  0.00     0.296 HD
ENDBRANCH  42  44
ENDBRANCH   3  42
BRANCH   6  46
ATOM     46  O   UNL     1      26.464  43.145   9.522  1.00  0.00    -0.391 OA
ATOM     47  H   UNL     1      27.030  42.392   9.799  1.00  0.00     0.211 HD
ENDBRANCH   6  46
BRANCH   7  48
ATOM     48  N   UNL     1      25.102  43.827   6.700  1.00  0.00    -0.348 N 
ATOM     49  C   UNL     1      23.899  43.162   6.381  1.00  0.00     0.217 C 
ATOM     50  H   UNL     1      25.119  44.878   6.617  1.00  0.00     0.163 HD
ATOM     51  C   UNL     1      22.712  43.958   5.952  1.00  0.00     0.114 C 
ATOM     52  O   UNL     1      23.755  41.918   6.433  1.00  0.00    -0.275 OA
ENDBRANCH   7  48
ENDBRANCH   1   2
BRANCH   1  53
ATOM     53  O   UNL     1      27.970  40.682   6.928  1.00  0.00    -0.388 OA
ATOM     54  H   UNL     1      28.516  39.878   6.794  1.00  0.00     0.211 HD
ENDBRANCH   1  53
BRANCH   1  55
ATOM     55  C   UNL     1      26.596  40.516   4.960  1.00  0.00     0.165 C 
BRANCH  55  56
ATOM     56  O   UNL     1      25.671  39.835   5.692  1.00  0.00    -0.388 OA
ATOM     57  H   UNL     1      24.741  40.122   5.564  1.00  0.00     0.211 HD
ENDBRANCH  55  56
BRANCH  55  58
ATOM     58  C   UNL     1      27.371  39.583   4.046  1.00  0.00     0.154 C 
BRANCH  58  59
ATOM     59  N   UNL     1      27.532  38.269   4.594  1.00  0.00    -0.319 N 
ATOM     60  C   UNL     1      28.632  37.788   5.345  1.00  0.00     0.407 C 
ATOM     61  H   UNL     1      26.764  37.519   4.452  1.00  0.00     0.167 HD
ATOM     62  O   UNL     1      29.600  38.497   5.617  1.00  0.00    -0.225 OA
BRANCH  60  63
ATOM     63  O   UNL     1      28.670  36.461   5.820  1.00  0.00    -0.443 OA
BRANCH  63  64
ATOM     64  C   UNL     1      27.793  35.921   6.755  1.00  0.00     0.294 C 
BRANCH  64  65
ATOM     65  C   UNL     1      26.911  36.897   7.409  1.00  0.00     0.120 A 
ATOM     66  C   UNL     1      25.552  36.786   7.606  1.00  0.00     0.138 A 
ATOM     67  N   UNL     1      27.270  38.091   7.950  1.00  0.00    -0.132 NA
ATOM     68  N   UNL     1      25.123  37.884   8.243  1.00  0.00    -0.243 N 
ATOM     69  N   UNL     1      26.177  38.642   8.433  1.00  0.00    -0.067 NA
BRANCH  68  70
ATOM     70  C   UNL     1      23.797  38.257   8.684  1.00  0.00     0.245 C 
BRANCH  70  71
ATOM     71  C   UNL     1      23.307  37.225   9.616  1.00  0.00     0.242 C 
ATOM     72  O   UNL     1      22.515  36.349   9.225  1.00  0.00    -0.273 OA
ATOM     73  N   UNL     1      23.732  37.218  10.967  1.00  0.00    -0.350 N 
ATOM     74  H   UNL     1      24.405  37.945  11.341  1.00  0.00     0.163 HD
BRANCH  73  75
ATOM     75  C   UNL     1      23.282  36.234  11.902  1.00  0.00     0.162 C 
BRANCH  75  76
ATOM     76  C   UNL     1      24.447  35.617  12.555  1.00  0.00     0.024 A 
ATOM     77  C   UNL     1      25.468  34.874  12.060  1.00  0.00     0.017 A 
ATOM     78  S   UNL     1      24.811  35.721  14.271  1.00  0.00    -0.147 S 
ATOM     79  C   UNL     1      26.423  34.430  12.891  1.00  0.00     0.012 A 
ATOM     80  C   UNL     1      26.366  34.722  14.203  1.00  0.00     0.065 A 
ENDBRANCH  75  76
ENDBRANCH  73  75
ENDBRANCH  70  71
ENDBRANCH  68  70
ENDBRANCH  64  65
ENDBRANCH  63  64
ENDBRANCH  60  63
ENDBRANCH  58  59
ENDBRANCH  55  58
ENDBRANCH   1  55
TORSDOF 33
BEGIN_RES LYS A 131
REMARK  4 active torsions:
REMARK  status: ('A' for Active; 'I' for Inactive)
REMARK    1  A    between atoms: CA   and  CB  
REMARK    2  A    between atoms: CB   and  CG  
REMARK    3  A    between atoms: CG   and  CD  
REMARK    4  A    between atoms: CD   and  CE  
ROOT
ATOM      1  CA  LYS A 131      29.867  25.555  16.977  1.00 20.52     0.186 C 
ENDROOT
BRANCH   1   2
ATOM      2  CB  LYS A 131      28.345  25.722  17.026  1.00 20.94     0.034 C 
BRANCH   2   3
ATOM      3  CG  LYS A 131      27.600  24.408  16.844  1.00 22.96     0.005 C 
BRANCH   3   4
ATOM      4  CD  LYS A 131      26.151  24.521  17.228  1.00 24.33     0.041 C 
BRANCH   4   5
ATOM      5  CE  LYS A 131      26.043  24.926  18.695  1.00 26.91     0.338 C 
ATOM      6  NZ  LYS A 131      25.493  23.811  19.502  1.00 27.40     0.618 N 
ENDBRANCH   4   5
ENDBRANCH   3   4
ENDBRANCH   2   3
ENDBRANCH   1   2
END_RES LYS A 131
BEGIN_RES LYS A 135
REMARK  4 active torsions:
REMARK  status: ('A' for Active; 'I' for Inactive)
REMARK    5  A    between atoms: CA   and  CB  
REMARK    6  A    between atoms: CB   and  CG  
REMARK    7  A    between atoms: CG   and  CD  
REMARK    8  A    between atoms: CD   and  CE  
ROOT
ATOM      7  CA  LYS A 135      33.193  34.663   9.290  1.00 25.02     0.186 C 
ENDROOT
BRANCH   7   8
ATOM      8  CB  LYS A 135      32.060  35.360  10.034  1.00 26.63     0.034 C 
BRANCH   8   9
ATOM      9  CG  LYS A 135      30.802  35.506   9.217  1.00 29.45     0.005 C 
BRANCH   9  10
ATOM     10  CD  LYS A 135      30.026  34.198   9.188  1.00 32.00     0.041 C 
BRANCH  10  11
ATOM     11  CE  LYS A 135      28.808  34.283  10.087  1.00 34.25     0.338 C 
ATOM     12  NZ  LYS A 135      27.611  33.691   9.427  1.00 35.99     0.618 N 
ENDBRANCH  10  11
ENDBRANCH   9  10
ENDBRANCH   8   9
ENDBRANCH   7   8
END_RES LYS A 135
