REMARK VINA RESULT:    -4.823      5.952     12.254
REMARK INTER + INTRA:         -23.008
REMARK INTER:                 -12.826
REMARK INTRA:                 -10.182
REMARK UNBOUND:               -10.853
REMARK SMILES CC(=O)N[C@@H]1[C@@H](O)C[C@](OC[C@H]2O[C@@H](O[C@H]3[C@H](O)[C@@H](O)[C@H](OCCN=[N+]=[N-])O[C@@H]3CO)[C@H](O)[C@@H](O)[C@H]2O)(C(=O)O)O[C@H]1C(O)[C@H](O)CNC(=O)OCc1cn(-c2ncn3c2c(=O)n(C(C)C)c2ccccc23)nn1
REMARK SMILES IDX 9 1 8 2 6 3 5 4 42 5 41 6 10 7 11 8 12 9 14 10 13 11 32 12
REMARK SMILES IDX 34 13 36 14 15 15 16 16 29 17 28 18 21 19 17 20 19 21 30 22
REMARK SMILES IDX 31 23 22 25 23 26 24 27 25 28 26 29 27 30 18 31 20 33 33 35
REMARK SMILES IDX 35 37 37 39 38 41 39 42 40 43 7 45 43 47 44 48 45 50 46 51
REMARK SMILES IDX 47 53 48 54 49 55 50 57 51 58 52 59 53 60 54 61 74 62 55 63
REMARK SMILES IDX 73 64 56 65 57 66 60 67 58 68 59 69 61 70 72 71 63 72 62 73
REMARK SMILES IDX 71 74 67 75 70 76 68 77 69 78 64 79 65 80 66 81 4 82 2 83
REMARK SMILES IDX 1 85 3 86
REMARK H PARENT 31 24 18 32 20 34 33 36 35 38 37 40 40 44 7 46 44 49 46 52
REMARK H PARENT 48 56 4 84
REMARK Flexibility Score: inf
ROOT
ATOM      1  C   UNL     1      25.931  33.167  17.868  1.00  0.00     0.272 C 
ATOM      2  C   UNL     1      24.446  32.943  17.957  1.00  0.00     0.113 C 
ATOM      3  C   UNL     1      23.888  32.302  16.757  1.00  0.00     0.145 C 
ATOM      4  C   UNL     1      24.689  31.146  16.229  1.00  0.00     0.142 C 
ATOM      5  C   UNL     1      26.141  31.236  16.530  1.00  0.00     0.178 C 
ATOM      6  O   UNL     1      26.524  31.887  17.627  1.00  0.00    -0.332 OA
ENDROOT
BRANCH   1   7
ATOM      7  O   UNL     1      26.355  33.423  19.143  1.00  0.00    -0.338 OA
BRANCH   7   8
ATOM      8  C   UNL     1      26.769  32.561  20.028  1.00  0.00     0.199 C 
BRANCH   8   9
ATOM      9  C   UNL     1      28.084  32.576  20.729  1.00  0.00     0.179 C 
ATOM     10  C   UNL     1      29.894  31.131  20.971  1.00  0.00     0.282 C 
ATOM     11  O   UNL     1      28.657  31.302  20.407  1.00  0.00    -0.341 OA
ATOM     12  C   UNL     1      30.915  32.120  20.438  1.00  0.00     0.202 C 
ATOM     13  C   UNL     1      30.396  33.542  20.554  1.00  0.00     0.179 C 
ATOM     14  C   UNL     1      28.991  33.580  20.017  1.00  0.00     0.177 C 
BRANCH  10  15
ATOM     15  O   UNL     1      30.323  29.853  20.630  1.00  0.00    -0.341 OA
BRANCH  15  16
ATOM     16  C   UNL     1      29.826  28.916  21.497  1.00  0.00     0.184 C 
ATOM     17  C   UNL     1      30.393  29.108  22.857  1.00  0.00     0.178 C 
ATOM     18  O   UNL     1      31.451  28.302  23.193  1.00  0.00    -0.341 OA
ATOM     19  C   UNL     1      32.209  27.832  22.153  1.00  0.00     0.281 C 
ATOM     20  C   UNL     1      29.994  27.498  20.991  1.00  0.00     0.180 C 
ATOM     21  C   UNL     1      31.406  27.063  21.133  1.00  0.00     0.202 C 
BRANCH  17  22
ATOM     22  C   UNL     1      29.310  28.988  23.908  1.00  0.00     0.191 C 
BRANCH  22  23
ATOM     23  O   UNL     1      29.473  27.700  24.470  1.00  0.00    -0.394 OA
ATOM     24  H   UNL     1      30.382  27.681  24.848  1.00  0.00     0.210 HD
ENDBRANCH  22  23
ENDBRANCH  17  22
BRANCH  19  25
ATOM     25  O   UNL     1      33.124  26.909  22.690  1.00  0.00    -0.350 OA
BRANCH  25  26
ATOM     26  C   UNL     1      33.374  27.080  24.024  1.00  0.00     0.169 C 
BRANCH  26  27
ATOM     27  C   UNL     1      34.814  27.056  24.429  1.00  0.00     0.119 C 
BRANCH  27  28
ATOM     28  N   UNL     1      35.280  28.450  24.347  1.00  0.00    -0.092 NA
ATOM     29  N   UNL     1      36.152  28.825  23.595  1.00  0.00     0.001 N 
ATOM     30  N   UNL     1      37.196  29.247  23.087  1.00  0.00    -0.003 NA
ENDBRANCH  27  28
ENDBRANCH  26  27
ENDBRANCH  25  26
ENDBRANCH  19  25
BRANCH  20  31
ATOM     31  O   UNL     1      29.082  26.671  21.659  1.00  0.00    -0.387 OA
ATOM     32  H   UNL     1      28.920  27.126  22.537  1.00  0.00     0.211 HD
ENDBRANCH  20  31
BRANCH  21  33
ATOM     33  O   UNL     1      32.025  27.234  19.881  1.00  0.00    -0.385 OA
ATOM     34  H   UNL     1      31.430  26.957  19.137  1.00  0.00     0.211 HD
ENDBRANCH  21  33
ENDBRANCH  15  16
ENDBRANCH  10  15
BRANCH  12  35
ATOM     35  O   UNL     1      32.034  32.048  21.264  1.00  0.00    -0.385 OA
ATOM     36  H   UNL     1      32.458  31.157  21.244  1.00  0.00     0.211 HD
ENDBRANCH  12  35
BRANCH  13  37
ATOM     37  O   UNL     1      31.176  34.320  19.678  1.00  0.00    -0.387 OA
ATOM     38  H   UNL     1      30.592  34.764  19.003  1.00  0.00     0.211 HD
ENDBRANCH  13  37
BRANCH  14  39
ATOM     39  O   UNL     1      29.085  33.177  18.659  1.00  0.00    -0.387 OA
ATOM     40  H   UNL     1      29.292  33.955  18.088  1.00  0.00     0.211 HD
ENDBRANCH  14  39
ENDBRANCH   8   9
ENDBRANCH   7   8
ENDBRANCH   1   7
BRANCH   1  41
ATOM     41  C   UNL     1      26.356  34.049  16.790  1.00  0.00     0.364 C 
ATOM     42  O   UNL     1      25.610  34.804  16.167  1.00  0.00    -0.246 OA
BRANCH  41  43
ATOM     43  O   UNL     1      27.705  34.082  16.389  1.00  0.00    -0.477 OA
ATOM     44  H   UNL     1      28.265  33.242  16.459  1.00  0.00     0.296 HD
ENDBRANCH  41  43
ENDBRANCH   1  41
BRANCH   3  45
ATOM     45  O   UNL     1      22.590  31.845  17.105  1.00  0.00    -0.391 OA
ATOM     46  H   UNL     1      22.632  31.224  17.867  1.00  0.00     0.211 HD
ENDBRANCH   3  45
BRANCH   5  47
ATOM     47  C   UNL     1      26.819  29.878  16.500  1.00  0.00     0.176 C 
BRANCH  47  48
ATOM     48  O   UNL     1      26.247  29.050  17.439  1.00  0.00    -0.388 OA
ATOM     49  H   UNL     1      26.764  28.988  18.281  1.00  0.00     0.211 HD
ENDBRANCH  47  48
BRANCH  47  50
ATOM     50  C   UNL     1      28.298  29.920  16.661  1.00  0.00     0.165 C 
BRANCH  50  51
ATOM     51  O   UNL     1      28.771  30.119  17.930  1.00  0.00    -0.388 OA
ATOM     52  H   UNL     1      29.102  29.305  18.375  1.00  0.00     0.211 HD
ENDBRANCH  50  51
BRANCH  50  53
ATOM     53  C   UNL     1      28.986  30.840  15.700  1.00  0.00     0.154 C 
BRANCH  53  54
ATOM     54  N   UNL     1      29.680  31.915  16.419  1.00  0.00    -0.319 N 
ATOM     55  C   UNL     1      30.950  32.382  16.044  1.00  0.00     0.407 C 
ATOM     56  H   UNL     1      29.210  32.367  17.260  1.00  0.00     0.167 HD
ATOM     57  O   UNL     1      31.564  31.882  15.067  1.00  0.00    -0.225 OA
BRANCH  55  58
ATOM     58  O   UNL     1      31.518  33.425  16.790  1.00  0.00    -0.443 OA
BRANCH  58  59
ATOM     59  C   UNL     1      31.880  34.628  16.172  1.00  0.00     0.294 C 
BRANCH  59  60
ATOM     60  C   UNL     1      30.690  35.359  15.594  1.00  0.00     0.121 A 
ATOM     61  C   UNL     1      30.183  35.212  14.322  1.00  0.00     0.146 A 
ATOM     62  N   UNL     1      29.906  36.269  16.192  1.00  0.00    -0.131 NA
ATOM     63  N   UNL     1      29.102  36.033  14.170  1.00  0.00    -0.200 N 
ATOM     64  N   UNL     1      28.971  36.654  15.326  1.00  0.00    -0.060 NA
BRANCH  63  65
ATOM     65  C   UNL     1      28.310  36.155  12.989  1.00  0.00     0.186 A 
ATOM     66  N   UNL     1      27.206  35.436  12.728  1.00  0.00    -0.216 NA
ATOM     67  C   UNL     1      28.470  36.965  11.893  1.00  0.00     0.158 A 
ATOM     68  C   UNL     1      26.706  35.786  11.527  1.00  0.00     0.207 A 
ATOM     69  N   UNL     1      27.487  36.746  10.985  1.00  0.00    -0.291 N 
ATOM     70  C   UNL     1      29.438  37.900  11.629  1.00  0.00     0.279 A 
ATOM     71  C   UNL     1      27.436  37.425   9.825  1.00  0.00     0.071 A 
ATOM     72  N   UNL     1      29.413  38.601  10.466  1.00  0.00    -0.302 N 
ATOM     73  O   UNL     1      30.370  38.127  12.461  1.00  0.00    -0.267 OA
ATOM     74  C   UNL     1      26.448  37.200   8.905  1.00  0.00     0.029 A 
ATOM     75  C   UNL     1      28.420  38.358   9.583  1.00  0.00     0.068 A 
ATOM     76  C   UNL     1      26.399  37.905   7.692  1.00  0.00     0.002 A 
ATOM     77  C   UNL     1      28.368  39.049   8.387  1.00  0.00     0.028 A 
ATOM     78  C   UNL     1      27.376  38.839   7.437  1.00  0.00     0.002 A 
BRANCH  72  79
ATOM     79  C   UNL     1      30.441  39.606  10.187  1.00  0.00     0.085 C 
ATOM     80  C   UNL     1      30.422  40.760  11.135  1.00  0.00     0.031 C 
ATOM     81  C   UNL     1      31.801  38.989   9.979  1.00  0.00     0.031 C 
ENDBRANCH  72  79
ENDBRANCH  63  65
ENDBRANCH  59  60
ENDBRANCH  58  59
ENDBRANCH  55  58
ENDBRANCH  53  54
ENDBRANCH  50  53
ENDBRANCH  47  50
ENDBRANCH   5  47
BRANCH   4  82
ATOM     82  N   UNL     1      24.415  31.010  14.814  1.00  0.00    -0.348 N 
ATOM     83  C   UNL     1      23.850  29.849  14.239  1.00  0.00     0.217 C 
ATOM     84  H   UNL     1      24.640  31.800  14.163  1.00  0.00     0.163 HD
ATOM     85  C   UNL     1      23.574  29.721  12.778  1.00  0.00     0.114 C 
ATOM     86  O   UNL     1      23.573  28.885  15.012  1.00  0.00    -0.275 OA
ENDBRANCH   4  82
TORSDOF 31
BEGIN_RES LYS A 131
REMARK  4 active torsions:
REMARK  status: ('A' for Active; 'I' for Inactive)
REMARK    1  A    between atoms: CA   and  CB  
REMARK    2  A    between atoms: CB   and  CG  
REMARK    3  A    between atoms: CG   and  CD  
REMARK    4  A    between atoms: CD   and  CE  
ROOT
ATOM      1  CA  LYS A 131      29.867  25.555  16.977  1.00 20.52     0.186 C 
ENDROOT
BRANCH   1   2
ATOM      2  CB  LYS A 131      28.345  25.722  17.026  1.00 20.94     0.034 C 
BRANCH   2   3
ATOM      3  CG  LYS A 131      27.609  24.397  17.158  1.00 22.96     0.005 C 
BRANCH   3   4
ATOM      4  CD  LYS A 131      26.123  24.585  17.288  1.00 24.33     0.041 C 
BRANCH   4   5
ATOM      5  CE  LYS A 131      25.449  23.225  17.438  1.00 26.91     0.338 C 
ATOM      6  NZ  LYS A 131      24.392  23.282  18.475  1.00 27.40     0.618 N 
ENDBRANCH   4   5
ENDBRANCH   3   4
ENDBRANCH   2   3
ENDBRANCH   1   2
END_RES LYS A 131
BEGIN_RES LYS A 135
REMARK  4 active torsions:
REMARK  status: ('A' for Active; 'I' for Inactive)
REMARK    5  A    between atoms: CA   and  CB  
REMARK    6  A    between atoms: CB   and  CG  
REMARK    7  A    between atoms: CG   and  CD  
REMARK    8  A    between atoms: CD   and  CE  
ROOT
ATOM      7  CA  LYS A 135      33.193  34.663   9.290  1.00 25.02     0.186 C 
ENDROOT
BRANCH   7   8
ATOM      8  CB  LYS A 135      32.060  35.360  10.034  1.00 26.63     0.034 C 
BRANCH   8   9
ATOM      9  CG  LYS A 135      30.797  35.490   9.223  1.00 29.45     0.005 C 
BRANCH   9  10
ATOM     10  CD  LYS A 135      29.838  34.351   9.537  1.00 32.00     0.041 C 
BRANCH  10  11
ATOM     11  CE  LYS A 135      28.704  34.318   8.531  1.00 34.25     0.338 C 
ATOM     12  NZ  LYS A 135      28.994  35.197   7.364  1.00 35.99     0.618 N 
ENDBRANCH  10  11
ENDBRANCH   9  10
ENDBRANCH   8   9
ENDBRANCH   7   8
END_RES LYS A 135
