REMARK VINA RESULT:    -4.869      6.417     12.433
REMARK INTER + INTRA:         -22.132
REMARK INTER:                 -12.351
REMARK INTRA:                  -9.780
REMARK UNBOUND:                -9.861
REMARK SMILES CC(=O)N[C@@H]1[C@@H](O)C[C@](OC[C@H]2O[C@@H](O[C@H]3[C@H](O)[C@@H](O)[C@H](OCCN=[N+]=[N-])O[C@@H]3CO)[C@H](O)[C@@H](O)[C@H]2O)(C(=O)O)O[C@H]1C(O)[C@H](O)CNC(=O)OCc1cn(-c2ccc([N+](=O)[O-])cc2)nn1
REMARK SMILES IDX 9 1 8 2 6 3 5 4 42 5 41 6 10 7 11 8 12 9 14 10 13 11 32 12
REMARK SMILES IDX 34 13 36 14 15 15 16 16 29 17 28 18 21 19 17 20 19 21 30 22
REMARK SMILES IDX 31 23 22 25 23 26 24 27 25 28 26 29 27 30 18 31 20 33 33 35
REMARK SMILES IDX 35 37 37 39 38 41 39 42 40 43 7 45 43 47 44 48 45 50 46 51
REMARK SMILES IDX 47 53 48 54 49 55 50 57 51 58 52 59 53 60 54 61 66 62 55 63
REMARK SMILES IDX 65 64 56 65 57 66 64 67 58 68 63 69 59 70 60 71 61 72 62 73
REMARK SMILES IDX 4 74 2 75 1 77 3 78
REMARK H PARENT 31 24 18 32 20 34 33 36 35 38 37 40 40 44 7 46 44 49 46 52
REMARK H PARENT 48 56 4 76
REMARK Flexibility Score: inf
ROOT
ATOM      1  C   UNL     1      27.602  31.548  16.842  1.00  0.00     0.272 C 
ATOM      2  C   UNL     1      28.414  30.836  15.810  1.00  0.00     0.113 C 
ATOM      3  C   UNL     1      29.708  31.506  15.630  1.00  0.00     0.145 C 
ATOM      4  C   UNL     1      29.829  32.909  16.253  1.00  0.00     0.142 C 
ATOM      5  C   UNL     1      28.547  33.590  16.137  1.00  0.00     0.178 C 
ATOM      6  O   UNL     1      27.402  32.849  16.413  1.00  0.00    -0.332 OA
ENDROOT
BRANCH   1   7
ATOM      7  O   UNL     1      28.051  31.448  18.122  1.00  0.00    -0.338 OA
BRANCH   7   8
ATOM      8  C   UNL     1      28.342  30.203  18.578  1.00  0.00     0.199 C 
BRANCH   8   9
ATOM      9  C   UNL     1      28.475  30.172  20.095  1.00  0.00     0.179 C 
ATOM     10  C   UNL     1      28.147  27.975  20.828  1.00  0.00     0.282 C 
ATOM     11  O   UNL     1      27.668  29.240  20.691  1.00  0.00    -0.341 OA
ATOM     12  C   UNL     1      29.522  27.686  20.384  1.00  0.00     0.202 C 
ATOM     13  C   UNL     1      30.460  28.817  20.716  1.00  0.00     0.179 C 
ATOM     14  C   UNL     1      29.874  30.179  20.599  1.00  0.00     0.177 C 
BRANCH  10  15
ATOM     15  O   UNL     1      27.187  27.108  20.316  1.00  0.00    -0.341 OA
BRANCH  15  16
ATOM     16  C   UNL     1      25.956  27.618  20.071  1.00  0.00     0.184 C 
ATOM     17  C   UNL     1      24.839  26.940  20.834  1.00  0.00     0.178 C 
ATOM     18  O   UNL     1      23.619  27.525  20.439  1.00  0.00    -0.341 OA
ATOM     19  C   UNL     1      23.305  27.094  19.151  1.00  0.00     0.281 C 
ATOM     20  C   UNL     1      25.646  27.303  18.595  1.00  0.00     0.180 C 
ATOM     21  C   UNL     1      24.279  27.855  18.242  1.00  0.00     0.202 C 
BRANCH  17  22
ATOM     22  C   UNL     1      24.916  27.110  22.328  1.00  0.00     0.191 C 
BRANCH  22  23
ATOM     23  O   UNL     1      25.339  28.448  22.526  1.00  0.00    -0.394 OA
ATOM     24  H   UNL     1      25.828  28.780  21.727  1.00  0.00     0.210 HD
ENDBRANCH  22  23
ENDBRANCH  17  22
BRANCH  19  25
ATOM     25  O   UNL     1      22.027  27.462  18.820  1.00  0.00    -0.350 OA
BRANCH  25  26
ATOM     26  C   UNL     1      21.492  28.498  19.542  1.00  0.00     0.169 C 
BRANCH  26  27
ATOM     27  C   UNL     1      21.067  29.689  18.730  1.00  0.00     0.119 C 
BRANCH  27  28
ATOM     28  N   UNL     1      21.120  29.320  17.313  1.00  0.00    -0.092 NA
ATOM     29  N   UNL     1      21.813  29.974  16.547  1.00  0.00     0.001 N 
ATOM     30  N   UNL     1      22.683  30.489  15.864  1.00  0.00    -0.003 NA
ENDBRANCH  27  28
ENDBRANCH  26  27
ENDBRANCH  25  26
ENDBRANCH  19  25
BRANCH  20  31
ATOM     31  O   UNL     1      26.636  27.734  17.757  1.00  0.00    -0.387 OA
ATOM     32  H   UNL     1      27.380  28.202  18.185  1.00  0.00     0.211 HD
ENDBRANCH  20  31
BRANCH  21  33
ATOM     33  O   UNL     1      24.020  27.651  16.914  1.00  0.00    -0.385 OA
ATOM     34  H   UNL     1      24.044  26.683  16.726  1.00  0.00     0.211 HD
ENDBRANCH  21  33
ENDBRANCH  15  16
ENDBRANCH  10  15
BRANCH  12  35
ATOM     35  O   UNL     1      30.017  26.593  21.122  1.00  0.00    -0.385 OA
ATOM     36  H   UNL     1      30.194  26.830  22.051  1.00  0.00     0.211 HD
ENDBRANCH  12  35
BRANCH  13  37
ATOM     37  O   UNL     1      31.628  28.684  19.927  1.00  0.00    -0.387 OA
ATOM     38  H   UNL     1      31.936  29.580  19.713  1.00  0.00     0.211 HD
ENDBRANCH  13  37
BRANCH  14  39
ATOM     39  O   UNL     1      30.635  31.082  19.870  1.00  0.00    -0.387 OA
ATOM     40  H   UNL     1      30.493  31.979  20.278  1.00  0.00     0.211 HD
ENDBRANCH  14  39
ENDBRANCH   8   9
ENDBRANCH   7   8
ENDBRANCH   1   7
BRANCH   1  41
ATOM     41  C   UNL     1      26.199  30.979  16.790  1.00  0.00     0.364 C 
ATOM     42  O   UNL     1      25.930  30.046  16.009  1.00  0.00    -0.246 OA
BRANCH  41  43
ATOM     43  O   UNL     1      25.228  31.498  17.600  1.00  0.00    -0.477 OA
ATOM     44  H   UNL     1      25.135  31.308  18.594  1.00  0.00     0.296 HD
ENDBRANCH  41  43
ENDBRANCH   1  41
BRANCH   3  45
ATOM     45  O   UNL     1      30.745  30.754  16.178  1.00  0.00    -0.391 OA
ATOM     46  H   UNL     1      30.400  29.993  16.684  1.00  0.00     0.211 HD
ENDBRANCH   3  45
BRANCH   5  47
ATOM     47  C   UNL     1      28.283  34.895  16.750  1.00  0.00     0.176 C 
BRANCH  47  48
ATOM     48  O   UNL     1      28.299  35.999  15.893  1.00  0.00    -0.388 OA
ATOM     49  H   UNL     1      27.458  36.484  15.833  1.00  0.00     0.211 HD
ENDBRANCH  47  48
BRANCH  47  50
ATOM     50  C   UNL     1      27.106  35.096  17.647  1.00  0.00     0.165 C 
BRANCH  50  51
ATOM     51  O   UNL     1      26.781  34.066  18.475  1.00  0.00    -0.388 OA
ATOM     52  H   UNL     1      26.741  34.335  19.430  1.00  0.00     0.211 HD
ENDBRANCH  50  51
BRANCH  50  53
ATOM     53  C   UNL     1      25.971  35.829  16.983  1.00  0.00     0.154 C 
BRANCH  53  54
ATOM     54  N   UNL     1      25.359  35.134  15.882  1.00  0.00    -0.319 N 
ATOM     55  C   UNL     1      24.293  34.212  16.009  1.00  0.00     0.407 C 
ATOM     56  H   UNL     1      25.699  35.296  14.897  1.00  0.00     0.167 HD
ATOM     57  O   UNL     1      23.835  33.953  17.126  1.00  0.00    -0.225 OA
BRANCH  55  58
ATOM     58  O   UNL     1      23.737  33.574  14.899  1.00  0.00    -0.443 OA
BRANCH  58  59
ATOM     59  C   UNL     1      24.485  32.975  13.874  1.00  0.00     0.294 C 
BRANCH  59  60
ATOM     60  C   UNL     1      24.552  33.861  12.694  1.00  0.00     0.121 A 
ATOM     61  C   UNL     1      25.636  34.098  11.851  1.00  0.00     0.144 A 
ATOM     62  N   UNL     1      23.550  34.626  12.168  1.00  0.00    -0.131 NA
ATOM     63  N   UNL     1      25.272  34.960  10.883  1.00  0.00    -0.220 N 
ATOM     64  N   UNL     1      24.011  35.257  11.104  1.00  0.00    -0.062 NA
BRANCH  63  65
ATOM     65  C   UNL     1      26.085  35.453   9.811  1.00  0.00     0.067 A 
ATOM     66  C   UNL     1      26.413  34.714   8.700  1.00  0.00     0.035 A 
ATOM     67  C   UNL     1      26.588  36.744   9.881  1.00  0.00     0.035 A 
ATOM     68  C   UNL     1      27.217  35.239   7.689  1.00  0.00     0.088 A 
ATOM     69  C   UNL     1      27.384  37.267   8.883  1.00  0.00     0.088 A 
ATOM     70  C   UNL     1      27.715  36.527   7.768  1.00  0.00     0.269 A 
BRANCH  70  71
ATOM     71  N   UNL     1      28.537  37.051   6.732  1.00  0.00     0.062 N 
ATOM     72  O   UNL     1      28.944  38.223   6.691  1.00  0.00    -0.258 OA
ATOM     73  O   UNL     1      28.899  36.206   5.714  1.00  0.00    -0.258 OA
ENDBRANCH  70  71
ENDBRANCH  63  65
ENDBRANCH  59  60
ENDBRANCH  58  59
ENDBRANCH  55  58
ENDBRANCH  53  54
ENDBRANCH  50  53
ENDBRANCH  47  50
ENDBRANCH   5  47
BRANCH   4  74
ATOM     74  N   UNL     1      30.801  33.526  15.336  1.00  0.00    -0.348 N 
ATOM     75  C   UNL     1      31.913  34.256  15.790  1.00  0.00     0.217 C 
ATOM     76  H   UNL     1      30.646  33.396  14.321  1.00  0.00     0.163 HD
ATOM     77  C   UNL     1      32.838  34.845  14.775  1.00  0.00     0.114 C 
ATOM     78  O   UNL     1      32.154  34.428  16.995  1.00  0.00    -0.275 OA
ENDBRANCH   4  74
TORSDOF 31
BEGIN_RES LYS A 131
REMARK  4 active torsions:
REMARK  status: ('A' for Active; 'I' for Inactive)
REMARK    1  A    between atoms: CA   and  CB  
REMARK    2  A    between atoms: CB   and  CG  
REMARK    3  A    between atoms: CG   and  CD  
REMARK    4  A    between atoms: CD   and  CE  
ROOT
ATOM      1  CA  LYS A 131      29.867  25.555  16.977  1.00 20.52     0.186 C 
ENDROOT
BRANCH   1   2
ATOM      2  CB  LYS A 131      28.345  25.722  17.026  1.00 20.94     0.034 C 
BRANCH   2   3
ATOM      3  CG  LYS A 131      27.599  24.426  16.749  1.00 22.96     0.005 C 
BRANCH   3   4
ATOM      4  CD  LYS A 131      26.985  23.849  17.994  1.00 24.33     0.041 C 
BRANCH   4   5
ATOM      5  CE  LYS A 131      25.598  23.302  17.671  1.00 26.91     0.338 C 
ATOM      6  NZ  LYS A 131      24.831  24.279  16.862  1.00 27.40     0.618 N 
ENDBRANCH   4   5
ENDBRANCH   3   4
ENDBRANCH   2   3
ENDBRANCH   1   2
END_RES LYS A 131
BEGIN_RES LYS A 135
REMARK  4 active torsions:
REMARK  status: ('A' for Active; 'I' for Inactive)
REMARK    5  A    between atoms: CA   and  CB  
REMARK    6  A    between atoms: CB   and  CG  
REMARK    7  A    between atoms: CG   and  CD  
REMARK    8  A    between atoms: CD   and  CE  
ROOT
ATOM      7  CA  LYS A 135      33.193  34.663   9.290  1.00 25.02     0.186 C 
ENDROOT
BRANCH   7   8
ATOM      8  CB  LYS A 135      32.060  35.360  10.034  1.00 26.63     0.034 C 
BRANCH   8   9
ATOM      9  CG  LYS A 135      30.712  35.180   9.385  1.00 29.45     0.005 C 
BRANCH   9  10
ATOM     10  CD  LYS A 135      29.707  34.621  10.380  1.00 32.00     0.041 C 
BRANCH  10  11
ATOM     11  CE  LYS A 135      30.152  34.904  11.802  1.00 34.25     0.338 C 
ATOM     12  NZ  LYS A 135      28.987  34.952  12.729  1.00 35.99     0.618 N 
ENDBRANCH  10  11
ENDBRANCH   9  10
ENDBRANCH   8   9
ENDBRANCH   7   8
END_RES LYS A 135
