REMARK VINA RESULT:    -4.596      0.000      0.000
REMARK INTER + INTRA:         -25.705
REMARK INTER:                  -9.966
REMARK INTRA:                 -15.739
REMARK UNBOUND:               -13.184
REMARK SMILES CC(=O)N[C@@H]1[C@@H](O)C[C@](OC[C@H]2O[C@@H](O[C@H]3[C@H](O)[C@@H](O)[C@H](OCCN=[N+]=[N-])O[C@@H]3CO)[C@H](O)[C@@H](O)[C@H]2O)(C(=O)O)O[C@H]1C(O)[C@H](O)CNC(=O)OCc1cn(CC(O)Cn2ccnc2[N+](=O)[O-])nn1
REMARK SMILES IDX 43 1 42 2 9 3 8 4 41 5 6 6 5 7 10 8 11 9 12 10 14 11 13 12
REMARK SMILES IDX 32 13 34 14 36 15 15 16 16 17 29 18 28 19 21 20 17 21 19 22
REMARK SMILES IDX 30 23 31 24 22 26 23 27 24 28 25 29 26 30 27 31 18 32 20 34
REMARK SMILES IDX 33 36 35 38 37 40 38 42 39 43 40 44 7 46 4 48 2 49 1 51 3 52
REMARK SMILES IDX 44 53 45 55 46 56 47 58 48 59 49 60 50 62 51 63 52 64 53 65
REMARK SMILES IDX 54 66 69 67 55 68 68 69 56 70 57 71 58 72 59 74 60 75 61 76
REMARK SMILES IDX 64 77 62 78 63 79 65 80 66 81 67 82
REMARK H PARENT 31 25 18 33 20 35 33 37 35 39 37 41 40 45 7 47 4 50 44 54
REMARK H PARENT 46 57 48 61 58 73
REMARK Flexibility Score: inf
ROOT
ATOM      1  C   UNL     1      26.731  29.185  19.887  1.00  0.00     0.176 C 
ENDROOT
BRANCH   1   2
ATOM      2  C   UNL     1      25.784  30.170  19.137  1.00  0.00     0.178 C 
ATOM      3  C   UNL     1      25.702  31.038  16.995  1.00  0.00     0.272 C 
ATOM      4  C   UNL     1      25.355  32.390  17.543  1.00  0.00     0.113 C 
ATOM      5  O   UNL     1      26.451  30.317  17.919  1.00  0.00    -0.332 OA
ATOM      6  C   UNL     1      26.032  32.637  18.885  1.00  0.00     0.145 C 
ATOM      7  C   UNL     1      25.775  31.470  19.829  1.00  0.00     0.142 C 
BRANCH   3   8
ATOM      8  O   UNL     1      26.531  31.097  15.881  1.00  0.00    -0.338 OA
BRANCH   8   9
ATOM      9  C   UNL     1      27.672  30.387  15.871  1.00  0.00     0.199 C 
BRANCH   9  10
ATOM     10  C   UNL     1      28.917  31.239  15.714  1.00  0.00     0.179 C 
ATOM     11  C   UNL     1      29.648  33.267  15.130  1.00  0.00     0.282 C 
ATOM     12  O   UNL     1      28.619  32.621  15.859  1.00  0.00    -0.341 OA
ATOM     13  C   UNL     1      31.000  32.931  15.710  1.00  0.00     0.202 C 
ATOM     14  C   UNL     1      30.750  32.270  17.064  1.00  0.00     0.179 C 
ATOM     15  C   UNL     1      29.960  30.989  16.779  1.00  0.00     0.177 C 
BRANCH  11  16
ATOM     16  O   UNL     1      29.477  34.635  15.102  1.00  0.00    -0.341 OA
BRANCH  16  17
ATOM     17  C   UNL     1      28.156  34.884  14.810  1.00  0.00     0.184 C 
ATOM     18  C   UNL     1      27.944  35.626  13.500  1.00  0.00     0.178 C 
ATOM     19  O   UNL     1      26.593  35.422  13.199  1.00  0.00    -0.341 OA
ATOM     20  C   UNL     1      25.724  36.039  14.056  1.00  0.00     0.281 C 
ATOM     21  C   UNL     1      27.490  35.761  15.861  1.00  0.00     0.180 C 
ATOM     22  C   UNL     1      26.090  36.079  15.495  1.00  0.00     0.202 C 
BRANCH  18  23
ATOM     23  C   UNL     1      28.819  35.167  12.390  1.00  0.00     0.191 C 
BRANCH  23  24
ATOM     24  O   UNL     1      30.080  35.721  12.570  1.00  0.00    -0.394 OA
ATOM     25  H   UNL     1      30.049  36.666  12.864  1.00  0.00     0.210 HD
ENDBRANCH  23  24
ENDBRANCH  18  23
BRANCH  20  26
ATOM     26  O   UNL     1      24.506  35.313  13.964  1.00  0.00    -0.350 OA
BRANCH  26  27
ATOM     27  C   UNL     1      24.584  34.070  14.538  1.00  0.00     0.169 C 
BRANCH  27  28
ATOM     28  C   UNL     1      23.827  33.121  13.599  1.00  0.00     0.119 C 
BRANCH  28  29
ATOM     29  N   UNL     1      24.641  32.028  13.165  1.00  0.00    -0.092 NA
ATOM     30  N   UNL     1      24.227  30.846  13.203  1.00  0.00     0.001 N 
ATOM     31  N   UNL     1      23.900  29.743  12.797  1.00  0.00    -0.003 NA
ENDBRANCH  28  29
ENDBRANCH  27  28
ENDBRANCH  26  27
ENDBRANCH  20  26
BRANCH  21  32
ATOM     32  O   UNL     1      27.494  35.079  17.096  1.00  0.00    -0.387 OA
ATOM     33  H   UNL     1      26.689  34.531  17.104  1.00  0.00     0.211 HD
ENDBRANCH  21  32
BRANCH  22  34
ATOM     34  O   UNL     1      25.861  37.408  15.934  1.00  0.00    -0.385 OA
ATOM     35  H   UNL     1      24.917  37.529  16.214  1.00  0.00     0.211 HD
ENDBRANCH  22  34
ENDBRANCH  16  17
ENDBRANCH  11  16
BRANCH  13  36
ATOM     36  O   UNL     1      31.649  32.053  14.843  1.00  0.00    -0.385 OA
ATOM     37  H   UNL     1      31.617  32.381  13.901  1.00  0.00     0.211 HD
ENDBRANCH  13  36
BRANCH  14  38
ATOM     38  O   UNL     1      29.896  33.095  17.773  1.00  0.00    -0.387 OA
ATOM     39  H   UNL     1      29.019  32.682  17.856  1.00  0.00     0.211 HD
ENDBRANCH  14  38
BRANCH  15  40
ATOM     40  O   UNL     1      29.413  30.615  17.986  1.00  0.00    -0.387 OA
ATOM     41  H   UNL     1      30.099  30.324  18.638  1.00  0.00     0.211 HD
ENDBRANCH  15  40
ENDBRANCH   9  10
ENDBRANCH   8   9
ENDBRANCH   3   8
BRANCH   3  42
ATOM     42  C   UNL     1      24.493  30.274  16.661  1.00  0.00     0.364 C 
ATOM     43  O   UNL     1      24.538  29.033  16.350  1.00  0.00    -0.246 OA
BRANCH  42  44
ATOM     44  O   UNL     1      23.221  30.812  16.648  1.00  0.00    -0.477 OA
ATOM     45  H   UNL     1      22.431  30.404  17.156  1.00  0.00     0.296 HD
ENDBRANCH  42  44
ENDBRANCH   3  42
BRANCH   6  46
ATOM     46  O   UNL     1      27.381  32.897  18.743  1.00  0.00    -0.391 OA
ATOM     47  H   UNL     1      27.647  33.724  19.218  1.00  0.00     0.211 HD
ENDBRANCH   6  46
BRANCH   7  48
ATOM     48  N   UNL     1      24.689  31.763  20.710  1.00  0.00    -0.348 N 
ATOM     49  C   UNL     1      24.723  32.378  21.956  1.00  0.00     0.217 C 
ATOM     50  H   UNL     1      23.673  31.481  20.373  1.00  0.00     0.163 HD
ATOM     51  C   UNL     1      23.447  32.639  22.740  1.00  0.00     0.114 C 
ATOM     52  O   UNL     1      25.757  32.755  22.512  1.00  0.00    -0.275 OA
ENDBRANCH   7  48
ENDBRANCH   1   2
BRANCH   1  53
ATOM     53  O   UNL     1      27.806  29.962  20.387  1.00  0.00    -0.388 OA
ATOM     54  H   UNL     1      27.823  29.992  21.356  1.00  0.00     0.211 HD
ENDBRANCH   1  53
BRANCH   1  55
ATOM     55  C   UNL     1      27.229  28.070  19.094  1.00  0.00     0.165 C 
BRANCH  55  56
ATOM     56  O   UNL     1      26.346  27.437  18.258  1.00  0.00    -0.388 OA
ATOM     57  H   UNL     1      25.401  27.640  18.440  1.00  0.00     0.211 HD
ENDBRANCH  55  56
BRANCH  55  58
ATOM     58  C   UNL     1      27.960  27.003  19.944  1.00  0.00     0.154 C 
BRANCH  58  59
ATOM     59  N   UNL     1      29.368  27.384  19.926  1.00  0.00    -0.319 N 
ATOM     60  C   UNL     1      30.170  27.354  21.113  1.00  0.00     0.407 C 
ATOM     61  H   UNL     1      29.821  27.688  19.036  1.00  0.00     0.167 HD
ATOM     62  O   UNL     1      29.660  26.991  22.194  1.00  0.00    -0.225 OA
BRANCH  60  63
ATOM     63  O   UNL     1      31.499  27.721  21.090  1.00  0.00    -0.443 OA
BRANCH  63  64
ATOM     64  C   UNL     1      32.105  28.743  21.821  1.00  0.00     0.294 C 
BRANCH  64  65
ATOM     65  C   UNL     1      31.444  30.038  21.526  1.00  0.00     0.120 A 
ATOM     66  C   UNL     1      31.322  31.118  22.381  1.00  0.00     0.138 A 
ATOM     67  N   UNL     1      30.844  30.434  20.393  1.00  0.00    -0.132 NA
ATOM     68  N   UNL     1      30.660  32.112  21.737  1.00  0.00    -0.249 N 
ATOM     69  N   UNL     1      30.384  31.669  20.537  1.00  0.00    -0.067 NA
BRANCH  68  70
ATOM     70  C   UNL     1      30.396  33.414  22.340  1.00  0.00     0.181 C 
BRANCH  70  71
ATOM     71  C   UNL     1      29.494  34.140  21.345  1.00  0.00     0.170 C 
BRANCH  71  72
ATOM     72  O   UNL     1      28.224  33.625  21.449  1.00  0.00    -0.388 OA
ATOM     73  H   UNL     1      28.174  32.986  22.200  1.00  0.00     0.211 HD
ENDBRANCH  71  72
BRANCH  71  74
ATOM     74  C   UNL     1      29.556  35.620  21.568  1.00  0.00     0.239 C 
BRANCH  74  75
ATOM     75  N   UNL     1      29.751  36.299  20.297  1.00  0.00    -0.227 N 
ATOM     76  C   UNL     1      28.785  37.104  19.748  1.00  0.00     0.204 A 
ATOM     77  C   UNL     1      30.821  36.287  19.502  1.00  0.00     0.434 A 
ATOM     78  C   UNL     1      29.296  37.601  18.570  1.00  0.00     0.245 A 
ATOM     79  N   UNL     1      30.536  37.091  18.440  1.00  0.00    -0.074 NA
BRANCH  77  80
ATOM     80  N   UNL     1      32.025  35.567  19.706  1.00  0.00    -0.047 N 
ATOM     81  O   UNL     1      32.251  34.485  19.078  1.00  0.00    -0.390 OA
ATOM     82  O   UNL     1      33.006  35.962  20.573  1.00  0.00    -0.390 OA
ENDBRANCH  77  80
ENDBRANCH  74  75
ENDBRANCH  71  74
ENDBRANCH  70  71
ENDBRANCH  68  70
ENDBRANCH  64  65
ENDBRANCH  63  64
ENDBRANCH  60  63
ENDBRANCH  58  59
ENDBRANCH  55  58
ENDBRANCH   1  55
TORSDOF 35
BEGIN_RES LYS A 131
REMARK  4 active torsions:
REMARK  status: ('A' for Active; 'I' for Inactive)
REMARK    1  A    between atoms: CA   and  CB  
REMARK    2  A    between atoms: CB   and  CG  
REMARK    3  A    between atoms: CG   and  CD  
REMARK    4  A    between atoms: CD   and  CE  
ROOT
ATOM      1  CA  LYS A 131      29.867  25.555  16.977  1.00 20.52     0.186 C 
ENDROOT
BRANCH   1   2
ATOM      2  CB  LYS A 131      28.345  25.722  17.026  1.00 20.94     0.034 C 
BRANCH   2   3
ATOM      3  CG  LYS A 131      27.599  24.424  16.757  1.00 22.96     0.005 C 
BRANCH   3   4
ATOM      4  CD  LYS A 131      26.915  23.898  17.988  1.00 24.33     0.041 C 
BRANCH   4   5
ATOM      5  CE  LYS A 131      25.557  23.316  17.606  1.00 26.91     0.338 C 
ATOM      6  NZ  LYS A 131      24.729  24.337  16.921  1.00 27.40     0.618 N 
ENDBRANCH   4   5
ENDBRANCH   3   4
ENDBRANCH   2   3
ENDBRANCH   1   2
END_RES LYS A 131
BEGIN_RES LYS A 135
REMARK  4 active torsions:
REMARK  status: ('A' for Active; 'I' for Inactive)
REMARK    5  A    between atoms: CA   and  CB  
REMARK    6  A    between atoms: CB   and  CG  
REMARK    7  A    between atoms: CG   and  CD  
REMARK    8  A    between atoms: CD   and  CE  
ROOT
ATOM      7  CA  LYS A 135      33.193  34.663   9.290  1.00 25.02     0.186 C 
ENDROOT
BRANCH   7   8
ATOM      8  CB  LYS A 135      32.060  35.360  10.034  1.00 26.63     0.034 C 
BRANCH   8   9
ATOM      9  CG  LYS A 135      30.818  35.546   9.202  1.00 29.45     0.005 C 
BRANCH   9  10
ATOM     10  CD  LYS A 135      30.118  34.215   8.977  1.00 32.00     0.041 C 
BRANCH  10  11
ATOM     11  CE  LYS A 135      28.678  34.435   8.553  1.00 34.25     0.338 C 
ATOM     12  NZ  LYS A 135      27.740  33.677   9.427  1.00 35.99     0.618 N 
ENDBRANCH  10  11
ENDBRANCH   9  10
ENDBRANCH   8   9
ENDBRANCH   7   8
END_RES LYS A 135
