REMARK VINA RESULT:    -5.205      3.236      9.032
REMARK INTER + INTRA:         -25.767
REMARK INTER:                 -13.035
REMARK INTRA:                 -12.732
REMARK UNBOUND:                -9.760
REMARK SMILES CC(=O)N[C@@H]1[C@@H](O)C[C@](OC[C@H]2O[C@@H](O[C@H]3[C@H](O)[C@@H](O)[C@H](OCCN=[N+]=[N-])O[C@@H]3CO)[C@H](O)[C@@H](O)[C@H]2O)(C(=O)O)O[C@H]1C(O)[C@H](O)CNC(=O)OCc1cn(CCCCCCCCCCC(=O)O)nn1
REMARK SMILES IDX 51 1 49 2 48 3 50 5 47 6 45 7 43 8 42 9 9 10 8 11 41 12 6 13
REMARK SMILES IDX 5 14 10 15 11 16 12 17 14 18 13 19 32 20 34 21 36 22 15 23
REMARK SMILES IDX 16 24 29 25 28 26 21 27 17 28 19 29 30 30 31 31 22 33 23 34
REMARK SMILES IDX 24 35 25 36 26 37 27 38 18 39 20 41 33 43 35 45 37 47 38 49
REMARK SMILES IDX 39 50 40 51 7 53 4 55 2 56 1 58 3 59 44 60 46 62 52 64 53 65
REMARK SMILES IDX 54 66 70 67 55 68 69 69 56 70 57 71 58 72 59 73 60 74 61 75
REMARK SMILES IDX 62 76 63 77 64 78 65 79 66 80 67 81 68 82
REMARK H PARENT 48 4 31 32 18 40 20 42 33 44 35 46 37 48 40 52 7 54 4 57 44 61
REMARK H PARENT 46 63 68 83
REMARK Flexibility Score: inf
ROOT
ATOM      1  O   UNL     1      23.998  34.852  15.734  1.00  0.00    -0.443 OA
ENDROOT
BRANCH   1   2
ATOM      2  C   UNL     1      23.993  36.190  15.282  1.00  0.00     0.407 C 
ATOM      3  N   UNL     1      23.136  36.598  14.230  1.00  0.00    -0.319 N 
ATOM      4  H   UNL     1      22.509  35.876  13.786  1.00  0.00     0.167 HD
ATOM      5  O   UNL     1      24.741  37.049  15.801  1.00  0.00    -0.225 OA
BRANCH   3   6
ATOM      6  C   UNL     1      23.092  37.945  13.747  1.00  0.00     0.154 C 
BRANCH   6   7
ATOM      7  C   UNL     1      23.046  38.068  12.228  1.00  0.00     0.165 C 
BRANCH   7   8
ATOM      8  C   UNL     1      24.456  38.254  11.788  1.00  0.00     0.176 C 
BRANCH   8   9
ATOM      9  C   UNL     1      24.714  38.115  10.306  1.00  0.00     0.178 C 
ATOM     10  C   UNL     1      23.535  37.901   8.312  1.00  0.00     0.272 C 
ATOM     11  C   UNL     1      24.654  36.991   7.852  1.00  0.00     0.113 C 
ATOM     12  O   UNL     1      23.517  37.866   9.694  1.00  0.00    -0.332 OA
ATOM     13  C   UNL     1      25.277  36.195   8.954  1.00  0.00     0.145 C 
ATOM     14  C   UNL     1      25.817  37.153   9.995  1.00  0.00     0.142 C 
BRANCH  10  15
ATOM     15  O   UNL     1      22.302  37.469   7.797  1.00  0.00    -0.338 OA
BRANCH  15  16
ATOM     16  C   UNL     1      21.341  37.154   8.698  1.00  0.00     0.199 C 
BRANCH  16  17
ATOM     17  C   UNL     1      20.694  35.844   8.202  1.00  0.00     0.179 C 
ATOM     18  C   UNL     1      19.456  34.929   9.999  1.00  0.00     0.282 C 
ATOM     19  O   UNL     1      20.526  34.932   9.168  1.00  0.00    -0.341 OA
ATOM     20  C   UNL     1      18.329  35.775   9.542  1.00  0.00     0.202 C 
ATOM     21  C   UNL     1      18.213  35.664   8.027  1.00  0.00     0.179 C 
ATOM     22  C   UNL     1      19.479  36.157   7.357  1.00  0.00     0.177 C 
BRANCH  18  23
ATOM     23  O   UNL     1      19.944  35.275  11.285  1.00  0.00    -0.341 OA
BRANCH  23  24
ATOM     24  C   UNL     1      20.185  34.089  11.967  1.00  0.00     0.184 C 
ATOM     25  C   UNL     1      19.401  33.909  13.225  1.00  0.00     0.178 C 
ATOM     26  O   UNL     1      19.829  32.809  13.909  1.00  0.00    -0.341 OA
ATOM     27  C   UNL     1      20.702  31.946  13.360  1.00  0.00     0.281 C 
ATOM     28  C   UNL     1      21.666  34.022  12.375  1.00  0.00     0.180 C 
ATOM     29  C   UNL     1      21.928  32.581  12.747  1.00  0.00     0.202 C 
BRANCH  25  30
ATOM     30  C   UNL     1      17.902  33.824  13.001  1.00  0.00     0.191 C 
BRANCH  30  31
ATOM     31  O   UNL     1      17.538  32.934  12.025  1.00  0.00    -0.394 OA
ATOM     32  H   UNL     1      16.773  32.398  12.359  1.00  0.00     0.210 HD
ENDBRANCH  30  31
ENDBRANCH  25  30
BRANCH  27  33
ATOM     33  O   UNL     1      20.076  31.185  12.382  1.00  0.00    -0.350 OA
BRANCH  33  34
ATOM     34  C   UNL     1      19.635  29.957  12.872  1.00  0.00     0.169 C 
BRANCH  34  35
ATOM     35  C   UNL     1      20.765  29.120  13.402  1.00  0.00     0.119 C 
BRANCH  35  36
ATOM     36  N   UNL     1      21.718  28.882  12.317  1.00  0.00    -0.092 NA
ATOM     37  N   UNL     1      22.915  29.228  12.431  1.00  0.00     0.001 N 
ATOM     38  N   UNL     1      24.016  29.685  12.806  1.00  0.00    -0.003 NA
ENDBRANCH  35  36
ENDBRANCH  34  35
ENDBRANCH  33  34
ENDBRANCH  27  33
BRANCH  28  39
ATOM     39  O   UNL     1      22.514  34.403  11.356  1.00  0.00    -0.387 OA
ATOM     40  H   UNL     1      22.087  34.991  10.684  1.00  0.00     0.211 HD
ENDBRANCH  28  39
BRANCH  29  41
ATOM     41  O   UNL     1      22.930  32.577  13.713  1.00  0.00    -0.385 OA
ATOM     42  H   UNL     1      23.287  31.637  13.768  1.00  0.00     0.211 HD
ENDBRANCH  29  41
ENDBRANCH  23  24
ENDBRANCH  18  23
BRANCH  20  43
ATOM     43  O   UNL     1      17.091  35.334  10.028  1.00  0.00    -0.385 OA
ATOM     44  H   UNL     1      16.729  34.719   9.322  1.00  0.00     0.211 HD
ENDBRANCH  20  43
BRANCH  21  45
ATOM     45  O   UNL     1      17.124  36.399   7.562  1.00  0.00    -0.387 OA
ATOM     46  H   UNL     1      17.380  36.743   6.669  1.00  0.00     0.211 HD
ENDBRANCH  21  45
BRANCH  22  47
ATOM     47  O   UNL     1      19.359  37.513   7.175  1.00  0.00    -0.387 OA
ATOM     48  H   UNL     1      19.552  37.964   8.036  1.00  0.00     0.211 HD
ENDBRANCH  22  47
ENDBRANCH  16  17
ENDBRANCH  15  16
ENDBRANCH  10  15
BRANCH  10  49
ATOM     49  C   UNL     1      23.693  39.268   7.810  1.00  0.00     0.364 C 
ATOM     50  O   UNL     1      23.101  40.242   8.303  1.00  0.00    -0.246 OA
BRANCH  49  51
ATOM     51  O   UNL     1      24.532  39.530   6.739  1.00  0.00    -0.477 OA
ATOM     52  H   UNL     1      24.261  40.150   5.972  1.00  0.00     0.296 HD
ENDBRANCH  49  51
ENDBRANCH  10  49
BRANCH  13  53
ATOM     53  O   UNL     1      24.485  35.210   9.500  1.00  0.00    -0.391 OA
ATOM     54  H   UNL     1      24.952  34.650  10.185  1.00  0.00     0.211 HD
ENDBRANCH  13  53
BRANCH  14  55
ATOM     55  N   UNL     1      27.003  37.739   9.463  1.00  0.00    -0.348 N 
ATOM     56  C   UNL     1      28.057  38.280  10.253  1.00  0.00     0.217 C 
ATOM     57  H   UNL     1      27.148  37.795   8.427  1.00  0.00     0.163 HD
ATOM     58  C   UNL     1      29.254  38.870   9.628  1.00  0.00     0.114 C 
ATOM     59  O   UNL     1      27.932  38.237  11.490  1.00  0.00    -0.275 OA
ENDBRANCH  14  55
ENDBRANCH   8   9
BRANCH   8  60
ATOM     60  O   UNL     1      25.275  37.496  12.580  1.00  0.00    -0.388 OA
ATOM     61  H   UNL     1      25.819  36.842  12.113  1.00  0.00     0.211 HD
ENDBRANCH   8  60
ENDBRANCH   7   8
BRANCH   7  62
ATOM     62  O   UNL     1      22.199  39.130  11.933  1.00  0.00    -0.388 OA
ATOM     63  H   UNL     1      22.573  39.725  11.239  1.00  0.00     0.211 HD
ENDBRANCH   7  62
ENDBRANCH   6   7
ENDBRANCH   3   6
ENDBRANCH   1   2
BRANCH   1  64
ATOM     64  C   UNL     1      25.265  34.180  15.720  1.00  0.00     0.294 C 
BRANCH  64  65
ATOM     65  C   UNL     1      25.829  34.342  14.363  1.00  0.00     0.120 A 
ATOM     66  C   UNL     1      27.164  34.570  14.081  1.00  0.00     0.138 A 
ATOM     67  N   UNL     1      25.185  34.294  13.189  1.00  0.00    -0.132 NA
ATOM     68  N   UNL     1      27.260  34.648  12.741  1.00  0.00    -0.252 N 
ATOM     69  N   UNL     1      26.032  34.476  12.215  1.00  0.00    -0.067 NA
BRANCH  68  70
ATOM     70  C   UNL     1      28.422  34.868  11.936  1.00  0.00     0.146 C 
BRANCH  70  71
ATOM     71  C   UNL     1      29.727  34.829  12.650  1.00  0.00     0.024 C 
BRANCH  71  72
ATOM     72  C   UNL     1      30.436  36.128  12.799  1.00  0.00     0.002 C 
BRANCH  72  73
ATOM     73  C   UNL     1      30.784  36.522  14.192  1.00  0.00     0.000 C 
BRANCH  73  74
ATOM     74  C   UNL     1      32.238  36.682  14.475  1.00  0.00     0.000 C 
BRANCH  74  75
ATOM     75  C   UNL     1      32.661  35.737  15.566  1.00  0.00     0.000 C 
BRANCH  75  76
ATOM     76  C   UNL     1      32.567  34.282  15.163  1.00  0.00     0.000 C 
BRANCH  76  77
ATOM     77  C   UNL     1      31.694  33.471  16.063  1.00  0.00     0.001 C 
BRANCH  77  78
ATOM     78  C   UNL     1      31.128  32.232  15.440  1.00  0.00     0.012 C 
BRANCH  78  79
ATOM     79  C   UNL     1      30.390  31.453  16.516  1.00  0.00     0.122 C 
BRANCH  79  80
ATOM     80  C   UNL     1      28.987  31.900  16.552  1.00  0.00     0.303 C 
ATOM     81  O   UNL     1      28.172  31.511  15.691  1.00  0.00    -0.252 OA
BRANCH  80  82
ATOM     82  O   UNL     1      28.529  32.763  17.538  1.00  0.00    -0.481 OA
ATOM     83  H   UNL     1      27.900  33.520  17.337  1.00  0.00     0.296 HD
ENDBRANCH  80  82
ENDBRANCH  79  80
ENDBRANCH  78  79
ENDBRANCH  77  78
ENDBRANCH  76  77
ENDBRANCH  75  76
ENDBRANCH  74  75
ENDBRANCH  73  74
ENDBRANCH  72  73
ENDBRANCH  71  72
ENDBRANCH  70  71
ENDBRANCH  68  70
ENDBRANCH  64  65
ENDBRANCH   1  64
TORSDOF 41
BEGIN_RES LYS A 131
REMARK  4 active torsions:
REMARK  status: ('A' for Active; 'I' for Inactive)
REMARK    1  A    between atoms: CA   and  CB  
REMARK    2  A    between atoms: CB   and  CG  
REMARK    3  A    between atoms: CG   and  CD  
REMARK    4  A    between atoms: CD   and  CE  
ROOT
ATOM      1  CA  LYS A 131      29.867  25.555  16.977  1.00 20.52     0.186 C 
ENDROOT
BRANCH   1   2
ATOM      2  CB  LYS A 131      28.345  25.722  17.026  1.00 20.94     0.034 C 
BRANCH   2   3
ATOM      3  CG  LYS A 131      27.601  24.401  16.907  1.00 22.96     0.005 C 
BRANCH   3   4
ATOM      4  CD  LYS A 131      26.146  24.536  17.259  1.00 24.33     0.041 C 
BRANCH   4   5
ATOM      5  CE  LYS A 131      25.951  25.750  18.161  1.00 26.91     0.338 C 
ATOM      6  NZ  LYS A 131      24.532  26.177  18.158  1.00 27.40     0.618 N 
ENDBRANCH   4   5
ENDBRANCH   3   4
ENDBRANCH   2   3
ENDBRANCH   1   2
END_RES LYS A 131
BEGIN_RES LYS A 135
REMARK  4 active torsions:
REMARK  status: ('A' for Active; 'I' for Inactive)
REMARK    5  A    between atoms: CA   and  CB  
REMARK    6  A    between atoms: CB   and  CG  
REMARK    7  A    between atoms: CG   and  CD  
REMARK    8  A    between atoms: CD   and  CE  
ROOT
ATOM      7  CA  LYS A 135      33.193  34.663   9.290  1.00 25.02     0.186 C 
ENDROOT
BRANCH   7   8
ATOM      8  CB  LYS A 135      32.060  35.360  10.034  1.00 26.63     0.034 C 
BRANCH   8   9
ATOM      9  CG  LYS A 135      30.849  35.624   9.177  1.00 29.45     0.005 C 
BRANCH   9  10
ATOM     10  CD  LYS A 135      30.213  34.317   8.729  1.00 32.00     0.041 C 
BRANCH  10  11
ATOM     11  CE  LYS A 135      28.782  34.546   8.282  1.00 34.25     0.338 C 
ATOM     12  NZ  LYS A 135      28.714  35.582   7.214  1.00 35.99     0.618 N 
ENDBRANCH  10  11
ENDBRANCH   9  10
ENDBRANCH   8   9
ENDBRANCH   7   8
END_RES LYS A 135
