REMARK VINA RESULT:    -5.674      4.278      9.799
REMARK INTER + INTRA:         -24.045
REMARK INTER:                 -14.304
REMARK INTRA:                  -9.742
REMARK UNBOUND:                -9.416
REMARK SMILES CC(=O)N[C@@H]1[C@@H](O)C[C@](OC[C@H]2O[C@@H](O[C@H]3[C@H](O)[C@@H](O)[C@H](OCCN=[N+]=[N-])O[C@@H]3CO)[C@H](O)[C@@H](O)[C@H]2O)(C(=O)O)O[C@H]1C(O)[C@H](O)CNC(=O)OCc1cn(C(C)(C)C(=O)c2c[nH]c3ccccc23)nn1
REMARK SMILES IDX 9 1 8 2 6 3 5 4 42 5 41 6 10 7 11 8 12 9 14 10 13 11 32 12
REMARK SMILES IDX 34 13 36 14 15 15 16 16 29 17 28 18 21 19 17 20 19 21 30 22
REMARK SMILES IDX 31 23 22 25 23 26 24 27 25 28 26 29 27 30 18 31 20 33 33 35
REMARK SMILES IDX 35 37 37 39 38 41 39 42 40 43 7 45 43 47 44 48 45 50 46 51
REMARK SMILES IDX 47 53 48 54 49 55 50 57 51 58 52 59 53 60 54 61 71 62 55 63
REMARK SMILES IDX 70 64 56 65 57 66 58 67 59 68 60 69 61 70 62 71 69 72 63 73
REMARK SMILES IDX 64 74 68 75 65 77 67 78 66 79 4 80 2 81 1 83 3 84
REMARK H PARENT 31 24 18 32 20 34 33 36 35 38 37 40 40 44 7 46 44 49 46 52
REMARK H PARENT 48 56 63 76 4 82
REMARK Flexibility Score: inf
ROOT
ATOM      1  C   UNL     1      23.508  29.316  14.932  1.00  0.00     0.272 C 
ATOM      2  C   UNL     1      23.319  29.199  13.429  1.00  0.00     0.113 C 
ATOM      3  C   UNL     1      23.113  30.547  12.785  1.00  0.00     0.145 C 
ATOM      4  C   UNL     1      21.727  31.110  13.254  1.00  0.00     0.142 C 
ATOM      5  C   UNL     1      21.594  30.668  14.675  1.00  0.00     0.178 C 
ATOM      6  O   UNL     1      22.832  30.495  15.258  1.00  0.00    -0.332 OA
ENDROOT
BRANCH   1   7
ATOM      7  O   UNL     1      24.760  29.304  15.397  1.00  0.00    -0.338 OA
BRANCH   7   8
ATOM      8  C   UNL     1      25.436  29.999  16.248  1.00  0.00     0.199 C 
BRANCH   8   9
ATOM      9  C   UNL     1      26.069  29.194  17.386  1.00  0.00     0.179 C 
ATOM     10  C   UNL     1      27.660  30.759  18.190  1.00  0.00     0.282 C 
ATOM     11  O   UNL     1      27.346  29.581  17.610  1.00  0.00    -0.341 OA
ATOM     12  C   UNL     1      26.815  31.101  19.387  1.00  0.00     0.202 C 
ATOM     13  C   UNL     1      25.954  29.903  19.771  1.00  0.00     0.179 C 
ATOM     14  C   UNL     1      25.215  29.346  18.615  1.00  0.00     0.177 C 
BRANCH  10  15
ATOM     15  O   UNL     1      27.574  31.793  17.274  1.00  0.00    -0.341 OA
BRANCH  15  16
ATOM     16  C   UNL     1      28.760  32.432  17.053  1.00  0.00     0.184 C 
ATOM     17  C   UNL     1      28.747  33.917  17.015  1.00  0.00     0.178 C 
ATOM     18  O   UNL     1      30.077  34.334  17.229  1.00  0.00    -0.341 OA
ATOM     19  C   UNL     1      30.946  33.924  16.259  1.00  0.00     0.281 C 
ATOM     20  C   UNL     1      29.469  31.956  15.801  1.00  0.00     0.180 C 
ATOM     21  C   UNL     1      30.895  32.447  15.934  1.00  0.00     0.202 C 
BRANCH  17  22
ATOM     22  C   UNL     1      27.940  34.568  18.119  1.00  0.00     0.191 C 
BRANCH  22  23
ATOM     23  O   UNL     1      28.441  34.089  19.335  1.00  0.00    -0.394 OA
ATOM     24  H   UNL     1      29.426  34.091  19.369  1.00  0.00     0.210 HD
ENDBRANCH  22  23
ENDBRANCH  17  22
BRANCH  19  25
ATOM     25  O   UNL     1      32.243  34.167  16.721  1.00  0.00    -0.350 OA
BRANCH  25  26
ATOM     26  C   UNL     1      32.263  35.403  17.341  1.00  0.00     0.169 C 
BRANCH  26  27
ATOM     27  C   UNL     1      33.657  35.859  17.675  1.00  0.00     0.119 C 
BRANCH  27  28
ATOM     28  N   UNL     1      34.500  36.034  16.513  1.00  0.00    -0.092 NA
ATOM     29  N   UNL     1      35.741  36.090  16.623  1.00  0.00     0.001 N 
ATOM     30  N   UNL     1      36.893  35.660  16.726  1.00  0.00    -0.003 NA
ENDBRANCH  27  28
ENDBRANCH  26  27
ENDBRANCH  25  26
ENDBRANCH  19  25
BRANCH  20  31
ATOM     31  O   UNL     1      29.459  30.588  15.662  1.00  0.00    -0.387 OA
ATOM     32  H   UNL     1      28.638  30.333  15.188  1.00  0.00     0.211 HD
ENDBRANCH  20  31
BRANCH  21  33
ATOM     33  O   UNL     1      31.519  32.276  14.699  1.00  0.00    -0.385 OA
ATOM     34  H   UNL     1      32.507  32.384  14.763  1.00  0.00     0.211 HD
ENDBRANCH  21  33
ENDBRANCH  15  16
ENDBRANCH  10  15
BRANCH  12  35
ATOM     35  O   UNL     1      27.549  31.545  20.486  1.00  0.00    -0.385 OA
ATOM     36  H   UNL     1      27.212  32.420  20.770  1.00  0.00     0.211 HD
ENDBRANCH  12  35
BRANCH  13  37
ATOM     37  O   UNL     1      25.068  30.396  20.758  1.00  0.00    -0.387 OA
ATOM     38  H   UNL     1      25.170  29.895  21.604  1.00  0.00     0.211 HD
ENDBRANCH  13  37
BRANCH  14  39
ATOM     39  O   UNL     1      24.134  30.193  18.262  1.00  0.00    -0.387 OA
ATOM     40  H   UNL     1      24.096  30.955  18.898  1.00  0.00     0.211 HD
ENDBRANCH  14  39
ENDBRANCH   8   9
ENDBRANCH   7   8
ENDBRANCH   1   7
BRANCH   1  41
ATOM     41  C   UNL     1      22.813  28.171  15.559  1.00  0.00     0.364 C 
ATOM     42  O   UNL     1      22.521  27.177  14.846  1.00  0.00    -0.246 OA
BRANCH  41  43
ATOM     43  O   UNL     1      22.460  28.123  16.870  1.00  0.00    -0.477 OA
ATOM     44  H   UNL     1      22.797  27.468  17.572  1.00  0.00     0.296 HD
ENDBRANCH  41  43
ENDBRANCH   1  41
BRANCH   3  45
ATOM     45  O   UNL     1      24.000  31.529  13.161  1.00  0.00    -0.391 OA
ATOM     46  H   UNL     1      24.634  31.239  13.876  1.00  0.00     0.211 HD
ENDBRANCH   3  45
BRANCH   5  47
ATOM     47  C   UNL     1      20.810  31.533  15.592  1.00  0.00     0.176 C 
BRANCH  47  48
ATOM     48  O   UNL     1      19.475  31.203  15.656  1.00  0.00    -0.388 OA
ATOM     49  H   UNL     1      19.147  30.957  16.566  1.00  0.00     0.211 HD
ENDBRANCH  47  48
BRANCH  47  50
ATOM     50  C   UNL     1      21.435  31.851  16.932  1.00  0.00     0.165 C 
BRANCH  50  51
ATOM     51  O   UNL     1      20.672  31.477  17.990  1.00  0.00    -0.388 OA
ATOM     52  H   UNL     1      19.899  32.044  18.123  1.00  0.00     0.211 HD
ENDBRANCH  50  51
BRANCH  50  53
ATOM     53  C   UNL     1      21.918  33.264  16.902  1.00  0.00     0.154 C 
BRANCH  53  54
ATOM     54  N   UNL     1      23.041  33.555  16.094  1.00  0.00    -0.319 N 
ATOM     55  C   UNL     1      24.402  33.465  16.550  1.00  0.00     0.407 C 
ATOM     56  H   UNL     1      22.911  33.863  15.083  1.00  0.00     0.167 HD
ATOM     57  O   UNL     1      24.678  33.135  17.722  1.00  0.00    -0.225 OA
BRANCH  55  58
ATOM     58  O   UNL     1      25.454  33.743  15.698  1.00  0.00    -0.443 OA
BRANCH  58  59
ATOM     59  C   UNL     1      25.652  35.013  15.147  1.00  0.00     0.294 C 
BRANCH  59  60
ATOM     60  C   UNL     1      25.161  34.988  13.734  1.00  0.00     0.120 A 
ATOM     61  C   UNL     1      24.404  36.004  13.122  1.00  0.00     0.139 A 
ATOM     62  N   UNL     1      25.284  34.055  12.781  1.00  0.00    -0.132 NA
ATOM     63  N   UNL     1      24.110  35.650  11.864  1.00  0.00    -0.239 N 
ATOM     64  N   UNL     1      24.649  34.470  11.670  1.00  0.00    -0.066 NA
BRANCH  63  65
ATOM     65  C   UNL     1      23.345  36.452  10.932  1.00  0.00     0.122 C 
ATOM     66  C   UNL     1      23.845  37.927  11.115  1.00  0.00     0.046 C 
ATOM     67  C   UNL     1      21.876  36.538  11.273  1.00  0.00     0.046 C 
BRANCH  65  68
ATOM     68  C   UNL     1      23.608  36.096   9.551  1.00  0.00     0.192 C 
ATOM     69  O   UNL     1      22.754  35.245   9.046  1.00  0.00    -0.291 OA
BRANCH  68  70
ATOM     70  C   UNL     1      24.639  36.516   8.653  1.00  0.00     0.045 A 
ATOM     71  C   UNL     1      24.549  37.660   7.850  1.00  0.00     0.095 A 
ATOM     72  C   UNL     1      25.857  35.934   8.365  1.00  0.00     0.010 A 
ATOM     73  N   UNL     1      25.652  37.740   7.132  1.00  0.00    -0.360 N 
ATOM     74  C   UNL     1      26.478  36.728   7.397  1.00  0.00     0.046 A 
ATOM     75  C   UNL     1      26.523  34.821   8.800  1.00  0.00     0.011 A 
ATOM     76  H   UNL     1      25.830  38.522   6.439  1.00  0.00     0.166 HD
ATOM     77  C   UNL     1      27.726  36.404   6.895  1.00  0.00     0.027 A 
ATOM     78  C   UNL     1      27.780  34.498   8.290  1.00  0.00     0.001 A 
ATOM     79  C   UNL     1      28.368  35.288   7.347  1.00  0.00     0.002 A 
ENDBRANCH  68  70
ENDBRANCH  65  68
ENDBRANCH  63  65
ENDBRANCH  59  60
ENDBRANCH  58  59
ENDBRANCH  55  58
ENDBRANCH  53  54
ENDBRANCH  50  53
ENDBRANCH  47  50
ENDBRANCH   5  47
BRANCH   4  80
ATOM     80  N   UNL     1      20.789  30.392  12.397  1.00  0.00    -0.348 N 
ATOM     81  C   UNL     1      19.472  30.835  12.117  1.00  0.00     0.217 C 
ATOM     82  H   UNL     1      21.099  29.484  11.956  1.00  0.00     0.163 HD
ATOM     83  C   UNL     1      18.518  30.098  11.247  1.00  0.00     0.114 C 
ATOM     84  O   UNL     1      19.118  31.936  12.663  1.00  0.00    -0.275 OA
ENDBRANCH   4  80
TORSDOF 32
BEGIN_RES LYS A 131
REMARK  4 active torsions:
REMARK  status: ('A' for Active; 'I' for Inactive)
REMARK    1  A    between atoms: CA   and  CB  
REMARK    2  A    between atoms: CB   and  CG  
REMARK    3  A    between atoms: CG   and  CD  
REMARK    4  A    between atoms: CD   and  CE  
ROOT
ATOM      1  CA  LYS A 131      29.867  25.555  16.977  1.00 20.52     0.186 C 
ENDROOT
BRANCH   1   2
ATOM      2  CB  LYS A 131      28.345  25.722  17.026  1.00 20.94     0.034 C 
BRANCH   2   3
ATOM      3  CG  LYS A 131      27.602  24.399  16.926  1.00 22.96     0.005 C 
BRANCH   3   4
ATOM      4  CD  LYS A 131      26.159  24.528  17.327  1.00 24.33     0.041 C 
BRANCH   4   5
ATOM      5  CE  LYS A 131      25.907  23.712  18.591  1.00 26.91     0.338 C 
ATOM      6  NZ  LYS A 131      24.535  23.953  19.099  1.00 27.40     0.618 N 
ENDBRANCH   4   5
ENDBRANCH   3   4
ENDBRANCH   2   3
ENDBRANCH   1   2
END_RES LYS A 131
BEGIN_RES LYS A 135
REMARK  4 active torsions:
REMARK  status: ('A' for Active; 'I' for Inactive)
REMARK    5  A    between atoms: CA   and  CB  
REMARK    6  A    between atoms: CB   and  CG  
REMARK    7  A    between atoms: CG   and  CD  
REMARK    8  A    between atoms: CD   and  CE  
ROOT
ATOM      7  CA  LYS A 135      33.193  34.663   9.290  1.00 25.02     0.186 C 
ENDROOT
BRANCH   7   8
ATOM      8  CB  LYS A 135      32.060  35.360  10.034  1.00 26.63     0.034 C 
BRANCH   8   9
ATOM      9  CG  LYS A 135      30.809  34.526  10.145  1.00 29.45     0.005 C 
BRANCH   9  10
ATOM     10  CD  LYS A 135      29.829  35.157  11.121  1.00 32.00     0.041 C 
BRANCH  10  11
ATOM     11  CE  LYS A 135      30.141  34.728  12.542  1.00 34.25     0.338 C 
ATOM     12  NZ  LYS A 135      28.895  34.572  13.342  1.00 35.99     0.618 N 
ENDBRANCH  10  11
ENDBRANCH   9  10
ENDBRANCH   8   9
ENDBRANCH   7   8
END_RES LYS A 135
