REMARK VINA RESULT:    -4.741      3.195      8.928
REMARK INTER + INTRA:         -21.383
REMARK INTER:                 -11.671
REMARK INTRA:                  -9.712
REMARK UNBOUND:                -9.712
REMARK SMILES CC(=O)N[C@@H]1[C@@H](O)C[C@](OC[C@H]2O[C@@H](O[C@H]3[C@H](O)[C@@H](O)[C@H](OCCN=[N+]=[N-])O[C@@H]3CO)[C@H](O)[C@@H](O)[C@H]2O)(C(=O)O)O[C@H]1C(O)[C@H](O)CNC(=O)OCc1cn(C2CCCCC2)nn1
REMARK SMILES IDX 9 1 8 2 6 3 5 4 42 5 41 6 10 7 11 8 12 9 14 10 13 11 32 12
REMARK SMILES IDX 34 13 36 14 15 15 16 16 29 17 28 18 21 19 17 20 19 21 30 22
REMARK SMILES IDX 31 23 22 25 23 26 24 27 25 28 26 29 27 30 18 31 20 33 33 35
REMARK SMILES IDX 35 37 37 39 38 41 39 42 40 43 7 45 43 47 44 48 45 50 46 51
REMARK SMILES IDX 47 53 48 54 49 55 50 57 51 58 52 59 53 60 54 61 63 62 55 63
REMARK SMILES IDX 62 64 56 65 57 66 61 67 58 68 60 69 59 70 4 71 2 72 1 74
REMARK SMILES IDX 3 75
REMARK H PARENT 31 24 18 32 20 34 33 36 35 38 37 40 40 44 7 46 44 49 46 52
REMARK H PARENT 48 56 4 73
REMARK Flexibility Score: inf
ROOT
ATOM      1  C   UNL     1      26.870  38.938   8.008  1.00  0.00     0.272 C 
ATOM      2  C   UNL     1      26.748  40.501   8.145  1.00  0.00     0.113 C 
ATOM      3  C   UNL     1      25.525  40.834   8.941  1.00  0.00     0.145 C 
ATOM      4  C   UNL     1      24.295  40.221   8.326  1.00  0.00     0.142 C 
ATOM      5  C   UNL     1      24.524  38.862   7.763  1.00  0.00     0.178 C 
ATOM      6  O   UNL     1      25.737  38.410   7.514  1.00  0.00    -0.332 OA
ENDROOT
BRANCH   1   7
ATOM      7  O   UNL     1      27.149  38.550   9.244  1.00  0.00    -0.338 OA
BRANCH   7   8
ATOM      8  C   UNL     1      27.670  37.498   9.778  1.00  0.00     0.199 C 
BRANCH   8   9
ATOM      9  C   UNL     1      26.915  36.614  10.757  1.00  0.00     0.179 C 
ATOM     10  C   UNL     1      27.914  35.665  12.655  1.00  0.00     0.282 C 
ATOM     11  O   UNL     1      27.689  35.630  11.283  1.00  0.00    -0.341 OA
ATOM     12  C   UNL     1      26.619  35.731  13.371  1.00  0.00     0.202 C 
ATOM     13  C   UNL     1      25.694  36.811  12.865  1.00  0.00     0.179 C 
ATOM     14  C   UNL     1      26.364  37.586  11.796  1.00  0.00     0.177 C 
BRANCH  10  15
ATOM     15  O   UNL     1      28.853  36.601  12.890  1.00  0.00    -0.341 OA
BRANCH  15  16
ATOM     16  C   UNL     1      30.042  36.257  13.445  1.00  0.00     0.184 C 
ATOM     17  C   UNL     1      30.914  37.495  13.483  1.00  0.00     0.178 C 
ATOM     18  O   UNL     1      32.030  37.331  14.280  1.00  0.00    -0.341 OA
ATOM     19  C   UNL     1      32.453  36.034  14.409  1.00  0.00     0.281 C 
ATOM     20  C   UNL     1      30.832  35.249  12.636  1.00  0.00     0.180 C 
ATOM     21  C   UNL     1      32.245  35.245  13.170  1.00  0.00     0.202 C 
BRANCH  17  22
ATOM     22  C   UNL     1      30.156  38.756  13.785  1.00  0.00     0.191 C 
BRANCH  22  23
ATOM     23  O   UNL     1      31.091  39.748  14.080  1.00  0.00    -0.394 OA
ATOM     24  H   UNL     1      31.973  39.560  13.680  1.00  0.00     0.210 HD
ENDBRANCH  22  23
ENDBRANCH  17  22
BRANCH  19  25
ATOM     25  O   UNL     1      31.950  35.501  15.566  1.00  0.00    -0.350 OA
BRANCH  25  26
ATOM     26  C   UNL     1      32.274  34.170  15.774  1.00  0.00     0.169 C 
BRANCH  26  27
ATOM     27  C   UNL     1      31.123  33.332  16.262  1.00  0.00     0.119 C 
BRANCH  27  28
ATOM     28  N   UNL     1      30.758  32.406  15.209  1.00  0.00    -0.092 NA
ATOM     29  N   UNL     1      29.718  31.758  15.388  1.00  0.00     0.001 N 
ATOM     30  N   UNL     1      29.070  30.729  15.653  1.00  0.00    -0.003 NA
ENDBRANCH  27  28
ENDBRANCH  26  27
ENDBRANCH  25  26
ENDBRANCH  19  25
BRANCH  20  31
ATOM     31  O   UNL     1      30.336  33.970  12.709  1.00  0.00    -0.387 OA
ATOM     32  H   UNL     1      30.293  33.619  13.632  1.00  0.00     0.211 HD
ENDBRANCH  20  31
BRANCH  21  33
ATOM     33  O   UNL     1      33.041  35.847  12.164  1.00  0.00    -0.385 OA
ATOM     34  H   UNL     1      33.031  36.830  12.258  1.00  0.00     0.211 HD
ENDBRANCH  21  33
ENDBRANCH  15  16
ENDBRANCH  10  15
BRANCH  12  35
ATOM     35  O   UNL     1      25.961  34.502  13.102  1.00  0.00    -0.385 OA
ATOM     36  H   UNL     1      26.163  33.827  13.787  1.00  0.00     0.211 HD
ENDBRANCH  12  35
BRANCH  13  37
ATOM     37  O   UNL     1      25.304  37.672  13.910  1.00  0.00    -0.387 OA
ATOM     38  H   UNL     1      25.394  38.589  13.605  1.00  0.00     0.211 HD
ENDBRANCH  13  37
BRANCH  14  39
ATOM     39  O   UNL     1      27.261  38.541  12.188  1.00  0.00    -0.387 OA
ATOM     40  H   UNL     1      27.535  38.344  13.115  1.00  0.00     0.211 HD
ENDBRANCH  14  39
ENDBRANCH   8   9
ENDBRANCH   7   8
ENDBRANCH   1   7
BRANCH   1  41
ATOM     41  C   UNL     1      27.931  38.787   6.952  1.00  0.00     0.364 C 
ATOM     42  O   UNL     1      27.751  38.283   5.849  1.00  0.00    -0.246 OA
BRANCH  41  43
ATOM     43  O   UNL     1      29.237  39.246   7.213  1.00  0.00    -0.477 OA
ATOM     44  H   UNL     1      29.382  40.115   7.702  1.00  0.00     0.296 HD
ENDBRANCH  41  43
ENDBRANCH   1  41
BRANCH   3  45
ATOM     45  O   UNL     1      25.673  40.486  10.278  1.00  0.00    -0.391 OA
ATOM     46  H   UNL     1      26.465  39.879  10.345  1.00  0.00     0.211 HD
ENDBRANCH   3  45
BRANCH   5  47
ATOM     47  C   UNL     1      23.818  37.795   8.654  1.00  0.00     0.176 C 
BRANCH  47  48
ATOM     48  O   UNL     1      23.360  38.428   9.826  1.00  0.00    -0.388 OA
ATOM     49  H   UNL     1      23.725  39.330   9.917  1.00  0.00     0.211 HD
ENDBRANCH  47  48
BRANCH  47  50
ATOM     50  C   UNL     1      22.719  37.104   7.923  1.00  0.00     0.165 C 
BRANCH  50  51
ATOM     51  O   UNL     1      21.611  37.983   7.941  1.00  0.00    -0.388 OA
ATOM     52  H   UNL     1      20.956  37.725   8.619  1.00  0.00     0.211 HD
ENDBRANCH  50  51
BRANCH  50  53
ATOM     53  C   UNL     1      22.245  35.814   8.482  1.00  0.00     0.154 C 
BRANCH  53  54
ATOM     54  N   UNL     1      22.174  35.740   9.917  1.00  0.00    -0.319 N 
ATOM     55  C   UNL     1      20.997  36.039  10.655  1.00  0.00     0.407 C 
ATOM     56  H   UNL     1      23.015  35.452  10.447  1.00  0.00     0.167 HD
ATOM     57  O   UNL     1      19.950  36.388  10.055  1.00  0.00    -0.225 OA
BRANCH  55  58
ATOM     58  O   UNL     1      20.958  35.962  12.020  1.00  0.00    -0.443 OA
BRANCH  58  59
ATOM     59  C   UNL     1      21.953  36.389  12.918  1.00  0.00     0.294 C 
BRANCH  59  60
ATOM     60  C   UNL     1      22.505  35.208  13.617  1.00  0.00     0.120 A 
ATOM     61  C   UNL     1      22.223  33.925  13.244  1.00  0.00     0.138 A 
ATOM     62  N   UNL     1      23.321  35.142  14.675  1.00  0.00    -0.132 NA
ATOM     63  N   UNL     1      22.875  33.087  14.082  1.00  0.00    -0.249 N 
ATOM     64  N   UNL     1      23.535  33.857  14.944  1.00  0.00    -0.067 NA
BRANCH  63  65
ATOM     65  C   UNL     1      22.843  31.638  14.037  1.00  0.00     0.109 C 
ATOM     66  C   UNL     1      23.924  31.232  13.040  1.00  0.00     0.027 C 
ATOM     67  C   UNL     1      21.508  31.156  13.513  1.00  0.00     0.027 C 
ATOM     68  C   UNL     1      24.017  29.707  13.003  1.00  0.00     0.002 C 
ATOM     69  C   UNL     1      21.653  30.188  12.357  1.00  0.00     0.002 C 
ATOM     70  C   UNL     1      22.674  29.138  12.675  1.00  0.00     0.000 C 
ENDBRANCH  63  65
ENDBRANCH  59  60
ENDBRANCH  58  59
ENDBRANCH  55  58
ENDBRANCH  53  54
ENDBRANCH  50  53
ENDBRANCH  47  50
ENDBRANCH   5  47
BRANCH   4  71
ATOM     71  N   UNL     1      23.637  41.128   7.423  1.00  0.00    -0.348 N 
ATOM     72  C   UNL     1      22.255  41.381   7.411  1.00  0.00     0.217 C 
ATOM     73  H   UNL     1      24.192  41.675   6.688  1.00  0.00     0.163 HD
ATOM     74  C   UNL     1      21.635  42.354   6.448  1.00  0.00     0.114 C 
ATOM     75  O   UNL     1      21.489  40.817   8.191  1.00  0.00    -0.275 OA
ENDBRANCH   4  71
TORSDOF 30
BEGIN_RES LYS A 131
REMARK  4 active torsions:
REMARK  status: ('A' for Active; 'I' for Inactive)
REMARK    1  A    between atoms: CA   and  CB  
REMARK    2  A    between atoms: CB   and  CG  
REMARK    3  A    between atoms: CG   and  CD  
REMARK    4  A    between atoms: CD   and  CE  
ROOT
ATOM      1  CA  LYS A 131      29.867  25.555  16.977  1.00 20.52     0.186 C 
ENDROOT
BRANCH   1   2
ATOM      2  CB  LYS A 131      28.345  25.722  17.026  1.00 20.94     0.034 C 
BRANCH   2   3
ATOM      3  CG  LYS A 131      27.601  24.404  16.878  1.00 22.96     0.005 C 
BRANCH   3   4
ATOM      4  CD  LYS A 131      26.146  24.532  17.233  1.00 24.33     0.041 C 
BRANCH   4   5
ATOM      5  CE  LYS A 131      25.589  23.160  17.601  1.00 26.91     0.338 C 
ATOM      6  NZ  LYS A 131      24.109  23.163  17.524  1.00 27.40     0.618 N 
ENDBRANCH   4   5
ENDBRANCH   3   4
ENDBRANCH   2   3
ENDBRANCH   1   2
END_RES LYS A 131
BEGIN_RES LYS A 135
REMARK  4 active torsions:
REMARK  status: ('A' for Active; 'I' for Inactive)
REMARK    5  A    between atoms: CA   and  CB  
REMARK    6  A    between atoms: CB   and  CG  
REMARK    7  A    between atoms: CG   and  CD  
REMARK    8  A    between atoms: CD   and  CE  
ROOT
ATOM      7  CA  LYS A 135      33.193  34.663   9.290  1.00 25.02     0.186 C 
ENDROOT
BRANCH   7   8
ATOM      8  CB  LYS A 135      32.060  35.360  10.034  1.00 26.63     0.034 C 
BRANCH   8   9
ATOM      9  CG  LYS A 135      30.831  35.580   9.190  1.00 29.45     0.005 C 
BRANCH   9  10
ATOM     10  CD  LYS A 135      30.090  34.270   8.970  1.00 32.00     0.041 C 
BRANCH  10  11
ATOM     11  CE  LYS A 135      28.808  34.507   8.196  1.00 34.25     0.338 C 
ATOM     12  NZ  LYS A 135      29.055  35.353   6.995  1.00 35.99     0.618 N 
ENDBRANCH  10  11
ENDBRANCH   9  10
ENDBRANCH   8   9
ENDBRANCH   7   8
END_RES LYS A 135
