REMARK VINA RESULT:    -4.625      3.369      6.029
REMARK INTER + INTRA:         -22.306
REMARK INTER:                  -9.094
REMARK INTRA:                 -13.212
REMARK UNBOUND:               -10.516
REMARK SMILES CC(=O)N[C@@H]1[C@@H](O)C[C@](OC[C@H]2O[C@@H](O[C@H]3[C@H](O)[C@@H](O)[C@H](OCCN=[N+]=[N-])O[C@@H]3CO)[C@H](O)[C@@H](O)[C@H]2O)(C(=O)O)O[C@H]1C(O)[C@H](O)CNC(=O)OCc1cn(C(C)(C)C(=O)O)nn1
REMARK SMILES IDX 9 1 8 2 6 3 5 4 42 5 41 6 10 7 11 8 12 9 14 10 13 11 32 12
REMARK SMILES IDX 34 13 36 14 15 15 16 16 29 17 28 18 21 19 17 20 19 21 30 22
REMARK SMILES IDX 31 23 22 25 23 26 24 27 25 28 26 29 27 30 18 31 20 33 33 35
REMARK SMILES IDX 35 37 37 39 38 41 39 42 40 43 7 45 43 47 44 48 45 50 46 51
REMARK SMILES IDX 47 53 48 54 49 55 50 57 51 58 52 59 53 60 54 61 63 62 55 63
REMARK SMILES IDX 62 64 56 65 57 66 58 67 59 68 60 69 61 70 4 72 2 73 1 75
REMARK SMILES IDX 3 76
REMARK H PARENT 31 24 18 32 20 34 33 36 35 38 37 40 40 44 7 46 44 49 46 52
REMARK H PARENT 48 56 61 71 4 74
REMARK Flexibility Score: inf
ROOT
ATOM      1  C   UNL     1      23.655  37.723   8.324  1.00  0.00     0.272 C 
ATOM      2  C   UNL     1      23.550  38.666   7.198  1.00  0.00     0.113 C 
ATOM      3  C   UNL     1      24.506  39.824   7.243  1.00  0.00     0.145 C 
ATOM      4  C   UNL     1      24.892  40.115   8.662  1.00  0.00     0.142 C 
ATOM      5  C   UNL     1      23.681  39.691   9.513  1.00  0.00     0.178 C 
ATOM      6  O   UNL     1      23.707  38.317   9.590  1.00  0.00    -0.332 OA
ENDROOT
BRANCH   1   7
ATOM      7  O   UNL     1      24.689  36.842   8.240  1.00  0.00    -0.338 OA
BRANCH   7   8
ATOM      8  C   UNL     1      24.587  35.653   8.890  1.00  0.00     0.199 C 
BRANCH   8   9
ATOM      9  C   UNL     1      25.799  35.389   9.755  1.00  0.00     0.179 C 
ATOM     10  C   UNL     1      28.071  35.793   9.826  1.00  0.00     0.282 C 
ATOM     11  O   UNL     1      26.815  36.190   9.238  1.00  0.00    -0.341 OA
ATOM     12  C   UNL     1      28.019  36.228  11.241  1.00  0.00     0.202 C 
ATOM     13  C   UNL     1      26.625  36.706  11.643  1.00  0.00     0.179 C 
ATOM     14  C   UNL     1      25.556  35.728  11.178  1.00  0.00     0.177 C 
BRANCH  10  15
ATOM     15  O   UNL     1      28.998  36.355   9.002  1.00  0.00    -0.341 OA
BRANCH  15  16
ATOM     16  C   UNL     1      28.536  37.402   8.223  1.00  0.00     0.184 C 
ATOM     17  C   UNL     1      28.915  37.171   6.793  1.00  0.00     0.178 C 
ATOM     18  O   UNL     1      28.920  38.370   6.063  1.00  0.00    -0.341 OA
ATOM     19  C   UNL     1      30.001  39.181   6.374  1.00  0.00     0.281 C 
ATOM     20  C   UNL     1      29.184  38.716   8.658  1.00  0.00     0.180 C 
ATOM     21  C   UNL     1      30.407  38.984   7.819  1.00  0.00     0.202 C 
BRANCH  17  22
ATOM     22  C   UNL     1      27.880  36.291   6.071  1.00  0.00     0.191 C 
BRANCH  22  23
ATOM     23  O   UNL     1      26.644  36.881   6.247  1.00  0.00    -0.394 OA
ATOM     24  H   UNL     1      26.380  37.323   5.386  1.00  0.00     0.210 HD
ENDBRANCH  22  23
ENDBRANCH  17  22
BRANCH  19  25
ATOM     25  O   UNL     1      29.585  40.491   6.140  1.00  0.00    -0.350 OA
BRANCH  25  26
ATOM     26  C   UNL     1      30.051  41.045   4.976  1.00  0.00     0.169 C 
BRANCH  26  27
ATOM     27  C   UNL     1      28.854  41.764   4.337  1.00  0.00     0.119 C 
BRANCH  27  28
ATOM     28  N   UNL     1      27.852  40.837   3.864  1.00  0.00    -0.092 NA
ATOM     29  N   UNL     1      26.664  41.193   3.893  1.00  0.00     0.001 N 
ATOM     30  N   UNL     1      25.500  41.465   4.155  1.00  0.00    -0.003 NA
ENDBRANCH  27  28
ENDBRANCH  26  27
ENDBRANCH  25  26
ENDBRANCH  19  25
BRANCH  20  31
ATOM     31  O   UNL     1      28.288  39.761   8.452  1.00  0.00    -0.387 OA
ATOM     32  H   UNL     1      28.701  40.546   8.015  1.00  0.00     0.211 HD
ENDBRANCH  20  31
BRANCH  21  33
ATOM     33  O   UNL     1      31.278  37.912   7.969  1.00  0.00    -0.385 OA
ATOM     34  H   UNL     1      32.196  38.180   8.213  1.00  0.00     0.211 HD
ENDBRANCH  21  33
ENDBRANCH  15  16
ENDBRANCH  10  15
BRANCH  12  35
ATOM     35  O   UNL     1      28.252  35.099  12.058  1.00  0.00    -0.385 OA
ATOM     36  H   UNL     1      27.525  34.893  12.664  1.00  0.00     0.211 HD
ENDBRANCH  12  35
BRANCH  13  37
ATOM     37  O   UNL     1      26.395  37.980  11.161  1.00  0.00    -0.387 OA
ATOM     38  H   UNL     1      27.250  38.424  10.926  1.00  0.00     0.211 HD
ENDBRANCH  13  37
BRANCH  14  39
ATOM     39  O   UNL     1      24.334  36.359  11.345  1.00  0.00    -0.387 OA
ATOM     40  H   UNL     1      24.047  36.218  12.292  1.00  0.00     0.211 HD
ENDBRANCH  14  39
ENDBRANCH   8   9
ENDBRANCH   7   8
ENDBRANCH   1   7
BRANCH   1  41
ATOM     41  C   UNL     1      22.329  36.954   8.372  1.00  0.00     0.364 C 
ATOM     42  O   UNL     1      21.800  36.681   9.471  1.00  0.00    -0.246 OA
BRANCH  41  43
ATOM     43  O   UNL     1      21.696  36.550   7.213  1.00  0.00    -0.477 OA
ATOM     44  H   UNL     1      21.843  36.976   6.312  1.00  0.00     0.296 HD
ENDBRANCH  41  43
ENDBRANCH   1  41
BRANCH   3  45
ATOM     45  O   UNL     1      25.638  39.506   6.522  1.00  0.00    -0.391 OA
ATOM     46  H   UNL     1      25.747  40.072   5.714  1.00  0.00     0.211 HD
ENDBRANCH   3  45
BRANCH   5  47
ATOM     47  C   UNL     1      23.728  40.306  10.883  1.00  0.00     0.176 C 
BRANCH  47  48
ATOM     48  O   UNL     1      22.942  41.455  10.904  1.00  0.00    -0.388 OA
ATOM     49  H   UNL     1      22.606  41.638  11.831  1.00  0.00     0.211 HD
ENDBRANCH  47  48
BRANCH  47  50
ATOM     50  C   UNL     1      23.170  39.339  11.901  1.00  0.00     0.165 C 
BRANCH  50  51
ATOM     51  O   UNL     1      21.769  39.351  11.888  1.00  0.00    -0.388 OA
ATOM     52  H   UNL     1      21.453  38.439  12.077  1.00  0.00     0.211 HD
ENDBRANCH  50  51
BRANCH  50  53
ATOM     53  C   UNL     1      23.633  39.632  13.303  1.00  0.00     0.154 C 
BRANCH  53  54
ATOM     54  N   UNL     1      25.015  40.045  13.329  1.00  0.00    -0.319 N 
ATOM     55  C   UNL     1      25.830  39.839  14.468  1.00  0.00     0.407 C 
ATOM     56  H   UNL     1      25.436  40.507  12.499  1.00  0.00     0.167 HD
ATOM     57  O   UNL     1      25.395  39.286  15.510  1.00  0.00    -0.225 OA
BRANCH  55  58
ATOM     58  O   UNL     1      27.172  40.248  14.483  1.00  0.00    -0.443 OA
BRANCH  58  59
ATOM     59  C   UNL     1      28.103  39.583  13.623  1.00  0.00     0.294 C 
BRANCH  59  60
ATOM     60  C   UNL     1      28.469  40.425  12.485  1.00  0.00     0.120 A 
ATOM     61  C   UNL     1      29.693  40.995  12.251  1.00  0.00     0.139 A 
ATOM     62  N   UNL     1      27.670  40.785  11.476  1.00  0.00    -0.132 NA
ATOM     63  N   UNL     1      29.620  41.694  11.102  1.00  0.00    -0.235 N 
ATOM     64  N   UNL     1      28.366  41.536  10.665  1.00  0.00    -0.066 NA
BRANCH  63  65
ATOM     65  C   UNL     1      30.640  42.471  10.429  1.00  0.00     0.155 C 
ATOM     66  C   UNL     1      31.775  41.587  10.006  1.00  0.00     0.049 C 
ATOM     67  C   UNL     1      31.200  43.544  11.357  1.00  0.00     0.049 C 
BRANCH  65  68
ATOM     68  C   UNL     1      30.006  43.156   9.280  1.00  0.00     0.331 C 
ATOM     69  O   UNL     1      29.842  44.385   9.321  1.00  0.00    -0.250 OA
BRANCH  68  70
ATOM     70  O   UNL     1      29.611  42.406   8.187  1.00  0.00    -0.479 OA
ATOM     71  H   UNL     1      30.236  42.183   7.420  1.00  0.00     0.296 HD
ENDBRANCH  68  70
ENDBRANCH  65  68
ENDBRANCH  63  65
ENDBRANCH  59  60
ENDBRANCH  58  59
ENDBRANCH  55  58
ENDBRANCH  53  54
ENDBRANCH  50  53
ENDBRANCH  47  50
ENDBRANCH   5  47
BRANCH   4  72
ATOM     72  N   UNL     1      25.078  41.521   8.911  1.00  0.00    -0.348 N 
ATOM     73  C   UNL     1      26.055  42.325   8.258  1.00  0.00     0.217 C 
ATOM     74  H   UNL     1      24.462  41.982   9.609  1.00  0.00     0.163 HD
ATOM     75  C   UNL     1      26.183  43.780   8.577  1.00  0.00     0.114 C 
ATOM     76  O   UNL     1      26.815  41.797   7.404  1.00  0.00    -0.275 OA
ENDBRANCH   4  72
TORSDOF 32
BEGIN_RES LYS A 131
REMARK  4 active torsions:
REMARK  status: ('A' for Active; 'I' for Inactive)
REMARK    1  A    between atoms: CA   and  CB  
REMARK    2  A    between atoms: CB   and  CG  
REMARK    3  A    between atoms: CG   and  CD  
REMARK    4  A    between atoms: CD   and  CE  
ROOT
ATOM      1  CA  LYS A 131      29.867  25.555  16.977  1.00 20.52     0.186 C 
ENDROOT
BRANCH   1   2
ATOM      2  CB  LYS A 131      28.345  25.722  17.026  1.00 20.94     0.034 C 
BRANCH   2   3
ATOM      3  CG  LYS A 131      27.602  24.400  16.912  1.00 22.96     0.005 C 
BRANCH   3   4
ATOM      4  CD  LYS A 131      26.155  24.528  17.303  1.00 24.33     0.041 C 
BRANCH   4   5
ATOM      5  CE  LYS A 131      25.796  23.425  18.293  1.00 26.91     0.338 C 
ATOM      6  NZ  LYS A 131      24.942  22.403  17.642  1.00 27.40     0.618 N 
ENDBRANCH   4   5
ENDBRANCH   3   4
ENDBRANCH   2   3
ENDBRANCH   1   2
END_RES LYS A 131
BEGIN_RES LYS A 135
REMARK  4 active torsions:
REMARK  status: ('A' for Active; 'I' for Inactive)
REMARK    5  A    between atoms: CA   and  CB  
REMARK    6  A    between atoms: CB   and  CG  
REMARK    7  A    between atoms: CG   and  CD  
REMARK    8  A    between atoms: CD   and  CE  
ROOT
ATOM      7  CA  LYS A 135      33.193  34.663   9.290  1.00 25.02     0.186 C 
ENDROOT
BRANCH   7   8
ATOM      8  CB  LYS A 135      32.060  35.360  10.034  1.00 26.63     0.034 C 
BRANCH   8   9
ATOM      9  CG  LYS A 135      32.502  36.040  11.304  1.00 29.45     0.005 C 
BRANCH   9  10
ATOM     10  CD  LYS A 135      31.888  37.427  11.412  1.00 32.00     0.041 C 
BRANCH  10  11
ATOM     11  CE  LYS A 135      31.219  37.611  12.761  1.00 34.25     0.338 C 
ATOM     12  NZ  LYS A 135      31.514  36.465  13.666  1.00 35.99     0.618 N 
ENDBRANCH  10  11
ENDBRANCH   9  10
ENDBRANCH   8   9
ENDBRANCH   7   8
END_RES LYS A 135
