REMARK VINA RESULT:    -4.450      4.200     11.081
REMARK INTER + INTRA:         -23.361
REMARK INTER:                 -12.996
REMARK INTRA:                 -10.365
REMARK UNBOUND:               -12.409
REMARK SMILES CC(=O)N[C@@H]1[C@@H](O)C[C@](OC[C@H]2O[C@@H](O[C@H]3[C@H](O)[C@@H](O)[C@H](OCCN=[N+]=[N-])O[C@@H]3CO)[C@H](O)[C@@H](O)[C@H]2O)(C(=O)O)O[C@H]1C(O)[C@H](O)CNC(=O)OCc1cn(C2c3ccccc3-c3ccccc32)nn1
REMARK SMILES IDX 9 1 8 2 6 3 5 4 42 5 41 6 10 7 11 8 12 9 14 10 13 11 32 12
REMARK SMILES IDX 34 13 36 14 15 15 16 16 29 17 28 18 21 19 17 20 19 21 30 22
REMARK SMILES IDX 31 23 22 25 23 26 24 27 25 28 26 29 27 30 18 31 20 33 33 35
REMARK SMILES IDX 35 37 37 39 38 41 39 42 40 43 7 45 43 47 44 48 45 50 46 51
REMARK SMILES IDX 47 53 48 54 49 55 50 57 51 58 52 59 53 60 54 61 70 62 55 63
REMARK SMILES IDX 69 64 56 65 57 66 68 67 58 68 62 69 63 70 67 71 59 72 61 73
REMARK SMILES IDX 64 74 66 75 60 76 65 77 4 78 2 79 1 81 3 82
REMARK H PARENT 31 24 18 32 20 34 33 36 35 38 37 40 40 44 7 46 44 49 46 52
REMARK H PARENT 48 56 4 80
REMARK Flexibility Score: inf
ROOT
ATOM      1  C   UNL     1      30.675  33.436  16.506  1.00  0.00     0.272 C 
ATOM      2  C   UNL     1      31.131  33.467  17.908  1.00  0.00     0.113 C 
ATOM      3  C   UNL     1      31.731  34.764  18.297  1.00  0.00     0.145 C 
ATOM      4  C   UNL     1      32.213  35.590  17.136  1.00  0.00     0.142 C 
ATOM      5  C   UNL     1      32.601  34.678  16.024  1.00  0.00     0.178 C 
ATOM      6  O   UNL     1      31.662  33.803  15.579  1.00  0.00    -0.332 OA
ENDROOT
BRANCH   1   7
ATOM      7  O   UNL     1      29.567  34.208  16.275  1.00  0.00    -0.338 OA
BRANCH   7   8
ATOM      8  C   UNL     1      28.381  33.759  16.788  1.00  0.00     0.199 C 
BRANCH   8   9
ATOM      9  C   UNL     1      27.508  34.931  17.176  1.00  0.00     0.179 C 
ATOM     10  C   UNL     1      25.563  33.625  17.283  1.00  0.00     0.282 C 
ATOM     11  O   UNL     1      26.231  34.681  16.728  1.00  0.00    -0.341 OA
ATOM     12  C   UNL     1      25.709  33.609  18.756  1.00  0.00     0.202 C 
ATOM     13  C   UNL     1      26.065  35.054  19.154  1.00  0.00     0.179 C 
ATOM     14  C   UNL     1      27.519  35.199  18.656  1.00  0.00     0.177 C 
BRANCH  10  15
ATOM     15  O   UNL     1      25.788  32.459  16.603  1.00  0.00    -0.341 OA
BRANCH  15  16
ATOM     16  C   UNL     1      24.697  31.850  16.043  1.00  0.00     0.184 C 
ATOM     17  C   UNL     1      24.605  30.430  16.462  1.00  0.00     0.178 C 
ATOM     18  O   UNL     1      24.196  29.577  15.443  1.00  0.00    -0.341 OA
ATOM     19  C   UNL     1      23.323  30.137  14.570  1.00  0.00     0.281 C 
ATOM     20  C   UNL     1      24.900  32.007  14.538  1.00  0.00     0.180 C 
ATOM     21  C   UNL     1      24.102  31.108  13.689  1.00  0.00     0.202 C 
BRANCH  17  22
ATOM     22  C   UNL     1      23.643  30.238  17.614  1.00  0.00     0.191 C 
BRANCH  22  23
ATOM     23  O   UNL     1      22.957  31.445  17.891  1.00  0.00    -0.394 OA
ATOM     24  H   UNL     1      21.967  31.291  17.814  1.00  0.00     0.210 HD
ENDBRANCH  22  23
ENDBRANCH  17  22
BRANCH  19  25
ATOM     25  O   UNL     1      22.274  30.854  15.112  1.00  0.00    -0.350 OA
BRANCH  25  26
ATOM     26  C   UNL     1      21.129  30.835  14.367  1.00  0.00     0.169 C 
BRANCH  26  27
ATOM     27  C   UNL     1      20.454  32.143  14.141  1.00  0.00     0.119 C 
BRANCH  27  28
ATOM     28  N   UNL     1      20.523  32.593  12.765  1.00  0.00    -0.092 NA
ATOM     29  N   UNL     1      21.540  33.220  12.443  1.00  0.00     0.001 N 
ATOM     30  N   UNL     1      22.475  33.939  12.073  1.00  0.00    -0.003 NA
ENDBRANCH  27  28
ENDBRANCH  26  27
ENDBRANCH  25  26
ENDBRANCH  19  25
BRANCH  20  31
ATOM     31  O   UNL     1      24.589  33.343  14.172  1.00  0.00    -0.387 OA
ATOM     32  H   UNL     1      25.395  33.796  13.817  1.00  0.00     0.211 HD
ENDBRANCH  20  31
BRANCH  21  33
ATOM     33  O   UNL     1      24.940  30.329  12.878  1.00  0.00    -0.385 OA
ATOM     34  H   UNL     1      25.601  30.875  12.379  1.00  0.00     0.211 HD
ENDBRANCH  21  33
ENDBRANCH  15  16
ENDBRANCH  10  15
BRANCH  12  35
ATOM     35  O   UNL     1      24.520  33.334  19.431  1.00  0.00    -0.385 OA
ATOM     36  H   UNL     1      24.739  33.087  20.360  1.00  0.00     0.211 HD
ENDBRANCH  12  35
BRANCH  13  37
ATOM     37  O   UNL     1      26.092  35.212  20.520  1.00  0.00    -0.387 OA
ATOM     38  H   UNL     1      25.262  34.831  20.898  1.00  0.00     0.211 HD
ENDBRANCH  13  37
BRANCH  14  39
ATOM     39  O   UNL     1      28.231  34.202  19.297  1.00  0.00    -0.387 OA
ATOM     40  H   UNL     1      28.372  33.404  18.731  1.00  0.00     0.211 HD
ENDBRANCH  14  39
ENDBRANCH   8   9
ENDBRANCH   7   8
ENDBRANCH   1   7
BRANCH   1  41
ATOM     41  C   UNL     1      30.377  31.997  16.086  1.00  0.00     0.364 C 
ATOM     42  O   UNL     1      30.456  31.120  16.951  1.00  0.00    -0.246 OA
BRANCH  41  43
ATOM     43  O   UNL     1      30.032  31.680  14.795  1.00  0.00    -0.477 OA
ATOM     44  H   UNL     1      30.596  31.997  13.997  1.00  0.00     0.296 HD
ENDBRANCH  41  43
ENDBRANCH   1  41
BRANCH   3  45
ATOM     45  O   UNL     1      30.929  35.562  19.114  1.00  0.00    -0.391 OA
ATOM     46  H   UNL     1      30.030  35.681  18.775  1.00  0.00     0.211 HD
ENDBRANCH   3  45
BRANCH   5  47
ATOM     47  C   UNL     1      33.076  35.525  14.845  1.00  0.00     0.176 C 
BRANCH  47  48
ATOM     48  O   UNL     1      32.563  36.791  14.957  1.00  0.00    -0.388 OA
ATOM     49  H   UNL     1      32.008  36.889  15.788  1.00  0.00     0.211 HD
ENDBRANCH  47  48
BRANCH  47  50
ATOM     50  C   UNL     1      32.645  34.848  13.579  1.00  0.00     0.165 C 
BRANCH  50  51
ATOM     51  O   UNL     1      33.745  34.731  12.711  1.00  0.00    -0.388 OA
ATOM     52  H   UNL     1      34.566  35.053  13.146  1.00  0.00     0.211 HD
ENDBRANCH  50  51
BRANCH  50  53
ATOM     53  C   UNL     1      31.682  35.808  12.870  1.00  0.00     0.154 C 
BRANCH  53  54
ATOM     54  N   UNL     1      30.365  35.560  13.371  1.00  0.00    -0.319 N 
ATOM     55  C   UNL     1      29.523  36.628  13.747  1.00  0.00     0.407 C 
ATOM     56  H   UNL     1      30.019  34.574  13.458  1.00  0.00     0.167 HD
ATOM     57  O   UNL     1      29.908  37.823  13.664  1.00  0.00    -0.225 OA
BRANCH  55  58
ATOM     58  O   UNL     1      28.244  36.417  14.219  1.00  0.00    -0.443 OA
BRANCH  58  59
ATOM     59  C   UNL     1      27.102  37.061  13.673  1.00  0.00     0.294 C 
BRANCH  59  60
ATOM     60  C   UNL     1      26.559  36.175  12.613  1.00  0.00     0.120 A 
ATOM     61  C   UNL     1      26.032  36.536  11.380  1.00  0.00     0.139 A 
ATOM     62  N   UNL     1      26.481  34.836  12.653  1.00  0.00    -0.132 NA
ATOM     63  N   UNL     1      25.658  35.427  10.722  1.00  0.00    -0.240 N 
ATOM     64  N   UNL     1      25.944  34.412  11.521  1.00  0.00    -0.066 NA
BRANCH  63  65
ATOM     65  C   UNL     1      25.057  35.360   9.388  1.00  0.00     0.170 C 
ATOM     66  C   UNL     1      26.121  35.543   8.398  1.00  0.00    -0.011 A 
ATOM     67  C   UNL     1      24.161  36.510   9.168  1.00  0.00    -0.011 A 
ATOM     68  C   UNL     1      27.253  34.795   8.101  1.00  0.00     0.007 A 
ATOM     69  C   UNL     1      25.908  36.675   7.656  1.00  0.00    -0.012 A 
ATOM     70  C   UNL     1      24.671  37.278   8.149  1.00  0.00    -0.012 A 
ATOM     71  C   UNL     1      22.983  36.910   9.770  1.00  0.00     0.007 A 
ATOM     72  C   UNL     1      28.115  35.187   7.102  1.00  0.00     0.000 A 
ATOM     73  C   UNL     1      26.778  37.068   6.650  1.00  0.00     0.009 A 
ATOM     74  C   UNL     1      24.029  38.421   7.730  1.00  0.00     0.009 A 
ATOM     75  C   UNL     1      22.325  38.049   9.367  1.00  0.00     0.000 A 
ATOM     76  C   UNL     1      27.900  36.333   6.351  1.00  0.00     0.001 A 
ATOM     77  C   UNL     1      22.851  38.808   8.342  1.00  0.00     0.001 A 
ENDBRANCH  63  65
ENDBRANCH  59  60
ENDBRANCH  58  59
ENDBRANCH  55  58
ENDBRANCH  53  54
ENDBRANCH  50  53
ENDBRANCH  47  50
ENDBRANCH   5  47
BRANCH   4  78
ATOM     78  N   UNL     1      33.459  36.241  17.584  1.00  0.00    -0.348 N 
ATOM     79  C   UNL     1      33.460  37.552  18.126  1.00  0.00     0.217 C 
ATOM     80  H   UNL     1      34.336  35.711  17.489  1.00  0.00     0.163 HD
ATOM     81  C   UNL     1      34.732  38.199  18.577  1.00  0.00     0.114 C 
ATOM     82  O   UNL     1      32.355  38.155  18.219  1.00  0.00    -0.275 OA
ENDBRANCH   4  78
TORSDOF 30
BEGIN_RES LYS A 131
REMARK  4 active torsions:
REMARK  status: ('A' for Active; 'I' for Inactive)
REMARK    1  A    between atoms: CA   and  CB  
REMARK    2  A    between atoms: CB   and  CG  
REMARK    3  A    between atoms: CG   and  CD  
REMARK    4  A    between atoms: CD   and  CE  
ROOT
ATOM      1  CA  LYS A 131      29.867  25.555  16.977  1.00 20.52     0.186 C 
ENDROOT
BRANCH   1   2
ATOM      2  CB  LYS A 131      28.345  25.722  17.026  1.00 20.94     0.034 C 
BRANCH   2   3
ATOM      3  CG  LYS A 131      27.601  24.403  16.888  1.00 22.96     0.005 C 
BRANCH   3   4
ATOM      4  CD  LYS A 131      26.202  24.481  17.434  1.00 24.33     0.041 C 
BRANCH   4   5
ATOM      5  CE  LYS A 131      26.046  25.760  18.250  1.00 26.91     0.338 C 
ATOM      6  NZ  LYS A 131      24.925  26.576  17.727  1.00 27.40     0.618 N 
ENDBRANCH   4   5
ENDBRANCH   3   4
ENDBRANCH   2   3
ENDBRANCH   1   2
END_RES LYS A 131
BEGIN_RES LYS A 135
REMARK  4 active torsions:
REMARK  status: ('A' for Active; 'I' for Inactive)
REMARK    5  A    between atoms: CA   and  CB  
REMARK    6  A    between atoms: CB   and  CG  
REMARK    7  A    between atoms: CG   and  CD  
REMARK    8  A    between atoms: CD   and  CE  
ROOT
ATOM      7  CA  LYS A 135      33.193  34.663   9.290  1.00 25.02     0.186 C 
ENDROOT
BRANCH   7   8
ATOM      8  CB  LYS A 135      32.060  35.360  10.034  1.00 26.63     0.034 C 
BRANCH   8   9
ATOM      9  CG  LYS A 135      30.794  35.481   9.226  1.00 29.45     0.005 C 
BRANCH   9  10
ATOM     10  CD  LYS A 135      30.093  36.799   9.521  1.00 32.00     0.041 C 
BRANCH  10  11
ATOM     11  CE  LYS A 135      31.106  37.917   9.678  1.00 34.25     0.338 C 
ATOM     12  NZ  LYS A 135      30.584  38.992  10.566  1.00 35.99     0.618 N 
ENDBRANCH  10  11
ENDBRANCH   9  10
ENDBRANCH   8   9
ENDBRANCH   7   8
END_RES LYS A 135
