REMARK VINA RESULT:    -3.842      1.903      3.148
REMARK INTER + INTRA:         -22.058
REMARK INTER:                 -10.356
REMARK INTRA:                 -11.702
REMARK UNBOUND:               -11.702
REMARK SMILES CC(=O)N[C@@H]1[C@@H](O)C[C@](OC[C@H]2O[C@@H](O[C@H]3[C@H](O)[C@@H](O)[C@H](OCCN=[N+]=[N-])O[C@@H]3CO)[C@H](O)[C@@H](O)[C@H]2O)(C(=O)O)O[C@H]1C(O)[C@H](O)CNC(=O)OCc1cn([C@@H](CC(=O)O)C(=O)O)nn1
REMARK SMILES IDX 43 1 42 2 9 3 8 4 41 5 6 6 5 7 10 8 11 9 12 10 14 11 13 12
REMARK SMILES IDX 32 13 34 14 36 15 15 16 16 17 29 18 28 19 21 20 17 21 19 22
REMARK SMILES IDX 30 23 31 24 22 26 23 27 24 28 25 29 26 30 27 31 18 32 20 34
REMARK SMILES IDX 33 36 35 38 37 40 38 42 39 43 40 44 7 46 4 48 2 49 1 51 3 52
REMARK SMILES IDX 44 53 45 55 46 56 47 58 48 59 49 60 50 62 51 63 52 64 53 65
REMARK SMILES IDX 54 66 65 67 55 68 64 69 56 70 57 71 58 72 59 73 60 74 61 76
REMARK SMILES IDX 62 77 63 78
REMARK H PARENT 31 25 18 33 20 35 33 37 35 39 37 41 40 45 7 47 4 50 44 54
REMARK H PARENT 46 57 48 61 60 75 63 79
REMARK Flexibility Score: inf
ROOT
ATOM      1  C   UNL     1      21.684  37.723   9.161  1.00  0.00     0.176 C 
ENDROOT
BRANCH   1   2
ATOM      2  C   UNL     1      22.276  39.061   9.569  1.00  0.00     0.178 C 
ATOM      3  C   UNL     1      23.858  40.646   8.851  1.00  0.00     0.272 C 
ATOM      4  C   UNL     1      23.647  40.995  10.331  1.00  0.00     0.113 C 
ATOM      5  O   UNL     1      23.248  39.383   8.673  1.00  0.00    -0.332 OA
ATOM      6  C   UNL     1      24.010  39.733  11.100  1.00  0.00     0.145 C 
ATOM      7  C   UNL     1      22.730  38.887  11.007  1.00  0.00     0.142 C 
BRANCH   3   8
ATOM      8  O   UNL     1      25.073  40.631   8.549  1.00  0.00    -0.338 OA
BRANCH   8   9
ATOM      9  C   UNL     1      26.279  40.623   8.241  1.00  0.00     0.199 C 
BRANCH   9  10
ATOM     10  C   UNL     1      26.650  40.151   6.835  1.00  0.00     0.179 C 
ATOM     11  C   UNL     1      28.860  39.555   7.071  1.00  0.00     0.282 C 
ATOM     12  O   UNL     1      27.935  40.358   6.467  1.00  0.00    -0.341 OA
ATOM     13  C   UNL     1      28.572  38.114   6.902  1.00  0.00     0.202 C 
ATOM     14  C   UNL     1      27.411  38.026   5.897  1.00  0.00     0.179 C 
ATOM     15  C   UNL     1      26.250  38.715   6.588  1.00  0.00     0.177 C 
BRANCH  11  16
ATOM     16  O   UNL     1      29.288  39.959   8.326  1.00  0.00    -0.341 OA
BRANCH  16  17
ATOM     17  C   UNL     1      30.399  40.770   8.297  1.00  0.00     0.184 C 
ATOM     18  C   UNL     1      31.380  40.415   9.356  1.00  0.00     0.178 C 
ATOM     19  O   UNL     1      32.520  41.205   9.277  1.00  0.00    -0.341 OA
ATOM     20  C   UNL     1      32.267  42.534   8.925  1.00  0.00     0.281 C 
ATOM     21  C   UNL     1      29.889  42.189   8.530  1.00  0.00     0.180 C 
ATOM     22  C   UNL     1      30.867  42.932   9.382  1.00  0.00     0.202 C 
BRANCH  18  23
ATOM     23  C   UNL     1      31.851  38.987   9.085  1.00  0.00     0.191 C 
BRANCH  23  24
ATOM     24  O   UNL     1      32.080  38.846   7.701  1.00  0.00    -0.394 OA
ATOM     25  H   UNL     1      32.421  37.909   7.598  1.00  0.00     0.210 HD
ENDBRANCH  23  24
ENDBRANCH  18  23
BRANCH  20  26
ATOM     26  O   UNL     1      32.290  42.609   7.544  1.00  0.00    -0.350 OA
BRANCH  26  27
ATOM     27  C   UNL     1      33.501  42.466   6.941  1.00  0.00     0.169 C 
BRANCH  27  28
ATOM     28  C   UNL     1      33.413  41.524   5.779  1.00  0.00     0.119 C 
BRANCH  28  29
ATOM     29  N   UNL     1      34.723  40.894   5.604  1.00  0.00    -0.092 NA
ATOM     30  N   UNL     1      34.750  39.664   5.399  1.00  0.00     0.001 N 
ATOM     31  N   UNL     1      35.122  38.490   5.581  1.00  0.00    -0.003 NA
ENDBRANCH  28  29
ENDBRANCH  27  28
ENDBRANCH  26  27
ENDBRANCH  20  26
BRANCH  21  32
ATOM     32  O   UNL     1      29.738  42.840   7.311  1.00  0.00    -0.387 OA
ATOM     33  H   UNL     1      30.093  43.774   7.372  1.00  0.00     0.211 HD
ENDBRANCH  21  32
BRANCH  22  34
ATOM     34  O   UNL     1      30.713  42.706  10.751  1.00  0.00    -0.385 OA
ATOM     35  H   UNL     1      29.815  42.254  10.832  1.00  0.00     0.211 HD
ENDBRANCH  22  34
ENDBRANCH  16  17
ENDBRANCH  11  16
BRANCH  13  36
ATOM     36  O   UNL     1      29.619  37.395   6.322  1.00  0.00    -0.385 OA
ATOM     37  H   UNL     1      30.354  37.343   6.998  1.00  0.00     0.211 HD
ENDBRANCH  13  36
BRANCH  14  38
ATOM     38  O   UNL     1      27.106  36.736   5.544  1.00  0.00    -0.387 OA
ATOM     39  H   UNL     1      27.359  36.533   4.600  1.00  0.00     0.211 HD
ENDBRANCH  14  38
BRANCH  15  40
ATOM     40  O   UNL     1      25.949  38.044   7.752  1.00  0.00    -0.387 OA
ATOM     41  H   UNL     1      26.714  37.631   8.188  1.00  0.00     0.211 HD
ENDBRANCH  15  40
ENDBRANCH   9  10
ENDBRANCH   8   9
ENDBRANCH   3   8
BRANCH   3  42
ATOM     42  C   UNL     1      22.994  41.666   8.116  1.00  0.00     0.364 C 
ATOM     43  O   UNL     1      22.809  42.788   8.609  1.00  0.00    -0.246 OA
BRANCH  42  44
ATOM     44  O   UNL     1      22.407  41.363   6.902  1.00  0.00    -0.477 OA
ATOM     45  H   UNL     1      22.560  41.931   6.058  1.00  0.00     0.296 HD
ENDBRANCH  42  44
ENDBRANCH   3  42
BRANCH   6  46
ATOM     46  O   UNL     1      24.947  38.976  10.361  1.00  0.00    -0.391 OA
ATOM     47  H   UNL     1      25.547  38.465  10.928  1.00  0.00     0.211 HD
ENDBRANCH   6  46
BRANCH   7  48
ATOM     48  N   UNL     1      21.812  39.447  11.971  1.00  0.00    -0.348 N 
ATOM     49  C   UNL     1      21.380  38.667  13.087  1.00  0.00     0.217 C 
ATOM     50  H   UNL     1      21.432  40.418  11.896  1.00  0.00     0.163 HD
ATOM     51  C   UNL     1      20.422  39.306  14.052  1.00  0.00     0.114 C 
ATOM     52  O   UNL     1      21.778  37.486  13.268  1.00  0.00    -0.275 OA
ENDBRANCH   7  48
ENDBRANCH   1   2
BRANCH   1  53
ATOM     53  O   UNL     1      21.356  36.948  10.267  1.00  0.00    -0.388 OA
ATOM     54  H   UNL     1      21.965  37.124  11.038  1.00  0.00     0.211 HD
ENDBRANCH   1  53
BRANCH   1  55
ATOM     55  C   UNL     1      22.475  36.939   8.183  1.00  0.00     0.165 C 
BRANCH  55  56
ATOM     56  O   UNL     1      21.859  36.661   6.983  1.00  0.00    -0.388 OA
ATOM     57  H   UNL     1      21.380  35.791   6.959  1.00  0.00     0.211 HD
ENDBRANCH  55  56
BRANCH  55  58
ATOM     58  C   UNL     1      23.124  35.760   8.825  1.00  0.00     0.154 C 
BRANCH  58  59
ATOM     59  N   UNL     1      24.304  36.023   9.588  1.00  0.00    -0.319 N 
ATOM     60  C   UNL     1      24.364  35.611  10.941  1.00  0.00     0.407 C 
ATOM     61  H   UNL     1      25.115  36.503   9.176  1.00  0.00     0.167 HD
ATOM     62  O   UNL     1      23.350  34.999  11.426  1.00  0.00    -0.225 OA
BRANCH  60  63
ATOM     63  O   UNL     1      25.425  35.812  11.808  1.00  0.00    -0.443 OA
BRANCH  63  64
ATOM     64  C   UNL     1      26.385  34.762  12.008  1.00  0.00     0.294 C 
BRANCH  64  65
ATOM     65  C   UNL     1      27.655  35.366  12.475  1.00  0.00     0.120 A 
ATOM     66  C   UNL     1      28.347  36.457  11.997  1.00  0.00     0.139 A 
ATOM     67  N   UNL     1      28.420  34.902  13.518  1.00  0.00    -0.132 NA
ATOM     68  N   UNL     1      29.481  36.620  12.739  1.00  0.00    -0.237 N 
ATOM     69  N   UNL     1      29.470  35.669  13.628  1.00  0.00    -0.066 NA
BRANCH  68  70
ATOM     70  C   UNL     1      30.488  37.640  12.553  1.00  0.00     0.229 C 
BRANCH  70  71
ATOM     71  C   UNL     1      30.208  38.764  13.535  1.00  0.00     0.161 C 
BRANCH  71  72
ATOM     72  C   UNL     1      30.417  40.088  12.918  1.00  0.00     0.306 C 
ATOM     73  O   UNL     1      29.445  40.822  12.611  1.00  0.00    -0.252 OA
BRANCH  72  74
ATOM     74  O   UNL     1      31.691  40.546  12.665  1.00  0.00    -0.481 OA
ATOM     75  H   UNL     1      32.242  40.928  13.444  1.00  0.00     0.296 HD
ENDBRANCH  72  74
ENDBRANCH  71  72
ENDBRANCH  70  71
BRANCH  70  76
ATOM     76  C   UNL     1      31.814  37.062  12.831  1.00  0.00     0.329 C 
ATOM     77  O   UNL     1      32.570  36.787  11.871  1.00  0.00    -0.250 OA
BRANCH  76  78
ATOM     78  O   UNL     1      32.274  36.804  14.116  1.00  0.00    -0.480 OA
ATOM     79  H   UNL     1      32.374  37.586  14.757  1.00  0.00     0.296 HD
ENDBRANCH  76  78
ENDBRANCH  70  76
ENDBRANCH  68  70
ENDBRANCH  64  65
ENDBRANCH  63  64
ENDBRANCH  60  63
ENDBRANCH  58  59
ENDBRANCH  55  58
ENDBRANCH   1  55
TORSDOF 35
BEGIN_RES LYS A 131
REMARK  4 active torsions:
REMARK  status: ('A' for Active; 'I' for Inactive)
REMARK    1  A    between atoms: CA   and  CB  
REMARK    2  A    between atoms: CB   and  CG  
REMARK    3  A    between atoms: CG   and  CD  
REMARK    4  A    between atoms: CD   and  CE  
ROOT
ATOM      1  CA  LYS A 131      29.867  25.555  16.977  1.00 20.52     0.186 C 
ENDROOT
BRANCH   1   2
ATOM      2  CB  LYS A 131      28.345  25.722  17.026  1.00 20.94     0.034 C 
BRANCH   2   3
ATOM      3  CG  LYS A 131      27.601  24.403  16.886  1.00 22.96     0.005 C 
BRANCH   3   4
ATOM      4  CD  LYS A 131      26.152  24.526  17.269  1.00 24.33     0.041 C 
BRANCH   4   5
ATOM      5  CE  LYS A 131      25.768  23.368  18.184  1.00 26.91     0.338 C 
ATOM      6  NZ  LYS A 131      24.733  22.522  17.544  1.00 27.40     0.618 N 
ENDBRANCH   4   5
ENDBRANCH   3   4
ENDBRANCH   2   3
ENDBRANCH   1   2
END_RES LYS A 131
BEGIN_RES LYS A 135
REMARK  4 active torsions:
REMARK  status: ('A' for Active; 'I' for Inactive)
REMARK    5  A    between atoms: CA   and  CB  
REMARK    6  A    between atoms: CB   and  CG  
REMARK    7  A    between atoms: CG   and  CD  
REMARK    8  A    between atoms: CD   and  CE  
ROOT
ATOM      7  CA  LYS A 135      33.193  34.663   9.290  1.00 25.02     0.186 C 
ENDROOT
BRANCH   7   8
ATOM      8  CB  LYS A 135      32.060  35.360  10.034  1.00 26.63     0.034 C 
BRANCH   8   9
ATOM      9  CG  LYS A 135      30.851  35.628   9.176  1.00 29.45     0.005 C 
BRANCH   9  10
ATOM     10  CD  LYS A 135      30.239  34.323   8.689  1.00 32.00     0.041 C 
BRANCH  10  11
ATOM     11  CE  LYS A 135      28.792  34.532   8.285  1.00 34.25     0.338 C 
ATOM     12  NZ  LYS A 135      27.869  33.812   9.207  1.00 35.99     0.618 N 
ENDBRANCH  10  11
ENDBRANCH   9  10
ENDBRANCH   8   9
ENDBRANCH   7   8
END_RES LYS A 135
