REMARK VINA RESULT:    -3.906      3.206      7.469
REMARK INTER + INTRA:         -22.227
REMARK INTER:                 -10.878
REMARK INTRA:                 -11.348
REMARK UNBOUND:               -12.270
REMARK SMILES CC(=O)N[C@@H]1[C@@H](O)C[C@](OC[C@H]2O[C@@H](O[C@H]3[C@H](O)[C@@H](O)[C@H](OCCN=[N+]=[N-])O[C@@H]3CO)[C@H](O)[C@@H](O)[C@H]2O)(C(=O)O)O[C@H]1C(O)[C@H](O)CNC(=O)OCc1cn(-c2ccc(S(N)(=O)=O)cc2)nn1
REMARK SMILES IDX 9 1 8 2 6 3 5 4 42 5 41 6 10 7 11 8 12 9 14 10 13 11 32 12
REMARK SMILES IDX 34 13 36 14 15 15 16 16 29 17 28 18 21 19 17 20 19 21 30 22
REMARK SMILES IDX 31 23 22 25 23 26 24 27 25 28 26 29 27 30 18 31 20 33 33 35
REMARK SMILES IDX 35 37 37 39 38 41 39 42 40 43 7 45 43 47 44 48 45 50 46 51
REMARK SMILES IDX 47 53 48 54 49 55 50 57 51 58 52 59 53 60 54 61 67 62 55 63
REMARK SMILES IDX 66 64 56 65 57 66 65 67 58 68 64 69 59 70 60 71 62 72 63 73
REMARK SMILES IDX 61 74 4 77 2 78 1 80 3 81
REMARK H PARENT 31 24 18 32 20 34 33 36 35 38 37 40 40 44 7 46 44 49 46 52
REMARK H PARENT 48 56 61 75 61 76 4 79
REMARK Flexibility Score: inf
ROOT
ATOM      1  C   UNL     1      25.536  37.477   9.270  1.00  0.00     0.272 C 
ATOM      2  C   UNL     1      25.564  38.892   9.869  1.00  0.00     0.113 C 
ATOM      3  C   UNL     1      24.655  39.025  11.039  1.00  0.00     0.145 C 
ATOM      4  C   UNL     1      23.383  38.264  10.765  1.00  0.00     0.142 C 
ATOM      5  C   UNL     1      23.312  38.135   9.239  1.00  0.00     0.178 C 
ATOM      6  O   UNL     1      24.249  37.158   8.905  1.00  0.00    -0.332 OA
ENDROOT
BRANCH   1   7
ATOM      7  O   UNL     1      26.079  36.651  10.245  1.00  0.00    -0.338 OA
BRANCH   7   8
ATOM      8  C   UNL     1      26.129  35.328   9.906  1.00  0.00     0.199 C 
BRANCH   8   9
ATOM      9  C   UNL     1      26.306  34.525  11.207  1.00  0.00     0.179 C 
ATOM     10  C   UNL     1      27.508  34.771  13.198  1.00  0.00     0.282 C 
ATOM     11  O   UNL     1      27.456  34.963  11.783  1.00  0.00    -0.341 OA
ATOM     12  C   UNL     1      26.441  35.693  13.714  1.00  0.00     0.202 C 
ATOM     13  C   UNL     1      25.069  35.155  13.330  1.00  0.00     0.179 C 
ATOM     14  C   UNL     1      25.078  34.457  12.020  1.00  0.00     0.177 C 
BRANCH  10  15
ATOM     15  O   UNL     1      28.740  35.149  13.605  1.00  0.00    -0.341 OA
BRANCH  15  16
ATOM     16  C   UNL     1      29.119  34.680  14.890  1.00  0.00     0.184 C 
ATOM     17  C   UNL     1      30.356  35.354  15.274  1.00  0.00     0.178 C 
ATOM     18  O   UNL     1      31.313  34.594  15.916  1.00  0.00    -0.341 OA
ATOM     19  C   UNL     1      30.873  33.488  16.587  1.00  0.00     0.281 C 
ATOM     20  C   UNL     1      29.166  33.170  14.873  1.00  0.00     0.180 C 
ATOM     21  C   UNL     1      30.305  32.535  15.571  1.00  0.00     0.202 C 
BRANCH  17  22
ATOM     22  C   UNL     1      30.152  36.588  16.128  1.00  0.00     0.191 C 
BRANCH  22  23
ATOM     23  O   UNL     1      31.083  36.630  17.157  1.00  0.00    -0.394 OA
ATOM     24  H   UNL     1      30.696  36.990  17.994  1.00  0.00     0.210 HD
ENDBRANCH  22  23
ENDBRANCH  17  22
BRANCH  19  25
ATOM     25  O   UNL     1      30.019  33.718  17.639  1.00  0.00    -0.350 OA
BRANCH  25  26
ATOM     26  C   UNL     1      30.514  33.132  18.798  1.00  0.00     0.169 C 
BRANCH  26  27
ATOM     27  C   UNL     1      29.372  32.368  19.460  1.00  0.00     0.119 C 
BRANCH  27  28
ATOM     28  N   UNL     1      28.282  32.292  18.527  1.00  0.00    -0.092 NA
ATOM     29  N   UNL     1      27.735  31.206  18.232  1.00  0.00     0.001 N 
ATOM     30  N   UNL     1      27.561  30.223  17.491  1.00  0.00    -0.003 NA
ENDBRANCH  27  28
ENDBRANCH  26  27
ENDBRANCH  25  26
ENDBRANCH  19  25
BRANCH  20  31
ATOM     31  O   UNL     1      27.989  32.624  15.393  1.00  0.00    -0.387 OA
ATOM     32  H   UNL     1      28.156  32.312  16.312  1.00  0.00     0.211 HD
ENDBRANCH  20  31
BRANCH  21  33
ATOM     33  O   UNL     1      31.317  32.090  14.728  1.00  0.00    -0.385 OA
ATOM     34  H   UNL     1      32.093  31.898  15.346  1.00  0.00     0.211 HD
ENDBRANCH  21  33
ENDBRANCH  15  16
ENDBRANCH  10  15
BRANCH  12  35
ATOM     35  O   UNL     1      26.538  36.025  15.033  1.00  0.00    -0.385 OA
ATOM     36  H   UNL     1      27.165  36.744  15.243  1.00  0.00     0.211 HD
ENDBRANCH  12  35
BRANCH  13  37
ATOM     37  O   UNL     1      24.087  36.121  13.477  1.00  0.00    -0.387 OA
ATOM     38  H   UNL     1      23.191  35.859  13.181  1.00  0.00     0.211 HD
ENDBRANCH  13  37
BRANCH  14  39
ATOM     39  O   UNL     1      24.028  35.010  11.247  1.00  0.00    -0.387 OA
ATOM     40  H   UNL     1      23.251  35.072  11.876  1.00  0.00     0.211 HD
ENDBRANCH  14  39
ENDBRANCH   8   9
ENDBRANCH   7   8
ENDBRANCH   1   7
BRANCH   1  41
ATOM     41  C   UNL     1      26.462  37.570   8.081  1.00  0.00     0.364 C 
ATOM     42  O   UNL     1      27.612  38.059   8.194  1.00  0.00    -0.246 OA
BRANCH  41  43
ATOM     43  O   UNL     1      26.075  37.120   6.834  1.00  0.00    -0.477 OA
ATOM     44  H   UNL     1      26.463  36.250   6.501  1.00  0.00     0.296 HD
ENDBRANCH  41  43
ENDBRANCH   1  41
BRANCH   3  45
ATOM     45  O   UNL     1      25.326  38.587  12.178  1.00  0.00    -0.391 OA
ATOM     46  H   UNL     1      24.770  37.920  12.645  1.00  0.00     0.211 HD
ENDBRANCH   3  45
BRANCH   5  47
ATOM     47  C   UNL     1      21.947  37.676   8.801  1.00  0.00     0.176 C 
BRANCH  47  48
ATOM     48  O   UNL     1      21.177  38.665   8.224  1.00  0.00    -0.388 OA
ATOM     49  H   UNL     1      20.805  39.301   8.885  1.00  0.00     0.211 HD
ENDBRANCH  47  48
BRANCH  47  50
ATOM     50  C   UNL     1      22.066  36.503   7.855  1.00  0.00     0.165 C 
BRANCH  50  51
ATOM     51  O   UNL     1      22.381  36.954   6.556  1.00  0.00    -0.388 OA
ATOM     52  H   UNL     1      23.360  37.149   6.489  1.00  0.00     0.211 HD
ENDBRANCH  50  51
BRANCH  50  53
ATOM     53  C   UNL     1      20.803  35.680   7.816  1.00  0.00     0.154 C 
BRANCH  53  54
ATOM     54  N   UNL     1      19.750  36.268   8.610  1.00  0.00    -0.319 N 
ATOM     55  C   UNL     1      18.701  35.451   9.105  1.00  0.00     0.407 C 
ATOM     56  H   UNL     1      19.725  37.281   8.839  1.00  0.00     0.167 HD
ATOM     57  O   UNL     1      18.715  34.215   8.833  1.00  0.00    -0.225 OA
BRANCH  55  58
ATOM     58  O   UNL     1      17.650  35.916   9.877  1.00  0.00    -0.443 OA
BRANCH  58  59
ATOM     59  C   UNL     1      17.690  35.931  11.283  1.00  0.00     0.294 C 
BRANCH  59  60
ATOM     60  C   UNL     1      19.072  35.611  11.732  1.00  0.00     0.121 A 
ATOM     61  C   UNL     1      19.470  34.446  12.396  1.00  0.00     0.144 A 
ATOM     62  N   UNL     1      20.203  36.328  11.616  1.00  0.00    -0.131 NA
ATOM     63  N   UNL     1      20.801  34.511  12.647  1.00  0.00    -0.220 N 
ATOM     64  N   UNL     1      21.216  35.646  12.170  1.00  0.00    -0.062 NA
BRANCH  63  65
ATOM     65  C   UNL     1      21.596  33.521  13.312  1.00  0.00     0.066 A 
ATOM     66  C   UNL     1      22.067  32.416  12.640  1.00  0.00     0.030 A 
ATOM     67  C   UNL     1      21.915  33.647  14.645  1.00  0.00     0.030 A 
ATOM     68  C   UNL     1      22.841  31.457  13.290  1.00  0.00     0.024 A 
ATOM     69  C   UNL     1      22.689  32.694  15.304  1.00  0.00     0.024 A 
ATOM     70  C   UNL     1      23.160  31.586  14.627  1.00  0.00     0.082 A 
BRANCH  70  71
ATOM     71  S   UNL     1      24.143  30.356  15.419  1.00  0.00     0.238 S 
ATOM     72  O   UNL     1      23.932  30.375  16.913  1.00  0.00    -0.207 OA
ATOM     73  O   UNL     1      23.760  28.990  14.935  1.00  0.00    -0.207 OA
BRANCH  71  74
ATOM     74  N   UNL     1      25.828  30.601  15.085  1.00  0.00    -0.225 NA
ATOM     75  H   UNL     1      26.000  30.289  14.087  1.00  0.00     0.137 HD
ATOM     76  H   UNL     1      26.444  30.069  15.744  1.00  0.00     0.137 HD
ENDBRANCH  71  74
ENDBRANCH  70  71
ENDBRANCH  63  65
ENDBRANCH  59  60
ENDBRANCH  58  59
ENDBRANCH  55  58
ENDBRANCH  53  54
ENDBRANCH  50  53
ENDBRANCH  47  50
ENDBRANCH   5  47
BRANCH   4  77
ATOM     77  N   UNL     1      22.194  38.887  11.283  1.00  0.00    -0.348 N 
ATOM     78  C   UNL     1      22.006  39.015  12.675  1.00  0.00     0.217 C 
ATOM     79  H   UNL     1      21.462  39.251  10.645  1.00  0.00     0.163 HD
ATOM     80  C   UNL     1      20.766  39.663  13.169  1.00  0.00     0.114 C 
ATOM     81  O   UNL     1      22.841  38.606  13.514  1.00  0.00    -0.275 OA
ENDBRANCH   4  77
TORSDOF 32
BEGIN_RES LYS A 131
REMARK  4 active torsions:
REMARK  status: ('A' for Active; 'I' for Inactive)
REMARK    1  A    between atoms: CA   and  CB  
REMARK    2  A    between atoms: CB   and  CG  
REMARK    3  A    between atoms: CG   and  CD  
REMARK    4  A    between atoms: CD   and  CE  
ROOT
ATOM      1  CA  LYS A 131      29.867  25.555  16.977  1.00 20.52     0.186 C 
ENDROOT
BRANCH   1   2
ATOM      2  CB  LYS A 131      28.345  25.722  17.026  1.00 20.94     0.034 C 
BRANCH   2   3
ATOM      3  CG  LYS A 131      27.602  24.399  16.919  1.00 22.96     0.005 C 
BRANCH   3   4
ATOM      4  CD  LYS A 131      26.153  24.531  17.300  1.00 24.33     0.041 C 
BRANCH   4   5
ATOM      5  CE  LYS A 131      25.793  23.452  18.315  1.00 26.91     0.338 C 
ATOM      6  NZ  LYS A 131      25.031  22.360  17.664  1.00 27.40     0.618 N 
ENDBRANCH   4   5
ENDBRANCH   3   4
ENDBRANCH   2   3
ENDBRANCH   1   2
END_RES LYS A 131
BEGIN_RES LYS A 135
REMARK  4 active torsions:
REMARK  status: ('A' for Active; 'I' for Inactive)
REMARK    5  A    between atoms: CA   and  CB  
REMARK    6  A    between atoms: CB   and  CG  
REMARK    7  A    between atoms: CG   and  CD  
REMARK    8  A    between atoms: CD   and  CE  
ROOT
ATOM      7  CA  LYS A 135      33.193  34.663   9.290  1.00 25.02     0.186 C 
ENDROOT
BRANCH   7   8
ATOM      8  CB  LYS A 135      32.060  35.360  10.034  1.00 26.63     0.034 C 
BRANCH   8   9
ATOM      9  CG  LYS A 135      30.705  34.755   9.772  1.00 29.45     0.005 C 
BRANCH   9  10
ATOM     10  CD  LYS A 135      30.508  34.504   8.285  1.00 32.00     0.041 C 
BRANCH  10  11
ATOM     11  CE  LYS A 135      29.101  34.881   7.863  1.00 34.25     0.338 C 
ATOM     12  NZ  LYS A 135      29.093  35.484   6.501  1.00 35.99     0.618 N 
ENDBRANCH  10  11
ENDBRANCH   9  10
ENDBRANCH   8   9
ENDBRANCH   7   8
END_RES LYS A 135
