REMARK VINA RESULT:    -3.029      2.887      8.906
REMARK INTER + INTRA:         -21.228
REMARK INTER:                 -10.098
REMARK INTRA:                 -11.129
REMARK UNBOUND:               -13.239
REMARK SMILES CCOC(=O)Cn1cc(COC(=O)NC[C@@H](O)C(O)[C@@H]2O[C@@](OC[C@H]3O[C@@H](O[C@H]4[C@H](O)[C@@H](O)[C@H](OCCN=[N+]=[N-])O[C@@H]4CO)[C@H](O)[C@@H](O)[C@H]3O)(C(=O)O)C[C@H](O)[C@H]2NC(C)=O)nn1
REMARK SMILES IDX 18 1 20 2 22 3 54 4 21 5 55 6 57 7 23 8 24 9 25 10 27 11
REMARK SMILES IDX 26 12 45 13 47 14 49 15 28 16 29 17 42 18 41 19 34 20 30 21
REMARK SMILES IDX 32 22 43 23 44 24 35 26 36 27 37 28 38 29 39 30 40 31 31 32
REMARK SMILES IDX 33 34 46 36 48 38 50 40 51 42 52 43 53 44 56 46 58 48 59 49
REMARK SMILES IDX 60 51 61 52 19 53 16 55 17 56 15 58 14 59 12 60 13 62 11 63
REMARK SMILES IDX 10 64 9 65 8 66 62 67 7 68 63 69 6 70 4 71 5 72 3 73 2 74
REMARK SMILES IDX 1 75
REMARK H PARENT 44 25 31 33 33 35 46 37 48 39 50 41 53 45 56 47 58 50 19 54
REMARK H PARENT 17 57 14 61
REMARK Flexibility Score: inf
ROOT
ATOM      1  C   UNL     1      25.313  33.658  15.681  1.00  0.00     0.176 C 
ENDROOT
BRANCH   1   2
ATOM      2  C   UNL     1      25.215  34.852  14.773  1.00  0.00     0.178 C 
ATOM      3  C   UNL     1      26.370  35.934  13.051  1.00  0.00     0.272 C 
ATOM      4  C   UNL     1      25.401  37.023  13.357  1.00  0.00     0.113 C 
ATOM      5  O   UNL     1      26.006  34.715  13.663  1.00  0.00    -0.332 OA
ATOM      6  C   UNL     1      25.215  37.285  14.817  1.00  0.00     0.145 C 
ATOM      7  C   UNL     1      25.673  36.053  15.581  1.00  0.00     0.142 C 
BRANCH   3   8
ATOM      8  O   UNL     1      27.686  36.205  13.358  1.00  0.00    -0.338 OA
BRANCH   8   9
ATOM      9  C   UNL     1      28.625  35.285  13.041  1.00  0.00     0.199 C 
BRANCH   9  10
ATOM     10  C   UNL     1      29.978  35.765  13.601  1.00  0.00     0.179 C 
ATOM     11  C   UNL     1      31.551  35.347  15.254  1.00  0.00     0.282 C 
ATOM     12  O   UNL     1      30.263  35.183  14.795  1.00  0.00    -0.341 OA
ATOM     13  C   UNL     1      32.603  34.988  14.250  1.00  0.00     0.202 C 
ATOM     14  C   UNL     1      32.421  35.912  13.072  1.00  0.00     0.179 C 
ATOM     15  C   UNL     1      31.043  35.688  12.547  1.00  0.00     0.177 C 
BRANCH  11  16
ATOM     16  O   UNL     1      31.804  34.645  16.420  1.00  0.00    -0.341 OA
BRANCH  16  17
ATOM     17  C   UNL     1      30.795  33.818  16.841  1.00  0.00     0.184 C 
ATOM     18  C   UNL     1      30.532  33.900  18.329  1.00  0.00     0.178 C 
ATOM     19  O   UNL     1      30.922  32.739  18.982  1.00  0.00    -0.341 OA
ATOM     20  C   UNL     1      30.141  31.626  18.596  1.00  0.00     0.281 C 
ATOM     21  C   UNL     1      31.144  32.372  16.493  1.00  0.00     0.180 C 
ATOM     22  C   UNL     1      30.051  31.510  17.107  1.00  0.00     0.202 C 
BRANCH  18  23
ATOM     23  C   UNL     1      29.097  34.284  18.581  1.00  0.00     0.191 C 
BRANCH  23  24
ATOM     24  O   UNL     1      28.483  34.736  17.398  1.00  0.00    -0.394 OA
ATOM     25  H   UNL     1      27.829  34.089  17.067  1.00  0.00     0.210 HD
ENDBRANCH  23  24
ENDBRANCH  18  23
BRANCH  20  26
ATOM     26  O   UNL     1      28.911  31.665  19.199  1.00  0.00    -0.350 OA
BRANCH  26  27
ATOM     27  C   UNL     1      28.689  30.964  20.335  1.00  0.00     0.169 C 
BRANCH  27  28
ATOM     28  C   UNL     1      27.299  30.751  20.805  1.00  0.00     0.119 C 
BRANCH  28  29
ATOM     29  N   UNL     1      26.747  31.719  21.690  1.00  0.00    -0.092 NA
ATOM     30  N   UNL     1      26.935  31.651  22.923  1.00  0.00     0.001 N 
ATOM     31  N   UNL     1      27.404  31.513  24.066  1.00  0.00    -0.003 NA
ENDBRANCH  28  29
ENDBRANCH  27  28
ENDBRANCH  26  27
ENDBRANCH  20  26
BRANCH  21  32
ATOM     32  O   UNL     1      31.142  32.220  15.104  1.00  0.00    -0.387 OA
ATOM     33  H   UNL     1      32.019  31.788  14.862  1.00  0.00     0.211 HD
ENDBRANCH  21  32
BRANCH  22  34
ATOM     34  O   UNL     1      30.189  30.196  16.651  1.00  0.00    -0.385 OA
ATOM     35  H   UNL     1      30.552  29.579  17.332  1.00  0.00     0.211 HD
ENDBRANCH  22  34
ENDBRANCH  16  17
ENDBRANCH  11  16
BRANCH  13  36
ATOM     36  O   UNL     1      33.853  35.182  14.826  1.00  0.00    -0.385 OA
ATOM     37  H   UNL     1      34.324  35.981  14.543  1.00  0.00     0.211 HD
ENDBRANCH  13  36
BRANCH  14  38
ATOM     38  O   UNL     1      33.359  35.537  12.084  1.00  0.00    -0.387 OA
ATOM     39  H   UNL     1      33.085  34.688  11.657  1.00  0.00     0.211 HD
ENDBRANCH  14  38
BRANCH  15  40
ATOM     40  O   UNL     1      31.037  34.430  11.902  1.00  0.00    -0.387 OA
ATOM     41  H   UNL     1      30.606  34.608  11.021  1.00  0.00     0.211 HD
ENDBRANCH  15  40
ENDBRANCH   9  10
ENDBRANCH   8   9
ENDBRANCH   3   8
BRANCH   3  42
ATOM     42  C   UNL     1      26.264  35.637  11.602  1.00  0.00     0.364 C 
ATOM     43  O   UNL     1      26.645  36.488  10.768  1.00  0.00    -0.246 OA
BRANCH  42  44
ATOM     44  O   UNL     1      25.752  34.447  11.167  1.00  0.00    -0.477 OA
ATOM     45  H   UNL     1      26.344  33.679  10.861  1.00  0.00     0.296 HD
ENDBRANCH  42  44
ENDBRANCH   3  42
BRANCH   6  46
ATOM     46  O   UNL     1      25.805  38.435  15.283  1.00  0.00    -0.391 OA
ATOM     47  H   UNL     1      26.330  38.847  14.541  1.00  0.00     0.211 HD
ENDBRANCH   6  46
BRANCH   7  48
ATOM     48  N   UNL     1      25.104  36.037  16.922  1.00  0.00    -0.348 N 
ATOM     49  C   UNL     1      25.777  36.601  18.032  1.00  0.00     0.217 C 
ATOM     50  H   UNL     1      24.176  35.603  17.063  1.00  0.00     0.163 HD
ATOM     51  C   UNL     1      25.205  36.590  19.412  1.00  0.00     0.114 C 
ATOM     52  O   UNL     1      26.905  37.130  17.836  1.00  0.00    -0.275 OA
ENDBRANCH   7  48
ENDBRANCH   1   2
BRANCH   1  53
ATOM     53  O   UNL     1      24.057  33.236  16.071  1.00  0.00    -0.388 OA
ATOM     54  H   UNL     1      23.426  33.989  16.258  1.00  0.00     0.211 HD
ENDBRANCH   1  53
BRANCH   1  55
ATOM     55  C   UNL     1      26.046  32.488  15.048  1.00  0.00     0.165 C 
BRANCH  55  56
ATOM     56  O   UNL     1      25.199  31.505  14.594  1.00  0.00    -0.388 OA
ATOM     57  H   UNL     1      25.510  31.052  13.776  1.00  0.00     0.211 HD
ENDBRANCH  55  56
BRANCH  55  58
ATOM     58  C   UNL     1      27.029  31.956  16.037  1.00  0.00     0.154 C 
BRANCH  58  59
ATOM     59  N   UNL     1      26.479  31.086  17.016  1.00  0.00    -0.319 N 
ATOM     60  C   UNL     1      26.750  29.697  17.130  1.00  0.00     0.407 C 
ATOM     61  H   UNL     1      25.793  31.472  17.755  1.00  0.00     0.167 HD
ATOM     62  O   UNL     1      27.524  29.111  16.354  1.00  0.00    -0.225 OA
BRANCH  60  63
ATOM     63  O   UNL     1      26.128  28.960  18.152  1.00  0.00    -0.443 OA
BRANCH  63  64
ATOM     64  C   UNL     1      24.790  29.164  18.467  1.00  0.00     0.294 C 
BRANCH  64  65
ATOM     65  C   UNL     1      23.933  29.453  17.301  1.00  0.00     0.120 A 
ATOM     66  C   UNL     1      23.553  28.557  16.320  1.00  0.00     0.139 A 
ATOM     67  N   UNL     1      23.369  30.617  16.957  1.00  0.00    -0.132 NA
ATOM     68  N   UNL     1      22.777  29.192  15.410  1.00  0.00    -0.241 N 
ATOM     69  N   UNL     1      22.686  30.436  15.829  1.00  0.00    -0.066 NA
BRANCH  68  70
ATOM     70  C   UNL     1      22.199  28.562  14.230  1.00  0.00     0.268 C 
BRANCH  70  71
ATOM     71  C   UNL     1      22.729  29.298  13.027  1.00  0.00     0.327 C 
ATOM     72  O   UNL     1      23.945  29.347  12.763  1.00  0.00    -0.250 OA
BRANCH  71  73
ATOM     73  O   UNL     1      21.875  29.955  12.159  1.00  0.00    -0.465 OA
BRANCH  73  74
ATOM     74  C   UNL     1      21.158  31.115  12.470  1.00  0.00     0.229 C 
ATOM     75  C   UNL     1      22.050  32.299  12.755  1.00  0.00     0.049 C 
ENDBRANCH  73  74
ENDBRANCH  71  73
ENDBRANCH  70  71
ENDBRANCH  68  70
ENDBRANCH  64  65
ENDBRANCH  63  64
ENDBRANCH  60  63
ENDBRANCH  58  59
ENDBRANCH  55  58
ENDBRANCH   1  55
TORSDOF 33
BEGIN_RES LYS A 131
REMARK  4 active torsions:
REMARK  status: ('A' for Active; 'I' for Inactive)
REMARK    1  A    between atoms: CA   and  CB  
REMARK    2  A    between atoms: CB   and  CG  
REMARK    3  A    between atoms: CG   and  CD  
REMARK    4  A    between atoms: CD   and  CE  
ROOT
ATOM      1  CA  LYS A 131      29.867  25.555  16.977  1.00 20.52     0.186 C 
ENDROOT
BRANCH   1   2
ATOM      2  CB  LYS A 131      28.345  25.722  17.026  1.00 20.94     0.034 C 
BRANCH   2   3
ATOM      3  CG  LYS A 131      27.602  24.398  16.935  1.00 22.96     0.005 C 
BRANCH   3   4
ATOM      4  CD  LYS A 131      26.148  24.538  17.292  1.00 24.33     0.041 C 
BRANCH   4   5
ATOM      5  CE  LYS A 131      25.960  24.255  18.779  1.00 26.91     0.338 C 
ATOM      6  NZ  LYS A 131      25.778  25.520  19.529  1.00 27.40     0.618 N 
ENDBRANCH   4   5
ENDBRANCH   3   4
ENDBRANCH   2   3
ENDBRANCH   1   2
END_RES LYS A 131
BEGIN_RES LYS A 135
REMARK  4 active torsions:
REMARK  status: ('A' for Active; 'I' for Inactive)
REMARK    5  A    between atoms: CA   and  CB  
REMARK    6  A    between atoms: CB   and  CG  
REMARK    7  A    between atoms: CG   and  CD  
REMARK    8  A    between atoms: CD   and  CE  
ROOT
ATOM      7  CA  LYS A 135      33.193  34.663   9.290  1.00 25.02     0.186 C 
ENDROOT
BRANCH   7   8
ATOM      8  CB  LYS A 135      32.060  35.360  10.034  1.00 26.63     0.034 C 
BRANCH   8   9
ATOM      9  CG  LYS A 135      30.907  35.750   9.146  1.00 29.45     0.005 C 
BRANCH   9  10
ATOM     10  CD  LYS A 135      30.430  34.559   8.331  1.00 32.00     0.041 C 
BRANCH  10  11
ATOM     11  CE  LYS A 135      28.915  34.485   8.331  1.00 34.25     0.338 C 
ATOM     12  NZ  LYS A 135      28.417  33.685   9.485  1.00 35.99     0.618 N 
ENDBRANCH  10  11
ENDBRANCH   9  10
ENDBRANCH   8   9
ENDBRANCH   7   8
END_RES LYS A 135
