REMARK VINA RESULT:    -4.914      0.000      0.000
REMARK INTER + INTRA:         -22.759
REMARK INTER:                 -11.773
REMARK INTRA:                 -10.986
REMARK UNBOUND:               -10.664
REMARK SMILES CC(=O)N[C@@H]1[C@@H](O)C[C@](OC[C@H]2O[C@@H](O[C@H]3[C@H](O)[C@@H](O)[C@H](OCCN=[N+]=[N-])O[C@@H]3CO)[C@H](O)[C@@H](O)[C@H]2O)(C(=O)O)O[C@H]1C(O)[C@H](O)CNC(=O)OCc1cn(-c2ccc(Br)cc2)nn1
REMARK SMILES IDX 9 1 8 2 6 3 5 4 42 5 41 6 10 7 11 8 12 9 14 10 13 11 32 12
REMARK SMILES IDX 34 13 36 14 15 15 16 16 29 17 28 18 21 19 17 20 19 21 30 22
REMARK SMILES IDX 31 23 22 25 23 26 24 27 25 28 26 29 27 30 18 31 20 33 33 35
REMARK SMILES IDX 35 37 37 39 38 41 39 42 40 43 7 45 43 47 44 48 45 50 46 51
REMARK SMILES IDX 47 53 48 54 49 55 50 57 51 58 52 59 53 60 54 61 64 62 55 63
REMARK SMILES IDX 63 64 56 65 57 66 62 67 58 68 61 69 59 70 60 71 4 72 2 73
REMARK SMILES IDX 1 75 3 76
REMARK H PARENT 31 24 18 32 20 34 33 36 35 38 37 40 40 44 7 46 44 49 46 52
REMARK H PARENT 48 56 4 74
REMARK Flexibility Score: inf
ROOT
ATOM      1  C   UNL     1      29.058  31.699  17.719  1.00  0.00     0.272 C 
ATOM      2  C   UNL     1      30.221  31.138  16.856  1.00  0.00     0.113 C 
ATOM      3  C   UNL     1      30.485  32.104  15.763  1.00  0.00     0.145 C 
ATOM      4  C   UNL     1      30.817  33.454  16.430  1.00  0.00     0.142 C 
ATOM      5  C   UNL     1      29.519  33.894  17.066  1.00  0.00     0.178 C 
ATOM      6  O   UNL     1      29.277  32.996  18.081  1.00  0.00    -0.332 OA
ENDROOT
BRANCH   1   7
ATOM      7  O   UNL     1      29.125  30.900  18.865  1.00  0.00    -0.338 OA
BRANCH   7   8
ATOM      8  C   UNL     1      30.377  30.631  19.329  1.00  0.00     0.199 C 
BRANCH   8   9
ATOM      9  C   UNL     1      30.211  30.133  20.780  1.00  0.00     0.179 C 
ATOM     10  C   UNL     1      28.609  28.992  22.019  1.00  0.00     0.282 C 
ATOM     11  O   UNL     1      28.894  29.973  21.102  1.00  0.00    -0.341 OA
ATOM     12  C   UNL     1      29.730  28.639  22.910  1.00  0.00     0.202 C 
ATOM     13  C   UNL     1      31.042  28.371  22.246  1.00  0.00     0.179 C 
ATOM     14  C   UNL     1      30.985  28.825  20.823  1.00  0.00     0.177 C 
BRANCH  10  15
ATOM     15  O   UNL     1      28.022  27.945  21.309  1.00  0.00    -0.341 OA
BRANCH  15  16
ATOM     16  C   UNL     1      26.848  28.332  20.688  1.00  0.00     0.184 C 
ATOM     17  C   UNL     1      25.655  27.640  21.265  1.00  0.00     0.178 C 
ATOM     18  O   UNL     1      24.510  28.165  20.736  1.00  0.00    -0.341 OA
ATOM     19  C   UNL     1      24.588  28.884  19.583  1.00  0.00     0.281 C 
ATOM     20  C   UNL     1      26.865  27.920  19.207  1.00  0.00     0.180 C 
ATOM     21  C   UNL     1      25.575  28.374  18.557  1.00  0.00     0.202 C 
BRANCH  17  22
ATOM     22  C   UNL     1      25.622  27.858  22.766  1.00  0.00     0.191 C 
BRANCH  22  23
ATOM     23  O   UNL     1      26.272  26.839  23.421  1.00  0.00    -0.394 OA
ATOM     24  H   UNL     1      26.204  26.001  22.931  1.00  0.00     0.210 HD
ENDBRANCH  22  23
ENDBRANCH  17  22
BRANCH  19  25
ATOM     25  O   UNL     1      24.719  30.252  19.796  1.00  0.00    -0.350 OA
BRANCH  25  26
ATOM     26  C   UNL     1      23.687  30.814  20.521  1.00  0.00     0.169 C 
BRANCH  26  27
ATOM     27  C   UNL     1      23.884  32.253  20.865  1.00  0.00     0.119 C 
BRANCH  27  28
ATOM     28  N   UNL     1      24.200  33.008  19.664  1.00  0.00    -0.092 NA
ATOM     29  N   UNL     1      25.275  33.614  19.648  1.00  0.00     0.001 N 
ATOM     30  N   UNL     1      26.390  34.155  19.494  1.00  0.00    -0.003 NA
ENDBRANCH  27  28
ENDBRANCH  26  27
ENDBRANCH  25  26
ENDBRANCH  19  25
BRANCH  20  31
ATOM     31  O   UNL     1      28.002  28.405  18.586  1.00  0.00    -0.387 OA
ATOM     32  H   UNL     1      27.778  29.052  17.865  1.00  0.00     0.211 HD
ENDBRANCH  20  31
BRANCH  21  33
ATOM     33  O   UNL     1      24.989  27.420  17.757  1.00  0.00    -0.385 OA
ATOM     34  H   UNL     1      25.703  26.900  17.318  1.00  0.00     0.211 HD
ENDBRANCH  21  33
ENDBRANCH  15  16
ENDBRANCH  10  15
BRANCH  12  35
ATOM     35  O   UNL     1      29.850  29.697  23.853  1.00  0.00    -0.385 OA
ATOM     36  H   UNL     1      28.977  30.183  23.914  1.00  0.00     0.211 HD
ENDBRANCH  12  35
BRANCH  13  37
ATOM     37  O   UNL     1      31.336  26.987  22.265  1.00  0.00    -0.387 OA
ATOM     38  H   UNL     1      32.283  26.918  21.985  1.00  0.00     0.211 HD
ENDBRANCH  13  37
BRANCH  14  39
ATOM     39  O   UNL     1      30.429  27.867  19.980  1.00  0.00    -0.387 OA
ATOM     40  H   UNL     1      31.043  27.100  19.864  1.00  0.00     0.211 HD
ENDBRANCH  14  39
ENDBRANCH   8   9
ENDBRANCH   7   8
ENDBRANCH   1   7
BRANCH   1  41
ATOM     41  C   UNL     1      27.824  31.396  16.997  1.00  0.00     0.364 C 
ATOM     42  O   UNL     1      27.624  30.320  16.383  1.00  0.00    -0.246 OA
BRANCH  41  43
ATOM     43  O   UNL     1      26.791  32.313  16.962  1.00  0.00    -0.477 OA
ATOM     44  H   UNL     1      26.619  32.948  16.184  1.00  0.00     0.296 HD
ENDBRANCH  41  43
ENDBRANCH   1  41
BRANCH   3  45
ATOM     45  O   UNL     1      31.618  31.772  15.034  1.00  0.00    -0.391 OA
ATOM     46  H   UNL     1      32.418  32.006  15.549  1.00  0.00     0.211 HD
ENDBRANCH   3  45
BRANCH   5  47
ATOM     47  C   UNL     1      29.540  35.257  17.668  1.00  0.00     0.176 C 
BRANCH  47  48
ATOM     48  O   UNL     1      29.241  35.059  19.047  1.00  0.00    -0.388 OA
ATOM     49  H   UNL     1      28.322  35.389  19.213  1.00  0.00     0.211 HD
ENDBRANCH  47  48
BRANCH  47  50
ATOM     50  C   UNL     1      28.424  36.176  17.195  1.00  0.00     0.165 C 
BRANCH  50  51
ATOM     51  O   UNL     1      27.364  35.274  16.900  1.00  0.00    -0.388 OA
ATOM     52  H   UNL     1      27.714  34.330  16.962  1.00  0.00     0.211 HD
ENDBRANCH  50  51
BRANCH  50  53
ATOM     53  C   UNL     1      28.767  36.856  15.915  1.00  0.00     0.154 C 
BRANCH  53  54
ATOM     54  N   UNL     1      27.981  36.374  14.825  1.00  0.00    -0.319 N 
ATOM     55  C   UNL     1      28.500  35.963  13.557  1.00  0.00     0.407 C 
ATOM     56  H   UNL     1      26.917  36.299  14.918  1.00  0.00     0.167 HD
ATOM     57  O   UNL     1      29.737  36.027  13.365  1.00  0.00    -0.225 OA
BRANCH  55  58
ATOM     58  O   UNL     1      27.686  35.498  12.551  1.00  0.00    -0.443 OA
BRANCH  58  59
ATOM     59  C   UNL     1      26.290  35.585  12.674  1.00  0.00     0.294 C 
BRANCH  59  60
ATOM     60  C   UNL     1      25.778  34.307  13.215  1.00  0.00     0.121 A 
ATOM     61  C   UNL     1      24.782  33.534  12.605  1.00  0.00     0.144 A 
ATOM     62  N   UNL     1      26.105  33.632  14.328  1.00  0.00    -0.131 NA
ATOM     63  N   UNL     1      24.556  32.448  13.364  1.00  0.00    -0.220 N 
ATOM     64  N   UNL     1      25.371  32.537  14.397  1.00  0.00    -0.062 NA
BRANCH  63  65
ATOM     65  C   UNL     1      23.598  31.449  13.040  1.00  0.00     0.066 A 
ATOM     66  C   UNL     1      23.856  30.118  12.961  1.00  0.00     0.029 A 
ATOM     67  C   UNL     1      22.304  31.897  12.799  1.00  0.00     0.029 A 
ATOM     68  C   UNL     1      22.832  29.250  12.647  1.00  0.00     0.018 A 
ATOM     69  C   UNL     1      21.292  31.018  12.486  1.00  0.00     0.018 A 
ATOM     70  C   UNL     1      21.546  29.665  12.404  1.00  0.00     0.018 A 
ATOM     71  Br  UNL     1      20.157  28.430  11.975  1.00  0.00    -0.051 Br
ENDBRANCH  63  65
ENDBRANCH  59  60
ENDBRANCH  58  59
ENDBRANCH  55  58
ENDBRANCH  53  54
ENDBRANCH  50  53
ENDBRANCH  47  50
ENDBRANCH   5  47
BRANCH   4  72
ATOM     72  N   UNL     1      31.307  34.308  15.391  1.00  0.00    -0.348 N 
ATOM     73  C   UNL     1      32.436  35.152  15.570  1.00  0.00     0.217 C 
ATOM     74  H   UNL     1      30.828  34.319  14.473  1.00  0.00     0.163 HD
ATOM     75  C   UNL     1      32.964  36.048  14.514  1.00  0.00     0.114 C 
ATOM     76  O   UNL     1      33.043  35.158  16.691  1.00  0.00    -0.275 OA
ENDBRANCH   4  72
TORSDOF 30
BEGIN_RES LYS A 131
REMARK  4 active torsions:
REMARK  status: ('A' for Active; 'I' for Inactive)
REMARK    1  A    between atoms: CA   and  CB  
REMARK    2  A    between atoms: CB   and  CG  
REMARK    3  A    between atoms: CG   and  CD  
REMARK    4  A    between atoms: CD   and  CE  
ROOT
ATOM      1  CA  LYS A 131      29.867  25.555  16.977  1.00 20.52     0.186 C 
ENDROOT
BRANCH   1   2
ATOM      2  CB  LYS A 131      28.345  25.722  17.026  1.00 20.94     0.034 C 
BRANCH   2   3
ATOM      3  CG  LYS A 131      27.600  24.412  16.819  1.00 22.96     0.005 C 
BRANCH   3   4
ATOM      4  CD  LYS A 131      26.180  24.485  17.307  1.00 24.33     0.041 C 
BRANCH   4   5
ATOM      5  CE  LYS A 131      26.040  23.674  18.591  1.00 26.91     0.338 C 
ATOM      6  NZ  LYS A 131      25.467  24.510  19.673  1.00 27.40     0.618 N 
ENDBRANCH   4   5
ENDBRANCH   3   4
ENDBRANCH   2   3
ENDBRANCH   1   2
END_RES LYS A 131
BEGIN_RES LYS A 135
REMARK  4 active torsions:
REMARK  status: ('A' for Active; 'I' for Inactive)
REMARK    5  A    between atoms: CA   and  CB  
REMARK    6  A    between atoms: CB   and  CG  
REMARK    7  A    between atoms: CG   and  CD  
REMARK    8  A    between atoms: CD   and  CE  
ROOT
ATOM      7  CA  LYS A 135      33.193  34.663   9.290  1.00 25.02     0.186 C 
ENDROOT
BRANCH   7   8
ATOM      8  CB  LYS A 135      32.060  35.360  10.034  1.00 26.63     0.034 C 
BRANCH   8   9
ATOM      9  CG  LYS A 135      30.790  35.470   9.231  1.00 29.45     0.005 C 
BRANCH   9  10
ATOM     10  CD  LYS A 135      29.824  34.354   9.597  1.00 32.00     0.041 C 
BRANCH  10  11
ATOM     11  CE  LYS A 135      28.431  34.664   9.084  1.00 34.25     0.338 C 
ATOM     12  NZ  LYS A 135      27.435  33.694   9.616  1.00 35.99     0.618 N 
ENDBRANCH  10  11
ENDBRANCH   9  10
ENDBRANCH   8   9
ENDBRANCH   7   8
END_RES LYS A 135
