REMARK VINA RESULT:    -4.183      3.125      9.971
REMARK INTER + INTRA:         -21.242
REMARK INTER:                 -10.810
REMARK INTRA:                 -10.431
REMARK UNBOUND:               -10.944
REMARK SMILES CC(=O)N[C@@H]1[C@@H](O)C[C@](OC[C@H]2O[C@@H](O[C@H]3[C@H](O)[C@@H](O)[C@H](OCCN=[N+]=[N-])O[C@@H]3CO)[C@H](O)[C@@H](O)[C@H]2O)(C(=O)O)O[C@H]1C(O)[C@H](O)CNC(=O)OCc1cn(-c2cccnc2)nn1
REMARK SMILES IDX 9 1 8 2 6 3 5 4 42 5 41 6 10 7 11 8 12 9 14 10 13 11 32 12
REMARK SMILES IDX 34 13 36 14 15 15 16 16 29 17 28 18 21 19 17 20 19 21 30 22
REMARK SMILES IDX 31 23 22 25 23 26 24 27 25 28 26 29 27 30 18 31 20 33 33 35
REMARK SMILES IDX 35 37 37 39 38 41 39 42 40 43 7 45 43 47 44 48 45 50 46 51
REMARK SMILES IDX 47 53 48 54 49 55 50 57 51 58 52 59 53 60 54 61 63 62 55 63
REMARK SMILES IDX 62 64 56 65 57 66 61 67 58 68 60 69 59 70 4 71 2 72 1 74
REMARK SMILES IDX 3 75
REMARK H PARENT 31 24 18 32 20 34 33 36 35 38 37 40 40 44 7 46 44 49 46 52
REMARK H PARENT 48 56 4 73
REMARK Flexibility Score: inf
ROOT
ATOM      1  C   UNL     1      29.199  32.678  17.383  1.00  0.00     0.272 C 
ATOM      2  C   UNL     1      30.315  32.019  16.679  1.00  0.00     0.113 C 
ATOM      3  C   UNL     1      30.393  32.416  15.247  1.00  0.00     0.145 C 
ATOM      4  C   UNL     1      30.115  33.876  14.995  1.00  0.00     0.142 C 
ATOM      5  C   UNL     1      29.823  34.646  16.233  1.00  0.00     0.178 C 
ATOM      6  O   UNL     1      28.931  34.000  17.078  1.00  0.00    -0.332 OA
ENDROOT
BRANCH   1   7
ATOM      7  O   UNL     1      29.366  32.670  18.766  1.00  0.00    -0.338 OA
BRANCH   7   8
ATOM      8  C   UNL     1      30.640  32.711  19.234  1.00  0.00     0.199 C 
BRANCH   8   9
ATOM      9  C   UNL     1      30.598  33.449  20.587  1.00  0.00     0.179 C 
ATOM     10  C   UNL     1      31.560  31.723  21.845  1.00  0.00     0.282 C 
ATOM     11  O   UNL     1      30.502  32.570  21.596  1.00  0.00    -0.341 OA
ATOM     12  C   UNL     1      32.851  32.459  21.743  1.00  0.00     0.202 C 
ATOM     13  C   UNL     1      32.547  33.954  21.924  1.00  0.00     0.179 C 
ATOM     14  C   UNL     1      31.753  34.427  20.716  1.00  0.00     0.177 C 
BRANCH  10  15
ATOM     15  O   UNL     1      31.430  30.660  20.954  1.00  0.00    -0.341 OA
BRANCH  15  16
ATOM     16  C   UNL     1      30.622  29.658  21.382  1.00  0.00     0.184 C 
ATOM     17  C   UNL     1      31.287  28.340  21.637  1.00  0.00     0.178 C 
ATOM     18  O   UNL     1      30.503  27.653  22.564  1.00  0.00    -0.341 OA
ATOM     19  C   UNL     1      29.140  27.713  22.296  1.00  0.00     0.281 C 
ATOM     20  C   UNL     1      29.495  29.331  20.408  1.00  0.00     0.180 C 
ATOM     21  C   UNL     1      28.833  28.018  20.849  1.00  0.00     0.202 C 
BRANCH  17  22
ATOM     22  C   UNL     1      32.691  28.386  22.114  1.00  0.00     0.191 C 
BRANCH  22  23
ATOM     23  O   UNL     1      32.837  29.115  23.265  1.00  0.00    -0.394 OA
ATOM     24  H   UNL     1      32.281  28.688  23.965  1.00  0.00     0.210 HD
ENDBRANCH  22  23
ENDBRANCH  17  22
BRANCH  19  25
ATOM     25  O   UNL     1      28.465  28.594  23.091  1.00  0.00    -0.350 OA
BRANCH  25  26
ATOM     26  C   UNL     1      27.180  28.354  23.425  1.00  0.00     0.169 C 
BRANCH  26  27
ATOM     27  C   UNL     1      26.778  26.959  23.750  1.00  0.00     0.119 C 
BRANCH  27  28
ATOM     28  N   UNL     1      25.470  26.557  23.360  1.00  0.00    -0.092 NA
ATOM     29  N   UNL     1      25.086  25.370  23.414  1.00  0.00     0.001 N 
ATOM     30  N   UNL     1      24.990  24.201  23.000  1.00  0.00    -0.003 NA
ENDBRANCH  27  28
ENDBRANCH  26  27
ENDBRANCH  25  26
ENDBRANCH  19  25
BRANCH  20  31
ATOM     31  O   UNL     1      28.523  30.320  20.481  1.00  0.00    -0.387 OA
ATOM     32  H   UNL     1      27.999  30.408  19.643  1.00  0.00     0.211 HD
ENDBRANCH  20  31
BRANCH  21  33
ATOM     33  O   UNL     1      29.209  26.954  20.032  1.00  0.00    -0.385 OA
ATOM     34  H   UNL     1      28.744  26.141  20.351  1.00  0.00     0.211 HD
ENDBRANCH  21  33
ENDBRANCH  15  16
ENDBRANCH  10  15
BRANCH  12  35
ATOM     35  O   UNL     1      33.659  32.147  22.852  1.00  0.00    -0.385 OA
ATOM     36  H   UNL     1      33.057  31.863  23.606  1.00  0.00     0.211 HD
ENDBRANCH  12  35
BRANCH  13  37
ATOM     37  O   UNL     1      33.672  34.704  22.146  1.00  0.00    -0.387 OA
ATOM     38  H   UNL     1      34.463  34.112  22.212  1.00  0.00     0.211 HD
ENDBRANCH  13  37
BRANCH  14  39
ATOM     39  O   UNL     1      32.542  34.485  19.586  1.00  0.00    -0.387 OA
ATOM     40  H   UNL     1      31.937  34.564  18.800  1.00  0.00     0.211 HD
ENDBRANCH  14  39
ENDBRANCH   8   9
ENDBRANCH   7   8
ENDBRANCH   1   7
BRANCH   1  41
ATOM     41  C   UNL     1      27.955  31.863  17.093  1.00  0.00     0.364 C 
ATOM     42  O   UNL     1      27.696  30.895  17.827  1.00  0.00    -0.246 OA
BRANCH  41  43
ATOM     43  O   UNL     1      27.104  32.146  16.053  1.00  0.00    -0.477 OA
ATOM     44  H   UNL     1      26.593  33.012  15.935  1.00  0.00     0.296 HD
ENDBRANCH  41  43
ENDBRANCH   1  41
BRANCH   3  45
ATOM     45  O   UNL     1      31.699  32.087  14.814  1.00  0.00    -0.391 OA
ATOM     46  H   UNL     1      31.779  32.093  13.842  1.00  0.00     0.211 HD
ENDBRANCH   3  45
BRANCH   5  47
ATOM     47  C   UNL     1      31.011  35.173  16.965  1.00  0.00     0.176 C 
BRANCH  47  48
ATOM     48  O   UNL     1      30.581  36.282  17.738  1.00  0.00    -0.388 OA
ATOM     49  H   UNL     1      31.187  37.051  17.550  1.00  0.00     0.211 HD
ENDBRANCH  47  48
BRANCH  47  50
ATOM     50  C   UNL     1      32.151  35.670  16.134  1.00  0.00     0.165 C 
BRANCH  50  51
ATOM     51  O   UNL     1      33.275  35.530  17.057  1.00  0.00    -0.388 OA
ATOM     52  H   UNL     1      34.074  35.688  16.498  1.00  0.00     0.211 HD
ENDBRANCH  50  51
BRANCH  50  53
ATOM     53  C   UNL     1      32.159  37.138  15.853  1.00  0.00     0.154 C 
BRANCH  53  54
ATOM     54  N   UNL     1      33.258  37.891  16.364  1.00  0.00    -0.319 N 
ATOM     55  C   UNL     1      32.999  38.809  17.449  1.00  0.00     0.407 C 
ATOM     56  H   UNL     1      34.225  37.843  16.057  1.00  0.00     0.167 HD
ATOM     57  O   UNL     1      31.831  38.890  17.882  1.00  0.00    -0.225 OA
BRANCH  55  58
ATOM     58  O   UNL     1      33.996  39.576  17.998  1.00  0.00    -0.443 OA
BRANCH  58  59
ATOM     59  C   UNL     1      34.499  39.267  19.274  1.00  0.00     0.294 C 
BRANCH  59  60
ATOM     60  C   UNL     1      34.992  37.874  19.269  1.00  0.00     0.121 A 
ATOM     61  C   UNL     1      36.119  37.349  18.681  1.00  0.00     0.144 A 
ATOM     62  N   UNL     1      34.385  36.811  19.878  1.00  0.00    -0.131 NA
ATOM     63  N   UNL     1      36.178  36.032  18.932  1.00  0.00    -0.219 N 
ATOM     64  N   UNL     1      35.114  35.737  19.658  1.00  0.00    -0.062 NA
BRANCH  63  65
ATOM     65  C   UNL     1      37.138  35.051  18.552  1.00  0.00     0.085 A 
ATOM     66  C   UNL     1      37.592  34.080  19.418  1.00  0.00     0.031 A 
ATOM     67  C   UNL     1      37.671  35.036  17.277  1.00  0.00     0.139 A 
ATOM     68  C   UNL     1      38.527  33.146  19.030  1.00  0.00     0.022 A 
ATOM     69  N   UNL     1      38.592  34.112  16.906  1.00  0.00    -0.262 NA
ATOM     70  C   UNL     1      39.035  33.164  17.751  1.00  0.00     0.111 A 
ENDBRANCH  63  65
ENDBRANCH  59  60
ENDBRANCH  58  59
ENDBRANCH  55  58
ENDBRANCH  53  54
ENDBRANCH  50  53
ENDBRANCH  47  50
ENDBRANCH   5  47
BRANCH   4  71
ATOM     71  N   UNL     1      29.019  34.035  14.044  1.00  0.00    -0.348 N 
ATOM     72  C   UNL     1      28.933  35.092  13.105  1.00  0.00     0.217 C 
ATOM     73  H   UNL     1      28.225  33.339  14.026  1.00  0.00     0.163 HD
ATOM     74  C   UNL     1      27.785  35.216  12.153  1.00  0.00     0.114 C 
ATOM     75  O   UNL     1      29.840  35.967  13.051  1.00  0.00    -0.275 OA
ENDBRANCH   4  71
TORSDOF 30
BEGIN_RES LYS A 131
REMARK  4 active torsions:
REMARK  status: ('A' for Active; 'I' for Inactive)
REMARK    1  A    between atoms: CA   and  CB  
REMARK    2  A    between atoms: CB   and  CG  
REMARK    3  A    between atoms: CG   and  CD  
REMARK    4  A    between atoms: CD   and  CE  
ROOT
ATOM      1  CA  LYS A 131      29.867  25.555  16.977  1.00 20.52     0.186 C 
ENDROOT
BRANCH   1   2
ATOM      2  CB  LYS A 131      28.345  25.722  17.026  1.00 20.94     0.034 C 
BRANCH   2   3
ATOM      3  CG  LYS A 131      27.603  24.395  16.972  1.00 22.96     0.005 C 
BRANCH   3   4
ATOM      4  CD  LYS A 131      26.438  24.359  17.921  1.00 24.33     0.041 C 
BRANCH   4   5
ATOM      5  CE  LYS A 131      26.159  25.766  18.439  1.00 26.91     0.338 C 
ATOM      6  NZ  LYS A 131      25.900  25.740  19.898  1.00 27.40     0.618 N 
ENDBRANCH   4   5
ENDBRANCH   3   4
ENDBRANCH   2   3
ENDBRANCH   1   2
END_RES LYS A 131
BEGIN_RES LYS A 135
REMARK  4 active torsions:
REMARK  status: ('A' for Active; 'I' for Inactive)
REMARK    5  A    between atoms: CA   and  CB  
REMARK    6  A    between atoms: CB   and  CG  
REMARK    7  A    between atoms: CG   and  CD  
REMARK    8  A    between atoms: CD   and  CE  
ROOT
ATOM      7  CA  LYS A 135      33.193  34.663   9.290  1.00 25.02     0.186 C 
ENDROOT
BRANCH   7   8
ATOM      8  CB  LYS A 135      32.060  35.360  10.034  1.00 26.63     0.034 C 
BRANCH   8   9
ATOM      9  CG  LYS A 135      30.716  34.709   9.831  1.00 29.45     0.005 C 
BRANCH   9  10
ATOM     10  CD  LYS A 135      30.498  34.374   8.364  1.00 32.00     0.041 C 
BRANCH  10  11
ATOM     11  CE  LYS A 135      29.348  35.184   7.797  1.00 34.25     0.338 C 
ATOM     12  NZ  LYS A 135      28.037  34.655   8.266  1.00 35.99     0.618 N 
ENDBRANCH  10  11
ENDBRANCH   9  10
ENDBRANCH   8   9
ENDBRANCH   7   8
END_RES LYS A 135
