REMARK VINA RESULT:    -5.068      5.256     10.906
REMARK INTER + INTRA:         -22.891
REMARK INTER:                 -13.239
REMARK INTRA:                  -9.652
REMARK UNBOUND:               -10.416
REMARK SMILES CC(=O)N[C@@H]1[C@@H](O)C[C@](OC[C@H]2O[C@@H](O[C@H]3[C@H](O)[C@@H](O)[C@H](OCCN=[N+]=[N-])O[C@@H]3CO)[C@H](O)[C@@H](O)[C@H]2O)(C(=O)O)O[C@H]1C(O)[C@H](O)CNC(=O)OCc1cn(-c2ccc3c(c2)OCO3)nn1
REMARK SMILES IDX 9 1 8 2 6 3 5 4 42 5 41 6 10 7 11 8 12 9 14 10 13 11 32 12
REMARK SMILES IDX 34 13 36 14 15 15 16 16 29 17 28 18 21 19 17 20 19 21 30 22
REMARK SMILES IDX 31 23 22 25 23 26 24 27 25 28 26 29 27 30 18 31 20 33 33 35
REMARK SMILES IDX 35 37 37 39 38 41 39 42 40 43 7 45 43 47 44 48 45 50 46 51
REMARK SMILES IDX 47 53 48 54 49 55 50 57 51 58 52 59 53 60 54 61 66 62 55 63
REMARK SMILES IDX 65 64 56 65 57 66 61 67 58 68 60 69 59 70 62 71 64 72 63 73
REMARK SMILES IDX 4 74 2 75 1 77 3 78
REMARK H PARENT 31 24 18 32 20 34 33 36 35 38 37 40 40 44 7 46 44 49 46 52
REMARK H PARENT 48 56 4 76
REMARK Flexibility Score: inf
ROOT
ATOM      1  C   UNL     1      27.896  29.338  20.971  1.00  0.00     0.272 C 
ATOM      2  C   UNL     1      27.829  30.615  21.761  1.00  0.00     0.113 C 
ATOM      3  C   UNL     1      29.034  31.532  21.477  1.00  0.00     0.145 C 
ATOM      4  C   UNL     1      30.229  30.805  22.055  1.00  0.00     0.142 C 
ATOM      5  C   UNL     1      30.207  29.424  21.433  1.00  0.00     0.178 C 
ATOM      6  O   UNL     1      29.238  29.217  20.511  1.00  0.00    -0.332 OA
ENDROOT
BRANCH   1   7
ATOM      7  O   UNL     1      27.153  29.329  19.877  1.00  0.00    -0.338 OA
BRANCH   7   8
ATOM      8  C   UNL     1      26.309  30.164  19.354  1.00  0.00     0.199 C 
BRANCH   8   9
ATOM      9  C   UNL     1      26.470  30.701  17.957  1.00  0.00     0.179 C 
ATOM     10  C   UNL     1      27.634  32.399  16.866  1.00  0.00     0.282 C 
ATOM     11  O   UNL     1      27.102  31.916  18.033  1.00  0.00    -0.341 OA
ATOM     12  C   UNL     1      27.209  31.652  15.646  1.00  0.00     0.202 C 
ATOM     13  C   UNL     1      27.507  30.167  15.760  1.00  0.00     0.179 C 
ATOM     14  C   UNL     1      27.364  29.704  17.175  1.00  0.00     0.177 C 
BRANCH  10  15
ATOM     15  O   UNL     1      29.032  32.252  16.962  1.00  0.00    -0.341 OA
BRANCH  15  16
ATOM     16  C   UNL     1      29.665  33.386  17.400  1.00  0.00     0.184 C 
ATOM     17  C   UNL     1      29.096  34.586  16.690  1.00  0.00     0.178 C 
ATOM     18  O   UNL     1      29.685  34.848  15.476  1.00  0.00    -0.341 OA
ATOM     19  C   UNL     1      30.185  33.702  14.856  1.00  0.00     0.281 C 
ATOM     20  C   UNL     1      31.141  33.208  17.128  1.00  0.00     0.180 C 
ATOM     21  C   UNL     1      31.329  33.098  15.632  1.00  0.00     0.202 C 
BRANCH  17  22
ATOM     22  C   UNL     1      29.222  35.846  17.536  1.00  0.00     0.191 C 
BRANCH  22  23
ATOM     23  O   UNL     1      29.399  35.537  18.878  1.00  0.00    -0.394 OA
ATOM     24  H   UNL     1      28.990  36.227  19.487  1.00  0.00     0.210 HD
ENDBRANCH  22  23
ENDBRANCH  17  22
BRANCH  19  25
ATOM     25  O   UNL     1      30.676  34.123  13.627  1.00  0.00    -0.350 OA
BRANCH  25  26
ATOM     26  C   UNL     1      31.260  35.375  13.784  1.00  0.00     0.169 C 
BRANCH  26  27
ATOM     27  C   UNL     1      32.527  35.499  12.944  1.00  0.00     0.119 C 
BRANCH  27  28
ATOM     28  N   UNL     1      33.602  34.853  13.712  1.00  0.00    -0.092 NA
ATOM     29  N   UNL     1      33.819  35.238  14.882  1.00  0.00     0.001 N 
ATOM     30  N   UNL     1      33.906  35.791  15.992  1.00  0.00    -0.003 NA
ENDBRANCH  27  28
ENDBRANCH  26  27
ENDBRANCH  25  26
ENDBRANCH  19  25
BRANCH  20  31
ATOM     31  O   UNL     1      31.925  34.195  17.690  1.00  0.00    -0.387 OA
ATOM     32  H   UNL     1      31.871  35.075  17.213  1.00  0.00     0.211 HD
ENDBRANCH  20  31
BRANCH  21  33
ATOM     33  O   UNL     1      31.382  31.739  15.314  1.00  0.00    -0.385 OA
ATOM     34  H   UNL     1      30.990  31.163  16.019  1.00  0.00     0.211 HD
ENDBRANCH  21  33
ENDBRANCH  15  16
ENDBRANCH  10  15
BRANCH  12  35
ATOM     35  O   UNL     1      25.867  31.812  15.310  1.00  0.00    -0.385 OA
ATOM     36  H   UNL     1      25.315  31.402  16.046  1.00  0.00     0.211 HD
ENDBRANCH  12  35
BRANCH  13  37
ATOM     37  O   UNL     1      28.807  29.953  15.298  1.00  0.00    -0.387 OA
ATOM     38  H   UNL     1      28.926  29.106  14.829  1.00  0.00     0.211 HD
ENDBRANCH  13  37
BRANCH  14  39
ATOM     39  O   UNL     1      28.629  29.656  17.754  1.00  0.00    -0.387 OA
ATOM     40  H   UNL     1      28.941  30.510  18.096  1.00  0.00     0.211 HD
ENDBRANCH  14  39
ENDBRANCH   8   9
ENDBRANCH   7   8
ENDBRANCH   1   7
BRANCH   1  41
ATOM     41  C   UNL     1      27.676  28.149  21.858  1.00  0.00     0.364 C 
ATOM     42  O   UNL     1      27.405  28.414  23.081  1.00  0.00    -0.246 OA
BRANCH  41  43
ATOM     43  O   UNL     1      27.740  26.846  21.485  1.00  0.00    -0.477 OA
ATOM     44  H   UNL     1      28.546  26.256  21.623  1.00  0.00     0.296 HD
ENDBRANCH  41  43
ENDBRANCH   1  41
BRANCH   3  45
ATOM     45  O   UNL     1      29.116  31.610  20.080  1.00  0.00    -0.391 OA
ATOM     46  H   UNL     1      28.467  32.261  19.733  1.00  0.00     0.211 HD
ENDBRANCH   3  45
BRANCH   5  47
ATOM     47  C   UNL     1      31.537  29.329  20.656  1.00  0.00     0.176 C 
BRANCH  47  48
ATOM     48  O   UNL     1      32.463  30.245  21.065  1.00  0.00    -0.388 OA
ATOM     49  H   UNL     1      32.167  30.824  21.810  1.00  0.00     0.211 HD
ENDBRANCH  47  48
BRANCH  47  50
ATOM     50  C   UNL     1      32.122  27.925  20.742  1.00  0.00     0.165 C 
BRANCH  50  51
ATOM     51  O   UNL     1      31.350  26.993  20.134  1.00  0.00    -0.388 OA
ATOM     52  H   UNL     1      30.440  26.874  20.477  1.00  0.00     0.211 HD
ENDBRANCH  50  51
BRANCH  50  53
ATOM     53  C   UNL     1      32.308  27.640  22.200  1.00  0.00     0.154 C 
BRANCH  53  54
ATOM     54  N   UNL     1      33.515  28.203  22.719  1.00  0.00    -0.319 N 
ATOM     55  C   UNL     1      34.367  27.598  23.679  1.00  0.00     0.407 C 
ATOM     56  H   UNL     1      33.858  29.173  22.387  1.00  0.00     0.167 HD
ATOM     57  O   UNL     1      34.108  26.469  24.143  1.00  0.00    -0.225 OA
BRANCH  55  58
ATOM     58  O   UNL     1      35.520  28.242  24.136  1.00  0.00    -0.443 OA
BRANCH  58  59
ATOM     59  C   UNL     1      35.586  29.614  24.415  1.00  0.00     0.294 C 
BRANCH  59  60
ATOM     60  C   UNL     1      36.503  30.260  23.416  1.00  0.00     0.121 A 
ATOM     61  C   UNL     1      36.159  31.298  22.548  1.00  0.00     0.144 A 
ATOM     62  N   UNL     1      37.790  29.995  23.163  1.00  0.00    -0.131 NA
ATOM     63  N   UNL     1      37.244  31.617  21.809  1.00  0.00    -0.220 N 
ATOM     64  N   UNL     1      38.204  30.802  22.218  1.00  0.00    -0.062 NA
BRANCH  63  65
ATOM     65  C   UNL     1      37.360  32.606  20.815  1.00  0.00     0.070 A 
ATOM     66  C   UNL     1      36.635  33.762  20.896  1.00  0.00     0.032 A 
ATOM     67  C   UNL     1      38.207  32.425  19.749  1.00  0.00     0.079 A 
ATOM     68  C   UNL     1      36.763  34.741  19.900  1.00  0.00     0.053 A 
ATOM     69  C   UNL     1      38.345  33.376  18.761  1.00  0.00     0.167 A 
ATOM     70  C   UNL     1      37.617  34.534  18.845  1.00  0.00     0.165 A 
ATOM     71  O   UNL     1      39.120  33.406  17.623  1.00  0.00    -0.454 OA
ATOM     72  O   UNL     1      37.933  35.318  17.742  1.00  0.00    -0.454 OA
ATOM     73  C   UNL     1      38.633  34.505  16.841  1.00  0.00     0.468 C 
ENDBRANCH  63  65
ENDBRANCH  59  60
ENDBRANCH  58  59
ENDBRANCH  55  58
ENDBRANCH  53  54
ENDBRANCH  50  53
ENDBRANCH  47  50
ENDBRANCH   5  47
BRANCH   4  74
ATOM     74  N   UNL     1      30.142  30.809  23.483  1.00  0.00    -0.348 N 
ATOM     75  C   UNL     1      31.322  30.850  24.313  1.00  0.00     0.217 C 
ATOM     76  H   UNL     1      29.253  30.782  24.026  1.00  0.00     0.163 HD
ATOM     77  C   UNL     1      31.218  30.855  25.797  1.00  0.00     0.114 C 
ATOM     78  O   UNL     1      32.435  30.881  23.776  1.00  0.00    -0.275 OA
ENDBRANCH   4  74
TORSDOF 30
BEGIN_RES LYS A 131
REMARK  4 active torsions:
REMARK  status: ('A' for Active; 'I' for Inactive)
REMARK    1  A    between atoms: CA   and  CB  
REMARK    2  A    between atoms: CB   and  CG  
REMARK    3  A    between atoms: CG   and  CD  
REMARK    4  A    between atoms: CD   and  CE  
ROOT
ATOM      1  CA  LYS A 131      29.867  25.555  16.977  1.00 20.52     0.186 C 
ENDROOT
BRANCH   1   2
ATOM      2  CB  LYS A 131      28.345  25.722  17.026  1.00 20.94     0.034 C 
BRANCH   2   3
ATOM      3  CG  LYS A 131      27.601  24.400  16.908  1.00 22.96     0.005 C 
BRANCH   3   4
ATOM      4  CD  LYS A 131      26.152  24.530  17.287  1.00 24.33     0.041 C 
BRANCH   4   5
ATOM      5  CE  LYS A 131      25.671  23.225  17.912  1.00 26.91     0.338 C 
ATOM      6  NZ  LYS A 131      24.420  22.768  17.261  1.00 27.40     0.618 N 
ENDBRANCH   4   5
ENDBRANCH   3   4
ENDBRANCH   2   3
ENDBRANCH   1   2
END_RES LYS A 131
BEGIN_RES LYS A 135
REMARK  4 active torsions:
REMARK  status: ('A' for Active; 'I' for Inactive)
REMARK    5  A    between atoms: CA   and  CB  
REMARK    6  A    between atoms: CB   and  CG  
REMARK    7  A    between atoms: CG   and  CD  
REMARK    8  A    between atoms: CD   and  CE  
ROOT
ATOM      7  CA  LYS A 135      33.193  34.663   9.290  1.00 25.02     0.186 C 
ENDROOT
BRANCH   7   8
ATOM      8  CB  LYS A 135      32.060  35.360  10.034  1.00 26.63     0.034 C 
BRANCH   8   9
ATOM      9  CG  LYS A 135      30.689  34.899   9.612  1.00 29.45     0.005 C 
BRANCH   9  10
ATOM     10  CD  LYS A 135      29.618  35.526  10.491  1.00 32.00     0.041 C 
BRANCH  10  11
ATOM     11  CE  LYS A 135      28.467  34.560  10.699  1.00 34.25     0.338 C 
ATOM     12  NZ  LYS A 135      28.236  33.730   9.484  1.00 35.99     0.618 N 
ENDBRANCH  10  11
ENDBRANCH   9  10
ENDBRANCH   8   9
ENDBRANCH   7   8
END_RES LYS A 135
