REMARK VINA RESULT:    -5.266      3.890      8.671
REMARK INTER + INTRA:         -23.484
REMARK INTER:                 -13.249
REMARK INTRA:                 -10.235
REMARK UNBOUND:                -9.598
REMARK SMILES CC(=O)N[C@@H]1[C@@H](O)C[C@](OC[C@H]2O[C@@H](O[C@H]3[C@H](O)[C@@H](O)[C@H](OCCN=[N+]=[N-])O[C@@H]3CO)[C@H](O)[C@@H](O)[C@H]2O)(C(=O)O)O[C@H]1C(O)[C@H](O)CNC(=O)OCc1cn(Cc2ccccc2OC(C)=O)nn1
REMARK SMILES IDX 43 1 42 2 9 3 8 4 41 5 6 6 5 7 10 8 11 9 12 10 14 11 13 12
REMARK SMILES IDX 32 13 34 14 36 15 15 16 16 17 29 18 28 19 21 20 17 21 19 22
REMARK SMILES IDX 30 23 31 24 22 26 23 27 24 28 25 29 26 30 27 31 18 32 20 34
REMARK SMILES IDX 33 36 35 38 37 40 38 42 39 43 40 44 7 46 4 48 2 49 1 51 3 52
REMARK SMILES IDX 44 53 45 55 46 56 47 58 48 59 49 60 50 62 51 63 52 64 53 65
REMARK SMILES IDX 54 66 68 67 55 68 67 69 56 70 57 71 62 72 58 73 61 74 59 75
REMARK SMILES IDX 60 76 63 77 64 78 66 79 65 80
REMARK H PARENT 31 25 18 33 20 35 33 37 35 39 37 41 40 45 7 47 4 50 44 54
REMARK H PARENT 46 57 48 61
REMARK Flexibility Score: inf
ROOT
ATOM      1  C   UNL     1      30.132  33.634  13.992  1.00  0.00     0.176 C 
ENDROOT
BRANCH   1   2
ATOM      2  C   UNL     1      29.052  34.695  14.133  1.00  0.00     0.178 C 
ATOM      3  C   UNL     1      27.039  35.369  13.169  1.00  0.00     0.272 C 
ATOM      4  C   UNL     1      27.420  36.610  13.969  1.00  0.00     0.113 C 
ATOM      5  O   UNL     1      28.175  34.530  13.085  1.00  0.00    -0.332 OA
ATOM      6  C   UNL     1      28.802  37.017  13.487  1.00  0.00     0.145 C 
ATOM      7  C   UNL     1      29.774  36.040  14.028  1.00  0.00     0.142 C 
BRANCH   3   8
ATOM      8  O   UNL     1      26.684  35.645  11.883  1.00  0.00    -0.338 OA
BRANCH   8   9
ATOM      9  C   UNL     1      26.887  34.699  10.930  1.00  0.00     0.199 C 
BRANCH   9  10
ATOM     10  C   UNL     1      26.219  35.189   9.634  1.00  0.00     0.179 C 
ATOM     11  C   UNL     1      24.156  35.677   8.746  1.00  0.00     0.282 C 
ATOM     12  O   UNL     1      24.865  35.337   9.949  1.00  0.00    -0.341 OA
ATOM     13  C   UNL     1      24.507  37.098   8.482  1.00  0.00     0.202 C 
ATOM     14  C   UNL     1      26.003  37.111   8.124  1.00  0.00     0.179 C 
ATOM     15  C   UNL     1      26.835  36.476   9.187  1.00  0.00     0.177 C 
BRANCH  11  16
ATOM     16  O   UNL     1      22.847  35.383   9.040  1.00  0.00    -0.341 OA
BRANCH  16  17
ATOM     17  C   UNL     1      22.137  36.537   9.419  1.00  0.00     0.184 C 
ATOM     18  C   UNL     1      21.543  36.463  10.777  1.00  0.00     0.178 C 
ATOM     19  O   UNL     1      20.217  36.907  10.819  1.00  0.00    -0.341 OA
ATOM     20  C   UNL     1      19.998  38.107  10.156  1.00  0.00     0.281 C 
ATOM     21  C   UNL     1      20.889  36.604   8.461  1.00  0.00     0.180 C 
ATOM     22  C   UNL     1      20.321  37.981   8.668  1.00  0.00     0.202 C 
BRANCH  18  23
ATOM     23  C   UNL     1      22.362  37.041  11.889  1.00  0.00     0.191 C 
BRANCH  23  24
ATOM     24  O   UNL     1      22.402  36.140  12.942  1.00  0.00    -0.394 OA
ATOM     25  H   UNL     1      22.372  36.614  13.799  1.00  0.00     0.210 HD
ENDBRANCH  23  24
ENDBRANCH  18  23
BRANCH  20  26
ATOM     26  O   UNL     1      20.761  39.100  10.659  1.00  0.00    -0.350 OA
BRANCH  26  27
ATOM     27  C   UNL     1      20.727  40.343  10.143  1.00  0.00     0.169 C 
BRANCH  27  28
ATOM     28  C   UNL     1      21.945  41.190  10.229  1.00  0.00     0.119 C 
BRANCH  28  29
ATOM     29  N   UNL     1      23.126  40.418  10.044  1.00  0.00    -0.092 NA
ATOM     30  N   UNL     1      23.782  40.448   9.026  1.00  0.00     0.001 N 
ATOM     31  N   UNL     1      24.498  40.759   8.070  1.00  0.00    -0.003 NA
ENDBRANCH  28  29
ENDBRANCH  27  28
ENDBRANCH  26  27
ENDBRANCH  20  26
BRANCH  21  32
ATOM     32  O   UNL     1      21.290  36.347   7.173  1.00  0.00    -0.387 OA
ATOM     33  H   UNL     1      22.209  36.737   7.015  1.00  0.00     0.211 HD
ENDBRANCH  21  32
BRANCH  22  34
ATOM     34  O   UNL     1      19.238  38.236   7.855  1.00  0.00    -0.385 OA
ATOM     35  H   UNL     1      18.457  38.414   8.453  1.00  0.00     0.211 HD
ENDBRANCH  22  34
ENDBRANCH  16  17
ENDBRANCH  11  16
BRANCH  13  36
ATOM     36  O   UNL     1      23.871  37.634   7.373  1.00  0.00    -0.385 OA
ATOM     37  H   UNL     1      23.125  37.098   7.034  1.00  0.00     0.211 HD
ENDBRANCH  13  36
BRANCH  14  38
ATOM     38  O   UNL     1      26.413  38.415   7.837  1.00  0.00    -0.387 OA
ATOM     39  H   UNL     1      27.228  38.578   8.394  1.00  0.00     0.211 HD
ENDBRANCH  14  38
BRANCH  15  40
ATOM     40  O   UNL     1      26.987  37.392  10.226  1.00  0.00    -0.387 OA
ATOM     41  H   UNL     1      27.569  37.076  10.942  1.00  0.00     0.211 HD
ENDBRANCH  15  40
ENDBRANCH   9  10
ENDBRANCH   8   9
ENDBRANCH   3   8
BRANCH   3  42
ATOM     42  C   UNL     1      25.997  34.680  13.962  1.00  0.00     0.364 C 
ATOM     43  O   UNL     1      24.800  34.935  13.844  1.00  0.00    -0.246 OA
BRANCH  42  44
ATOM     44  O   UNL     1      26.394  33.703  14.878  1.00  0.00    -0.477 OA
ATOM     45  H   UNL     1      26.182  33.791  15.883  1.00  0.00     0.296 HD
ENDBRANCH  42  44
ENDBRANCH   3  42
BRANCH   6  46
ATOM     46  O   UNL     1      28.773  36.880  12.096  1.00  0.00    -0.391 OA
ATOM     47  H   UNL     1      28.900  35.952  11.788  1.00  0.00     0.211 HD
ENDBRANCH   6  46
BRANCH   7  48
ATOM     48  N   UNL     1      30.419  36.352  15.234  1.00  0.00    -0.348 N 
ATOM     49  C   UNL     1      31.805  36.658  15.344  1.00  0.00     0.217 C 
ATOM     50  H   UNL     1      29.835  36.358  16.118  1.00  0.00     0.163 HD
ATOM     51  C   UNL     1      32.447  36.980  16.629  1.00  0.00     0.114 C 
ATOM     52  O   UNL     1      32.462  36.644  14.295  1.00  0.00    -0.275 OA
ENDBRANCH   7  48
ENDBRANCH   1   2
BRANCH   1  53
ATOM     53  O   UNL     1      31.124  34.182  13.200  1.00  0.00    -0.388 OA
ATOM     54  H   UNL     1      31.576  34.960  13.589  1.00  0.00     0.211 HD
ENDBRANCH   1  53
BRANCH   1  55
ATOM     55  C   UNL     1      30.598  33.073  15.294  1.00  0.00     0.165 C 
BRANCH  55  56
ATOM     56  O   UNL     1      31.300  31.895  15.024  1.00  0.00    -0.388 OA
ATOM     57  H   UNL     1      30.831  31.107  15.338  1.00  0.00     0.211 HD
ENDBRANCH  55  56
BRANCH  55  58
ATOM     58  C   UNL     1      29.472  32.821  16.267  1.00  0.00     0.154 C 
BRANCH  58  59
ATOM     59  N   UNL     1      28.656  31.695  15.953  1.00  0.00    -0.319 N 
ATOM     60  C   UNL     1      28.419  30.607  16.832  1.00  0.00     0.407 C 
ATOM     61  H   UNL     1      28.186  31.648  15.008  1.00  0.00     0.167 HD
ATOM     62  O   UNL     1      28.969  30.637  17.961  1.00  0.00    -0.225 OA
BRANCH  60  63
ATOM     63  O   UNL     1      27.629  29.528  16.517  1.00  0.00    -0.443 OA
BRANCH  63  64
ATOM     64  C   UNL     1      26.258  29.440  16.903  1.00  0.00     0.294 C 
BRANCH  64  65
ATOM     65  C   UNL     1      25.417  30.358  16.121  1.00  0.00     0.120 A 
ATOM     66  C   UNL     1      25.263  30.284  14.757  1.00  0.00     0.138 A 
ATOM     67  N   UNL     1      24.665  31.391  16.520  1.00  0.00    -0.132 NA
ATOM     68  N   UNL     1      24.437  31.256  14.363  1.00  0.00    -0.248 N 
ATOM     69  N   UNL     1      24.087  31.921  15.480  1.00  0.00    -0.067 NA
BRANCH  68  70
ATOM     70  C   UNL     1      23.969  31.606  13.036  1.00  0.00     0.185 C 
BRANCH  70  71
ATOM     71  C   UNL     1      22.652  31.027  12.752  1.00  0.00     0.016 A 
ATOM     72  C   UNL     1      21.532  31.781  12.688  1.00  0.00     0.135 A 
ATOM     73  C   UNL     1      22.603  29.647  12.534  1.00  0.00     0.009 A 
ATOM     74  C   UNL     1      20.316  31.159  12.398  1.00  0.00     0.047 A 
ATOM     75  C   UNL     1      21.403  29.047  12.250  1.00  0.00     0.001 A 
ATOM     76  C   UNL     1      20.251  29.797  12.179  1.00  0.00     0.004 A 
BRANCH  72  77
ATOM     77  O   UNL     1      21.529  33.144  12.898  1.00  0.00    -0.426 OA
BRANCH  77  78
ATOM     78  C   UNL     1      20.654  33.656  13.862  1.00  0.00     0.308 C 
ATOM     79  O   UNL     1      19.829  34.532  13.520  1.00  0.00    -0.252 OA
ATOM     80  C   UNL     1      20.715  33.163  15.240  1.00  0.00     0.139 C 
ENDBRANCH  77  78
ENDBRANCH  72  77
ENDBRANCH  70  71
ENDBRANCH  68  70
ENDBRANCH  64  65
ENDBRANCH  63  64
ENDBRANCH  60  63
ENDBRANCH  58  59
ENDBRANCH  55  58
ENDBRANCH   1  55
TORSDOF 33
BEGIN_RES LYS A 131
REMARK  4 active torsions:
REMARK  status: ('A' for Active; 'I' for Inactive)
REMARK    1  A    between atoms: CA   and  CB  
REMARK    2  A    between atoms: CB   and  CG  
REMARK    3  A    between atoms: CG   and  CD  
REMARK    4  A    between atoms: CD   and  CE  
ROOT
ATOM      1  CA  LYS A 131      29.867  25.555  16.977  1.00 20.52     0.186 C 
ENDROOT
BRANCH   1   2
ATOM      2  CB  LYS A 131      28.345  25.722  17.026  1.00 20.94     0.034 C 
BRANCH   2   3
ATOM      3  CG  LYS A 131      27.601  24.401  16.901  1.00 22.96     0.005 C 
BRANCH   3   4
ATOM      4  CD  LYS A 131      26.149  24.532  17.267  1.00 24.33     0.041 C 
BRANCH   4   5
ATOM      5  CE  LYS A 131      25.641  23.204  17.819  1.00 26.91     0.338 C 
ATOM      6  NZ  LYS A 131      24.339  22.851  17.206  1.00 27.40     0.618 N 
ENDBRANCH   4   5
ENDBRANCH   3   4
ENDBRANCH   2   3
ENDBRANCH   1   2
END_RES LYS A 131
BEGIN_RES LYS A 135
REMARK  4 active torsions:
REMARK  status: ('A' for Active; 'I' for Inactive)
REMARK    5  A    between atoms: CA   and  CB  
REMARK    6  A    between atoms: CB   and  CG  
REMARK    7  A    between atoms: CG   and  CD  
REMARK    8  A    between atoms: CD   and  CE  
ROOT
ATOM      7  CA  LYS A 135      33.193  34.663   9.290  1.00 25.02     0.186 C 
ENDROOT
BRANCH   7   8
ATOM      8  CB  LYS A 135      32.060  35.360  10.034  1.00 26.63     0.034 C 
BRANCH   8   9
ATOM      9  CG  LYS A 135      30.697  34.804   9.713  1.00 29.45     0.005 C 
BRANCH   9  10
ATOM     10  CD  LYS A 135      30.578  34.495   8.229  1.00 32.00     0.041 C 
BRANCH  10  11
ATOM     11  CE  LYS A 135      29.179  34.801   7.731  1.00 34.25     0.338 C 
ATOM     12  NZ  LYS A 135      29.218  35.550   6.445  1.00 35.99     0.618 N 
ENDBRANCH  10  11
ENDBRANCH   9  10
ENDBRANCH   8   9
ENDBRANCH   7   8
END_RES LYS A 135
