REMARK VINA RESULT:    -3.731      2.659      6.901
REMARK INTER + INTRA:         -21.727
REMARK INTER:                 -10.527
REMARK INTRA:                 -11.200
REMARK UNBOUND:               -12.543
REMARK SMILES CC(=O)N[C@@H]1[C@@H](O)C[C@](OC[C@H]2O[C@@H](O[C@H]3[C@H](O)[C@@H](O)[C@H](OCCN=[N+]=[N-])O[C@@H]3CO)[C@H](O)[C@@H](O)[C@H]2O)(C(=O)O)O[C@H]1C(O)[C@H](O)CNC(=O)OCc1cn(-c2ccncc2)nn1
REMARK SMILES IDX 9 1 8 2 6 3 5 4 42 5 41 6 10 7 11 8 12 9 14 10 13 11 32 12
REMARK SMILES IDX 34 13 36 14 15 15 16 16 29 17 28 18 21 19 17 20 19 21 30 22
REMARK SMILES IDX 31 23 22 25 23 26 24 27 25 28 26 29 27 30 18 31 20 33 33 35
REMARK SMILES IDX 35 37 37 39 38 41 39 42 40 43 7 45 43 47 44 48 45 50 46 51
REMARK SMILES IDX 47 53 48 54 49 55 50 57 51 58 52 59 53 60 54 61 63 62 55 63
REMARK SMILES IDX 62 64 56 65 57 66 61 67 58 68 60 69 59 70 4 71 2 72 1 74
REMARK SMILES IDX 3 75
REMARK H PARENT 31 24 18 32 20 34 33 36 35 38 37 40 40 44 7 46 44 49 46 52
REMARK H PARENT 48 56 4 73
REMARK Flexibility Score: inf
ROOT
ATOM      1  C   UNL     1      29.032  36.076  15.972  1.00  0.00     0.272 C 
ATOM      2  C   UNL     1      28.684  36.108  14.470  1.00  0.00     0.113 C 
ATOM      3  C   UNL     1      28.842  34.711  13.861  1.00  0.00     0.145 C 
ATOM      4  C   UNL     1      30.380  34.414  13.876  1.00  0.00     0.142 C 
ATOM      5  C   UNL     1      30.827  34.665  15.287  1.00  0.00     0.178 C 
ATOM      6  O   UNL     1      29.706  34.844  16.086  1.00  0.00    -0.332 OA
ENDROOT
BRANCH   1   7
ATOM      7  O   UNL     1      27.942  35.943  16.701  1.00  0.00    -0.338 OA
BRANCH   7   8
ATOM      8  C   UNL     1      27.366  36.340  17.748  1.00  0.00     0.199 C 
BRANCH   8   9
ATOM      9  C   UNL     1      26.438  35.452  18.520  1.00  0.00     0.179 C 
ATOM     10  C   UNL     1      24.465  34.259  18.065  1.00  0.00     0.282 C 
ATOM     11  O   UNL     1      25.441  35.086  17.560  1.00  0.00    -0.341 OA
ATOM     12  C   UNL     1      25.040  32.945  18.492  1.00  0.00     0.202 C 
ATOM     13  C   UNL     1      26.190  33.184  19.472  1.00  0.00     0.179 C 
ATOM     14  C   UNL     1      27.156  34.135  18.831  1.00  0.00     0.177 C 
BRANCH  10  15
ATOM     15  O   UNL     1      23.592  34.064  16.964  1.00  0.00    -0.341 OA
BRANCH  15  16
ATOM     16  C   UNL     1      24.013  34.670  15.828  1.00  0.00     0.184 C 
ATOM     17  C   UNL     1      22.980  35.467  15.140  1.00  0.00     0.178 C 
ATOM     18  O   UNL     1      23.541  36.147  14.038  1.00  0.00    -0.341 OA
ATOM     19  C   UNL     1      23.614  35.096  13.048  1.00  0.00     0.281 C 
ATOM     20  C   UNL     1      24.493  33.554  14.849  1.00  0.00     0.180 C 
ATOM     21  C   UNL     1      24.700  34.185  13.485  1.00  0.00     0.202 C 
BRANCH  17  22
ATOM     22  C   UNL     1      22.289  36.438  16.020  1.00  0.00     0.191 C 
BRANCH  22  23
ATOM     23  O   UNL     1      23.174  37.122  16.867  1.00  0.00    -0.394 OA
ATOM     24  H   UNL     1      23.724  36.421  17.326  1.00  0.00     0.210 HD
ENDBRANCH  22  23
ENDBRANCH  17  22
BRANCH  19  25
ATOM     25  O   UNL     1      23.927  35.740  11.883  1.00  0.00    -0.350 OA
BRANCH  25  26
ATOM     26  C   UNL     1      23.059  35.470  10.870  1.00  0.00     0.169 C 
BRANCH  26  27
ATOM     27  C   UNL     1      23.598  35.579   9.481  1.00  0.00     0.119 C 
BRANCH  27  28
ATOM     28  N   UNL     1      24.171  36.879   9.197  1.00  0.00    -0.092 NA
ATOM     29  N   UNL     1      25.357  37.074   8.971  1.00  0.00     0.001 N 
ATOM     30  N   UNL     1      26.583  37.205   9.020  1.00  0.00    -0.003 NA
ENDBRANCH  27  28
ENDBRANCH  26  27
ENDBRANCH  25  26
ENDBRANCH  19  25
BRANCH  20  31
ATOM     31  O   UNL     1      25.710  33.125  15.322  1.00  0.00    -0.387 OA
ATOM     32  H   UNL     1      25.903  33.504  16.238  1.00  0.00     0.211 HD
ENDBRANCH  20  31
BRANCH  21  33
ATOM     33  O   UNL     1      24.914  33.203  12.531  1.00  0.00    -0.385 OA
ATOM     34  H   UNL     1      25.002  33.633  11.641  1.00  0.00     0.211 HD
ENDBRANCH  21  33
ENDBRANCH  15  16
ENDBRANCH  10  15
BRANCH  12  35
ATOM     35  O   UNL     1      24.077  32.173  19.184  1.00  0.00    -0.385 OA
ATOM     36  H   UNL     1      24.557  31.364  19.483  1.00  0.00     0.211 HD
ENDBRANCH  12  35
BRANCH  13  37
ATOM     37  O   UNL     1      26.837  32.025  19.829  1.00  0.00    -0.387 OA
ATOM     38  H   UNL     1      27.798  32.213  20.071  1.00  0.00     0.211 HD
ENDBRANCH  13  37
BRANCH  14  39
ATOM     39  O   UNL     1      27.600  33.646  17.592  1.00  0.00    -0.387 OA
ATOM     40  H   UNL     1      28.288  34.275  17.216  1.00  0.00     0.211 HD
ENDBRANCH  14  39
ENDBRANCH   8   9
ENDBRANCH   7   8
ENDBRANCH   1   7
BRANCH   1  41
ATOM     41  C   UNL     1      29.887  37.210  16.336  1.00  0.00     0.364 C 
ATOM     42  O   UNL     1      30.060  38.201  15.553  1.00  0.00    -0.246 OA
BRANCH  41  43
ATOM     43  O   UNL     1      30.560  37.295  17.532  1.00  0.00    -0.477 OA
ATOM     44  H   UNL     1      30.297  37.835  18.328  1.00  0.00     0.296 HD
ENDBRANCH  41  43
ENDBRANCH   1  41
BRANCH   3  45
ATOM     45  O   UNL     1      28.244  33.784  14.671  1.00  0.00    -0.391 OA
ATOM     46  H   UNL     1      27.573  34.181  15.260  1.00  0.00     0.211 HD
ENDBRANCH   3  45
BRANCH   5  47
ATOM     47  C   UNL     1      31.496  33.447  15.939  1.00  0.00     0.176 C 
BRANCH  47  48
ATOM     48  O   UNL     1      31.754  32.624  14.757  1.00  0.00    -0.388 OA
ATOM     49  H   UNL     1      31.517  31.683  15.014  1.00  0.00     0.211 HD
ENDBRANCH  47  48
BRANCH  47  50
ATOM     50  C   UNL     1      30.680  32.639  16.850  1.00  0.00     0.165 C 
BRANCH  50  51
ATOM     51  O   UNL     1      30.732  32.917  18.195  1.00  0.00    -0.388 OA
ATOM     52  H   UNL     1      30.517  33.870  18.378  1.00  0.00     0.211 HD
ENDBRANCH  50  51
BRANCH  50  53
ATOM     53  C   UNL     1      30.473  31.227  16.463  1.00  0.00     0.154 C 
BRANCH  53  54
ATOM     54  N   UNL     1      29.330  30.961  15.630  1.00  0.00    -0.319 N 
ATOM     55  C   UNL     1      28.074  30.632  16.196  1.00  0.00     0.407 C 
ATOM     56  H   UNL     1      29.466  31.005  14.605  1.00  0.00     0.167 HD
ATOM     57  O   UNL     1      28.005  30.587  17.444  1.00  0.00    -0.225 OA
BRANCH  55  58
ATOM     58  O   UNL     1      26.949  30.365  15.469  1.00  0.00    -0.443 OA
BRANCH  58  59
ATOM     59  C   UNL     1      25.726  29.875  15.974  1.00  0.00     0.294 C 
BRANCH  59  60
ATOM     60  C   UNL     1      24.657  29.856  14.922  1.00  0.00     0.121 A 
ATOM     61  C   UNL     1      23.460  29.174  14.899  1.00  0.00     0.144 A 
ATOM     62  N   UNL     1      24.698  30.542  13.755  1.00  0.00    -0.131 NA
ATOM     63  N   UNL     1      22.822  29.456  13.750  1.00  0.00    -0.220 N 
ATOM     64  N   UNL     1      23.599  30.296  13.065  1.00  0.00    -0.062 NA
BRANCH  63  65
ATOM     65  C   UNL     1      21.556  28.938  13.364  1.00  0.00     0.069 A 
ATOM     66  C   UNL     1      20.952  29.191  12.151  1.00  0.00     0.048 A 
ATOM     67  C   UNL     1      20.890  28.128  14.257  1.00  0.00     0.048 A 
ATOM     68  C   UNL     1      19.718  28.660  11.815  1.00  0.00     0.113 A 
ATOM     69  C   UNL     1      19.656  27.601  13.912  1.00  0.00     0.113 A 
ATOM     70  N   UNL     1      19.102  27.869  12.723  1.00  0.00    -0.265 NA
ENDBRANCH  63  65
ENDBRANCH  59  60
ENDBRANCH  58  59
ENDBRANCH  55  58
ENDBRANCH  53  54
ENDBRANCH  50  53
ENDBRANCH  47  50
ENDBRANCH   5  47
BRANCH   4  71
ATOM     71  N   UNL     1      30.894  35.365  12.921  1.00  0.00    -0.348 N 
ATOM     72  C   UNL     1      32.264  35.632  12.704  1.00  0.00     0.217 C 
ATOM     73  H   UNL     1      30.222  35.903  12.343  1.00  0.00     0.163 HD
ATOM     74  C   UNL     1      32.669  36.626  11.700  1.00  0.00     0.114 C 
ATOM     75  O   UNL     1      33.131  35.024  13.362  1.00  0.00    -0.275 OA
ENDBRANCH   4  71
TORSDOF 30
BEGIN_RES LYS A 131
REMARK  4 active torsions:
REMARK  status: ('A' for Active; 'I' for Inactive)
REMARK    1  A    between atoms: CA   and  CB  
REMARK    2  A    between atoms: CB   and  CG  
REMARK    3  A    between atoms: CG   and  CD  
REMARK    4  A    between atoms: CD   and  CE  
ROOT
ATOM      1  CA  LYS A 131      29.867  25.555  16.977  1.00 20.52     0.186 C 
ENDROOT
BRANCH   1   2
ATOM      2  CB  LYS A 131      28.345  25.722  17.026  1.00 20.94     0.034 C 
BRANCH   2   3
ATOM      3  CG  LYS A 131      27.601  24.401  16.907  1.00 22.96     0.005 C 
BRANCH   3   4
ATOM      4  CD  LYS A 131      26.155  24.528  17.295  1.00 24.33     0.041 C 
BRANCH   4   5
ATOM      5  CE  LYS A 131      25.925  25.876  17.970  1.00 26.91     0.338 C 
ATOM      6  NZ  LYS A 131      24.488  26.065  18.278  1.00 27.40     0.618 N 
ENDBRANCH   4   5
ENDBRANCH   3   4
ENDBRANCH   2   3
ENDBRANCH   1   2
END_RES LYS A 131
BEGIN_RES LYS A 135
REMARK  4 active torsions:
REMARK  status: ('A' for Active; 'I' for Inactive)
REMARK    5  A    between atoms: CA   and  CB  
REMARK    6  A    between atoms: CB   and  CG  
REMARK    7  A    between atoms: CG   and  CD  
REMARK    8  A    between atoms: CD   and  CE  
ROOT
ATOM      7  CA  LYS A 135      33.193  34.663   9.290  1.00 25.02     0.186 C 
ENDROOT
BRANCH   7   8
ATOM      8  CB  LYS A 135      32.060  35.360  10.034  1.00 26.63     0.034 C 
BRANCH   8   9
ATOM      9  CG  LYS A 135      30.794  35.482   9.226  1.00 29.45     0.005 C 
BRANCH   9  10
ATOM     10  CD  LYS A 135      30.131  34.123   9.059  1.00 32.00     0.041 C 
BRANCH  10  11
ATOM     11  CE  LYS A 135      28.672  34.285   8.679  1.00 34.25     0.338 C 
ATOM     12  NZ  LYS A 135      27.779  33.727   9.732  1.00 35.99     0.618 N 
ENDBRANCH  10  11
ENDBRANCH   9  10
ENDBRANCH   8   9
ENDBRANCH   7   8
END_RES LYS A 135
