REMARK VINA RESULT:    -5.277      3.070      9.742
REMARK INTER + INTRA:         -22.566
REMARK INTER:                 -12.131
REMARK INTRA:                 -10.435
REMARK UNBOUND:                -8.960
REMARK SMILES CC(=O)N[C@@H]1[C@@H](O)C[C@](OC[C@H]2O[C@@H](O[C@H]3[C@H](O)[C@@H](O)[C@H](OCCN=[N+]=[N-])O[C@@H]3CO)[C@H](O)[C@@H](O)[C@H]2O)(C(=O)O)O[C@H]1C(O)[C@H](O)CNC(=O)OCc1cn(Cc2cccc(C#N)c2)nn1
REMARK SMILES IDX 9 1 8 2 6 3 5 4 42 5 41 6 10 7 11 8 12 9 14 10 13 11 32 12
REMARK SMILES IDX 34 13 36 14 15 15 16 16 29 17 28 18 21 19 17 20 19 21 30 22
REMARK SMILES IDX 31 23 22 25 23 26 24 27 25 28 26 29 27 30 18 31 20 33 33 35
REMARK SMILES IDX 35 37 37 39 38 41 39 42 40 43 7 45 43 47 44 48 45 50 46 51
REMARK SMILES IDX 47 53 48 54 49 55 50 57 51 58 52 59 53 60 54 61 66 62 55 63
REMARK SMILES IDX 65 64 56 65 57 66 58 67 64 68 59 69 61 70 60 71 62 72 63 73
REMARK SMILES IDX 4 74 2 75 1 77 3 78
REMARK H PARENT 31 24 18 32 20 34 33 36 35 38 37 40 40 44 7 46 44 49 46 52
REMARK H PARENT 48 56 4 76
REMARK Flexibility Score: inf
ROOT
ATOM      1  C   UNL     1      29.654  34.575  14.827  1.00  0.00     0.272 C 
ATOM      2  C   UNL     1      31.098  34.434  15.244  1.00  0.00     0.113 C 
ATOM      3  C   UNL     1      31.477  33.214  15.971  1.00  0.00     0.145 C 
ATOM      4  C   UNL     1      30.329  32.677  16.832  1.00  0.00     0.142 C 
ATOM      5  C   UNL     1      29.049  32.642  16.125  1.00  0.00     0.178 C 
ATOM      6  O   UNL     1      28.820  33.554  15.148  1.00  0.00    -0.332 OA
ENDROOT
BRANCH   1   7
ATOM      7  O   UNL     1      29.607  34.758  13.520  1.00  0.00    -0.338 OA
BRANCH   7   8
ATOM      8  C   UNL     1      29.080  34.507  12.420  1.00  0.00     0.199 C 
BRANCH   8   9
ATOM      9  C   UNL     1      27.866  35.145  11.806  1.00  0.00     0.179 C 
ATOM     10  C   UNL     1      25.695  35.588  12.220  1.00  0.00     0.282 C 
ATOM     11  O   UNL     1      26.922  35.402  12.871  1.00  0.00    -0.341 OA
ATOM     12  C   UNL     1      25.664  36.868  11.457  1.00  0.00     0.202 C 
ATOM     13  C   UNL     1      26.954  37.126  10.702  1.00  0.00     0.179 C 
ATOM     14  C   UNL     1      28.170  36.594  11.381  1.00  0.00     0.177 C 
BRANCH  10  15
ATOM     15  O   UNL     1      24.674  35.575  13.167  1.00  0.00    -0.341 OA
BRANCH  15  16
ATOM     16  C   UNL     1      24.059  34.354  13.269  1.00  0.00     0.184 C 
ATOM     17  C   UNL     1      22.578  34.450  13.275  1.00  0.00     0.178 C 
ATOM     18  O   UNL     1      21.942  33.244  13.460  1.00  0.00    -0.341 OA
ATOM     19  C   UNL     1      22.369  32.495  14.534  1.00  0.00     0.281 C 
ATOM     20  C   UNL     1      24.416  33.844  14.703  1.00  0.00     0.180 C 
ATOM     21  C   UNL     1      23.850  32.439  14.733  1.00  0.00     0.202 C 
BRANCH  17  22
ATOM     22  C   UNL     1      22.075  35.011  11.964  1.00  0.00     0.191 C 
BRANCH  22  23
ATOM     23  O   UNL     1      22.818  34.478  10.906  1.00  0.00    -0.394 OA
ATOM     24  H   UNL     1      23.264  33.644  11.131  1.00  0.00     0.210 HD
ENDBRANCH  22  23
ENDBRANCH  17  22
BRANCH  19  25
ATOM     25  O   UNL     1      21.958  31.169  14.284  1.00  0.00    -0.350 OA
BRANCH  25  26
ATOM     26  C   UNL     1      22.511  30.722  13.113  1.00  0.00     0.169 C 
BRANCH  26  27
ATOM     27  C   UNL     1      21.873  29.456  12.614  1.00  0.00     0.119 C 
BRANCH  27  28
ATOM     28  N   UNL     1      21.264  28.673  13.663  1.00  0.00    -0.092 NA
ATOM     29  N   UNL     1      21.991  27.957  14.366  1.00  0.00     0.001 N 
ATOM     30  N   UNL     1      22.598  27.129  15.083  1.00  0.00    -0.003 NA
ENDBRANCH  27  28
ENDBRANCH  26  27
ENDBRANCH  25  26
ENDBRANCH  19  25
BRANCH  20  31
ATOM     31  O   UNL     1      25.778  33.900  14.835  1.00  0.00    -0.387 OA
ATOM     32  H   UNL     1      26.054  34.307  15.706  1.00  0.00     0.211 HD
ENDBRANCH  20  31
BRANCH  21  33
ATOM     33  O   UNL     1      24.112  31.911  15.994  1.00  0.00    -0.385 OA
ATOM     34  H   UNL     1      23.984  30.920  15.921  1.00  0.00     0.211 HD
ENDBRANCH  21  33
ENDBRANCH  15  16
ENDBRANCH  10  15
BRANCH  12  35
ATOM     35  O   UNL     1      24.678  36.748  10.451  1.00  0.00    -0.385 OA
ATOM     36  H   UNL     1      24.314  37.657  10.320  1.00  0.00     0.211 HD
ENDBRANCH  12  35
BRANCH  13  37
ATOM     37  O   UNL     1      27.088  38.522  10.641  1.00  0.00    -0.387 OA
ATOM     38  H   UNL     1      27.949  38.812  10.284  1.00  0.00     0.211 HD
ENDBRANCH  13  37
BRANCH  14  39
ATOM     39  O   UNL     1      28.345  37.344  12.554  1.00  0.00    -0.387 OA
ATOM     40  H   UNL     1      29.288  37.467  12.778  1.00  0.00     0.211 HD
ENDBRANCH  14  39
ENDBRANCH   8   9
ENDBRANCH   7   8
ENDBRANCH   1   7
BRANCH   1  41
ATOM     41  C   UNL     1      29.124  35.764  15.586  1.00  0.00     0.364 C 
ATOM     42  O   UNL     1      29.792  36.273  16.549  1.00  0.00    -0.246 OA
BRANCH  41  43
ATOM     43  O   UNL     1      27.922  36.341  15.278  1.00  0.00    -0.477 OA
ATOM     44  H   UNL     1      27.946  37.301  14.897  1.00  0.00     0.296 HD
ENDBRANCH  41  43
ENDBRANCH   1  41
BRANCH   3  45
ATOM     45  O   UNL     1      31.866  32.225  15.078  1.00  0.00    -0.391 OA
ATOM     46  H   UNL     1      31.203  31.501  14.983  1.00  0.00     0.211 HD
ENDBRANCH   3  45
BRANCH   5  47
ATOM     47  C   UNL     1      28.724  31.328  15.444  1.00  0.00     0.176 C 
BRANCH  47  48
ATOM     48  O   UNL     1      29.783  30.454  15.862  1.00  0.00    -0.388 OA
ATOM     49  H   UNL     1      29.377  29.570  16.012  1.00  0.00     0.211 HD
ENDBRANCH  47  48
BRANCH  47  50
ATOM     50  C   UNL     1      27.483  30.626  15.808  1.00  0.00     0.165 C 
BRANCH  50  51
ATOM     51  O   UNL     1      26.805  31.614  16.646  1.00  0.00    -0.388 OA
ATOM     52  H   UNL     1      27.459  31.883  17.359  1.00  0.00     0.211 HD
ENDBRANCH  50  51
BRANCH  50  53
ATOM     53  C   UNL     1      27.570  29.438  16.694  1.00  0.00     0.154 C 
BRANCH  53  54
ATOM     54  N   UNL     1      28.130  29.633  17.992  1.00  0.00    -0.319 N 
ATOM     55  C   UNL     1      27.949  28.631  19.004  1.00  0.00     0.407 C 
ATOM     56  H   UNL     1      28.674  30.462  18.257  1.00  0.00     0.167 HD
ATOM     57  O   UNL     1      27.293  27.612  18.687  1.00  0.00    -0.225 OA
BRANCH  55  58
ATOM     58  O   UNL     1      28.454  28.742  20.267  1.00  0.00    -0.443 OA
BRANCH  58  59
ATOM     59  C   UNL     1      29.339  27.746  20.821  1.00  0.00     0.294 C 
BRANCH  59  60
ATOM     60  C   UNL     1      30.663  28.375  21.092  1.00  0.00     0.120 A 
ATOM     61  C   UNL     1      31.078  28.959  22.267  1.00  0.00     0.138 A 
ATOM     62  N   UNL     1      31.690  28.494  20.243  1.00  0.00    -0.132 NA
ATOM     63  N   UNL     1      32.351  29.422  22.114  1.00  0.00    -0.248 N 
ATOM     64  N   UNL     1      32.694  29.123  20.871  1.00  0.00    -0.067 NA
BRANCH  63  65
ATOM     65  C   UNL     1      33.131  30.102  23.107  1.00  0.00     0.181 C 
BRANCH  65  66
ATOM     66  C   UNL     1      33.820  31.256  22.484  1.00  0.00    -0.025 A 
ATOM     67  C   UNL     1      33.194  32.442  22.203  1.00  0.00     0.006 A 
ATOM     68  C   UNL     1      35.167  31.146  22.158  1.00  0.00     0.025 A 
ATOM     69  C   UNL     1      33.837  33.503  21.622  1.00  0.00     0.002 A 
ATOM     70  C   UNL     1      35.812  32.209  21.576  1.00  0.00     0.052 A 
ATOM     71  C   UNL     1      35.182  33.419  21.287  1.00  0.00     0.019 A 
BRANCH  70  72
ATOM     72  C   UNL     1      37.208  32.088  21.247  1.00  0.00     0.099 C 
ATOM     73  N   UNL     1      38.338  31.985  20.965  1.00  0.00    -0.192 NA
ENDBRANCH  70  72
ENDBRANCH  65  66
ENDBRANCH  63  65
ENDBRANCH  59  60
ENDBRANCH  58  59
ENDBRANCH  55  58
ENDBRANCH  53  54
ENDBRANCH  50  53
ENDBRANCH  47  50
ENDBRANCH   5  47
BRANCH   4  74
ATOM     74  N   UNL     1      30.342  33.384  18.111  1.00  0.00    -0.348 N 
ATOM     75  C   UNL     1      30.226  32.648  19.308  1.00  0.00     0.217 C 
ATOM     76  H   UNL     1      30.435  34.414  18.212  1.00  0.00     0.163 HD
ATOM     77  C   UNL     1      30.228  33.284  20.656  1.00  0.00     0.114 C 
ATOM     78  O   UNL     1      30.115  31.413  19.240  1.00  0.00    -0.275 OA
ENDBRANCH   4  74
TORSDOF 32
BEGIN_RES LYS A 131
REMARK  4 active torsions:
REMARK  status: ('A' for Active; 'I' for Inactive)
REMARK    1  A    between atoms: CA   and  CB  
REMARK    2  A    between atoms: CB   and  CG  
REMARK    3  A    between atoms: CG   and  CD  
REMARK    4  A    between atoms: CD   and  CE  
ROOT
ATOM      1  CA  LYS A 131      29.867  25.555  16.977  1.00 20.52     0.186 C 
ENDROOT
BRANCH   1   2
ATOM      2  CB  LYS A 131      28.345  25.722  17.026  1.00 20.94     0.034 C 
BRANCH   2   3
ATOM      3  CG  LYS A 131      27.601  24.402  16.896  1.00 22.96     0.005 C 
BRANCH   3   4
ATOM      4  CD  LYS A 131      26.161  24.520  17.310  1.00 24.33     0.041 C 
BRANCH   4   5
ATOM      5  CE  LYS A 131      25.942  23.764  18.616  1.00 26.91     0.338 C 
ATOM      6  NZ  LYS A 131      24.497  23.537  18.849  1.00 27.40     0.618 N 
ENDBRANCH   4   5
ENDBRANCH   3   4
ENDBRANCH   2   3
ENDBRANCH   1   2
END_RES LYS A 131
BEGIN_RES LYS A 135
REMARK  4 active torsions:
REMARK  status: ('A' for Active; 'I' for Inactive)
REMARK    5  A    between atoms: CA   and  CB  
REMARK    6  A    between atoms: CB   and  CG  
REMARK    7  A    between atoms: CG   and  CD  
REMARK    8  A    between atoms: CD   and  CE  
ROOT
ATOM      7  CA  LYS A 135      33.193  34.663   9.290  1.00 25.02     0.186 C 
ENDROOT
BRANCH   7   8
ATOM      8  CB  LYS A 135      32.060  35.360  10.034  1.00 26.63     0.034 C 
BRANCH   8   9
ATOM      9  CG  LYS A 135      30.900  35.737   9.149  1.00 29.45     0.005 C 
BRANCH   9  10
ATOM     10  CD  LYS A 135      30.186  34.494   8.641  1.00 32.00     0.041 C 
BRANCH  10  11
ATOM     11  CE  LYS A 135      29.139  34.865   7.609  1.00 34.25     0.338 C 
ATOM     12  NZ  LYS A 135      27.764  34.685   8.150  1.00 35.99     0.618 N 
ENDBRANCH  10  11
ENDBRANCH   9  10
ENDBRANCH   8   9
ENDBRANCH   7   8
END_RES LYS A 135
