REMARK VINA RESULT:    -4.546      5.094     10.635
REMARK INTER + INTRA:         -23.028
REMARK INTER:                 -12.470
REMARK INTRA:                 -10.559
REMARK UNBOUND:               -11.308
REMARK SMILES CC(=O)N[C@@H]1[C@@H](O)C[C@](OC[C@H]2O[C@@H](O[C@H]3[C@H](O)[C@@H](O)[C@H](OCCN=[N+]=[N-])O[C@@H]3CO)[C@H](O)[C@@H](O)[C@H]2O)(C(=O)O)O[C@H]1C(O)[C@H](O)CNC(=O)OCc1cn(CCN2CCCC2)nn1
REMARK SMILES IDX 9 1 8 2 6 3 5 4 42 5 41 6 10 7 11 8 12 9 14 10 13 11 32 12
REMARK SMILES IDX 34 13 36 14 15 15 16 16 29 17 28 18 21 19 17 20 19 21 30 22
REMARK SMILES IDX 31 23 22 25 23 26 24 27 25 28 26 29 27 30 18 31 20 33 33 35
REMARK SMILES IDX 35 37 37 39 38 41 39 42 40 43 7 45 43 47 44 48 45 50 46 51
REMARK SMILES IDX 47 53 48 54 49 55 50 57 51 58 52 59 53 60 54 61 64 62 55 63
REMARK SMILES IDX 63 64 56 65 57 66 58 67 59 68 62 69 60 70 61 71 4 72 2 73
REMARK SMILES IDX 1 75 3 76
REMARK H PARENT 31 24 18 32 20 34 33 36 35 38 37 40 40 44 7 46 44 49 46 52
REMARK H PARENT 48 56 4 74
REMARK Flexibility Score: inf
ROOT
ATOM      1  C   UNL     1      30.887  29.407  20.991  1.00  0.00     0.272 C 
ATOM      2  C   UNL     1      31.839  28.394  20.437  1.00  0.00     0.113 C 
ATOM      3  C   UNL     1      31.574  27.011  21.045  1.00  0.00     0.145 C 
ATOM      4  C   UNL     1      31.903  27.159  22.558  1.00  0.00     0.142 C 
ATOM      5  C   UNL     1      31.082  28.287  23.064  1.00  0.00     0.178 C 
ATOM      6  O   UNL     1      30.239  28.794  22.070  1.00  0.00    -0.332 OA
ENDROOT
BRANCH   1   7
ATOM      7  O   UNL     1      29.836  29.672  20.109  1.00  0.00    -0.338 OA
BRANCH   7   8
ATOM      8  C   UNL     1      28.587  29.723  20.611  1.00  0.00     0.199 C 
BRANCH   8   9
ATOM      9  C   UNL     1      27.506  29.591  19.542  1.00  0.00     0.179 C 
ATOM     10  C   UNL     1      26.666  30.564  17.642  1.00  0.00     0.282 C 
ATOM     11  O   UNL     1      27.784  30.308  18.390  1.00  0.00    -0.341 OA
ATOM     12  C   UNL     1      25.751  29.386  17.643  1.00  0.00     0.202 C 
ATOM     13  C   UNL     1      26.566  28.126  17.873  1.00  0.00     0.179 C 
ATOM     14  C   UNL     1      27.223  28.134  19.239  1.00  0.00     0.177 C 
BRANCH  10  15
ATOM     15  O   UNL     1      26.891  31.122  16.419  1.00  0.00    -0.341 OA
BRANCH  15  16
ATOM     16  C   UNL     1      27.919  31.927  16.174  1.00  0.00     0.184 C 
ATOM     17  C   UNL     1      27.625  33.268  15.534  1.00  0.00     0.178 C 
ATOM     18  O   UNL     1      28.684  34.117  15.868  1.00  0.00    -0.341 OA
ATOM     19  C   UNL     1      29.763  33.728  15.022  1.00  0.00     0.281 C 
ATOM     20  C   UNL     1      29.053  31.339  15.353  1.00  0.00     0.180 C 
ATOM     21  C   UNL     1      30.180  32.345  15.480  1.00  0.00     0.202 C 
BRANCH  17  22
ATOM     22  C   UNL     1      26.312  33.863  15.915  1.00  0.00     0.191 C 
BRANCH  22  23
ATOM     23  O   UNL     1      25.315  33.198  15.207  1.00  0.00    -0.394 OA
ATOM     24  H   UNL     1      24.434  33.332  15.652  1.00  0.00     0.210 HD
ENDBRANCH  22  23
ENDBRANCH  17  22
BRANCH  19  25
ATOM     25  O   UNL     1      30.777  34.585  15.306  1.00  0.00    -0.350 OA
BRANCH  25  26
ATOM     26  C   UNL     1      30.559  35.652  16.108  1.00  0.00     0.169 C 
BRANCH  26  27
ATOM     27  C   UNL     1      31.332  35.745  17.376  1.00  0.00     0.119 C 
BRANCH  27  28
ATOM     28  N   UNL     1      31.932  34.505  17.807  1.00  0.00    -0.092 NA
ATOM     29  N   UNL     1      31.273  33.719  18.473  1.00  0.00     0.001 N 
ATOM     30  N   UNL     1      30.479  32.978  19.062  1.00  0.00    -0.003 NA
ENDBRANCH  27  28
ENDBRANCH  26  27
ENDBRANCH  25  26
ENDBRANCH  19  25
BRANCH  20  31
ATOM     31  O   UNL     1      29.518  30.156  15.907  1.00  0.00    -0.387 OA
ATOM     32  H   UNL     1      29.166  29.347  15.487  1.00  0.00     0.211 HD
ENDBRANCH  20  31
BRANCH  21  33
ATOM     33  O   UNL     1      31.354  31.921  14.904  1.00  0.00    -0.385 OA
ATOM     34  H   UNL     1      32.176  32.153  15.367  1.00  0.00     0.211 HD
ENDBRANCH  21  33
ENDBRANCH  15  16
ENDBRANCH  10  15
BRANCH  12  35
ATOM     35  O   UNL     1      24.786  29.433  18.656  1.00  0.00    -0.385 OA
ATOM     36  H   UNL     1      24.055  28.774  18.469  1.00  0.00     0.211 HD
ENDBRANCH  12  35
BRANCH  13  37
ATOM     37  O   UNL     1      27.595  28.049  16.929  1.00  0.00    -0.387 OA
ATOM     38  H   UNL     1      27.203  28.004  16.000  1.00  0.00     0.211 HD
ENDBRANCH  13  37
BRANCH  14  39
ATOM     39  O   UNL     1      28.396  27.392  19.120  1.00  0.00    -0.387 OA
ATOM     40  H   UNL     1      28.898  27.561  19.971  1.00  0.00     0.211 HD
ENDBRANCH  14  39
ENDBRANCH   8   9
ENDBRANCH   7   8
ENDBRANCH   1   7
BRANCH   1  41
ATOM     41  C   UNL     1      31.534  30.667  21.439  1.00  0.00     0.364 C 
ATOM     42  O   UNL     1      32.802  30.713  21.435  1.00  0.00    -0.246 OA
BRANCH  41  43
ATOM     43  O   UNL     1      30.888  31.798  21.864  1.00  0.00    -0.477 OA
ATOM     44  H   UNL     1      30.341  32.432  21.329  1.00  0.00     0.296 HD
ENDBRANCH  41  43
ENDBRANCH   1  41
BRANCH   3  45
ATOM     45  O   UNL     1      30.246  26.673  20.969  1.00  0.00    -0.391 OA
ATOM     46  H   UNL     1      29.998  25.924  21.575  1.00  0.00     0.211 HD
ENDBRANCH   3  45
BRANCH   5  47
ATOM     47  C   UNL     1      30.127  27.816  24.135  1.00  0.00     0.176 C 
BRANCH  47  48
ATOM     48  O   UNL     1      30.154  28.562  25.298  1.00  0.00    -0.388 OA
ATOM     49  H   UNL     1      29.355  28.492  25.865  1.00  0.00     0.211 HD
ENDBRANCH  47  48
BRANCH  47  50
ATOM     50  C   UNL     1      28.744  27.460  23.750  1.00  0.00     0.165 C 
BRANCH  50  51
ATOM     51  O   UNL     1      27.828  28.485  23.711  1.00  0.00    -0.388 OA
ATOM     52  H   UNL     1      28.199  29.391  23.622  1.00  0.00     0.211 HD
ENDBRANCH  50  51
BRANCH  50  53
ATOM     53  C   UNL     1      28.252  26.112  24.163  1.00  0.00     0.154 C 
BRANCH  53  54
ATOM     54  N   UNL     1      27.408  25.491  23.212  1.00  0.00    -0.319 N 
ATOM     55  C   UNL     1      25.988  25.717  23.169  1.00  0.00     0.407 C 
ATOM     56  H   UNL     1      27.807  24.838  22.495  1.00  0.00     0.167 HD
ATOM     57  O   UNL     1      25.396  26.474  23.962  1.00  0.00    -0.225 OA
BRANCH  55  58
ATOM     58  O   UNL     1      25.205  25.080  22.206  1.00  0.00    -0.443 OA
BRANCH  58  59
ATOM     59  C   UNL     1      25.410  25.360  20.818  1.00  0.00     0.294 C 
BRANCH  59  60
ATOM     60  C   UNL     1      24.283  26.142  20.269  1.00  0.00     0.120 A 
ATOM     61  C   UNL     1      23.401  25.907  19.254  1.00  0.00     0.138 A 
ATOM     62  N   UNL     1      23.919  27.361  20.762  1.00  0.00    -0.132 NA
ATOM     63  N   UNL     1      22.556  26.933  19.150  1.00  0.00    -0.251 N 
ATOM     64  N   UNL     1      22.902  27.825  20.101  1.00  0.00    -0.067 NA
BRANCH  63  65
ATOM     65  C   UNL     1      21.469  27.149  18.248  1.00  0.00     0.161 C 
BRANCH  65  66
ATOM     66  C   UNL     1      21.432  28.499  17.635  1.00  0.00     0.108 C 
BRANCH  66  67
ATOM     67  N   UNL     1      22.410  28.864  16.699  1.00  0.00    -0.301 NA
ATOM     68  C   UNL     1      22.840  27.956  15.712  1.00  0.00     0.084 C 
ATOM     69  C   UNL     1      22.311  30.190  16.168  1.00  0.00     0.084 C 
ATOM     70  C   UNL     1      22.835  28.684  14.376  1.00  0.00     0.017 C 
ATOM     71  C   UNL     1      22.742  30.139  14.735  1.00  0.00     0.017 C 
ENDBRANCH  66  67
ENDBRANCH  65  66
ENDBRANCH  63  65
ENDBRANCH  59  60
ENDBRANCH  58  59
ENDBRANCH  55  58
ENDBRANCH  53  54
ENDBRANCH  50  53
ENDBRANCH  47  50
ENDBRANCH   5  47
BRANCH   4  72
ATOM     72  N   UNL     1      33.338  27.364  22.632  1.00  0.00    -0.348 N 
ATOM     73  C   UNL     1      34.148  26.913  23.714  1.00  0.00     0.217 C 
ATOM     74  H   UNL     1      33.838  27.863  21.874  1.00  0.00     0.163 HD
ATOM     75  C   UNL     1      35.626  27.191  23.691  1.00  0.00     0.114 C 
ATOM     76  O   UNL     1      33.625  26.304  24.649  1.00  0.00    -0.275 OA
ENDBRANCH   4  72
TORSDOF 32
BEGIN_RES LYS A 131
REMARK  4 active torsions:
REMARK  status: ('A' for Active; 'I' for Inactive)
REMARK    1  A    between atoms: CA   and  CB  
REMARK    2  A    between atoms: CB   and  CG  
REMARK    3  A    between atoms: CG   and  CD  
REMARK    4  A    between atoms: CD   and  CE  
ROOT
ATOM      1  CA  LYS A 131      29.867  25.555  16.977  1.00 20.52     0.186 C 
ENDROOT
BRANCH   1   2
ATOM      2  CB  LYS A 131      28.345  25.722  17.026  1.00 20.94     0.034 C 
BRANCH   2   3
ATOM      3  CG  LYS A 131      27.601  24.405  16.872  1.00 22.96     0.005 C 
BRANCH   3   4
ATOM      4  CD  LYS A 131      26.144  24.532  17.223  1.00 24.33     0.041 C 
BRANCH   4   5
ATOM      5  CE  LYS A 131      25.593  23.165  17.613  1.00 26.91     0.338 C 
ATOM      6  NZ  LYS A 131      24.215  22.994  17.095  1.00 27.40     0.618 N 
ENDBRANCH   4   5
ENDBRANCH   3   4
ENDBRANCH   2   3
ENDBRANCH   1   2
END_RES LYS A 131
BEGIN_RES LYS A 135
REMARK  4 active torsions:
REMARK  status: ('A' for Active; 'I' for Inactive)
REMARK    5  A    between atoms: CA   and  CB  
REMARK    6  A    between atoms: CB   and  CG  
REMARK    7  A    between atoms: CG   and  CD  
REMARK    8  A    between atoms: CD   and  CE  
ROOT
ATOM      7  CA  LYS A 135      33.193  34.663   9.290  1.00 25.02     0.186 C 
ENDROOT
BRANCH   7   8
ATOM      8  CB  LYS A 135      32.060  35.360  10.034  1.00 26.63     0.034 C 
BRANCH   8   9
ATOM      9  CG  LYS A 135      30.737  34.648   9.921  1.00 29.45     0.005 C 
BRANCH   9  10
ATOM     10  CD  LYS A 135      29.741  35.488   9.137  1.00 32.00     0.041 C 
BRANCH  10  11
ATOM     11  CE  LYS A 135      29.585  34.953   7.726  1.00 34.25     0.338 C 
ATOM     12  NZ  LYS A 135      28.275  35.352   7.142  1.00 35.99     0.618 N 
ENDBRANCH  10  11
ENDBRANCH   9  10
ENDBRANCH   8   9
ENDBRANCH   7   8
END_RES LYS A 135
