REMARK VINA RESULT:    -4.642      5.231     11.544
REMARK INTER + INTRA:         -23.127
REMARK INTER:                 -13.780
REMARK INTRA:                  -9.347
REMARK UNBOUND:               -10.207
REMARK SMILES CC(=O)N[C@@H]1[C@@H](O)C[C@](OC[C@H]2O[C@@H](O[C@H]3[C@H](O)[C@@H](O)[C@H](OCCN=[N+]=[N-])O[C@@H]3CO)[C@H](O)[C@@H](O)[C@H]2O)(C(=O)O)O[C@H]1C(O)[C@H](O)CNC(=O)OCc1cn(C[C@H](CC(=O)O)CC(C)C)nn1
REMARK SMILES IDX 43 1 42 2 9 3 8 4 41 5 6 6 5 7 10 8 11 9 12 10 14 11 13 12
REMARK SMILES IDX 32 13 34 14 36 15 15 16 16 17 29 18 28 19 21 20 17 21 19 22
REMARK SMILES IDX 30 23 31 24 22 26 23 27 24 28 25 29 26 30 27 31 18 32 20 34
REMARK SMILES IDX 33 36 35 38 37 40 38 42 39 43 40 44 7 46 4 48 2 49 1 51 3 52
REMARK SMILES IDX 44 53 45 55 46 56 47 58 48 59 49 60 50 62 51 63 52 64 53 65
REMARK SMILES IDX 54 66 67 67 55 68 66 69 56 70 57 71 58 72 59 73 60 74 61 75
REMARK SMILES IDX 62 77 63 78 64 79 65 80
REMARK H PARENT 31 25 18 33 20 35 33 37 35 39 37 41 40 45 7 47 4 50 44 54
REMARK H PARENT 46 57 48 61 61 76
REMARK Flexibility Score: inf
ROOT
ATOM      1  C   UNL     1      25.196  35.804   8.997  1.00  0.00     0.176 C 
ENDROOT
BRANCH   1   2
ATOM      2  C   UNL     1      23.711  35.590   9.081  1.00  0.00     0.178 C 
ATOM      3  C   UNL     1      22.221  37.417   8.579  1.00  0.00     0.272 C 
ATOM      4  C   UNL     1      22.047  37.703  10.027  1.00  0.00     0.113 C 
ATOM      5  O   UNL     1      23.154  36.536   8.281  1.00  0.00    -0.332 OA
ATOM      6  C   UNL     1      22.954  37.027  10.973  1.00  0.00     0.145 C 
ATOM      7  C   UNL     1      23.328  35.613  10.520  1.00  0.00     0.142 C 
BRANCH   3   8
ATOM      8  O   UNL     1      22.506  38.629   7.893  1.00  0.00    -0.338 OA
BRANCH   8   9
ATOM      9  C   UNL     1      22.723  39.703   8.699  1.00  0.00     0.199 C 
BRANCH   9  10
ATOM     10  C   UNL     1      23.856  40.581   8.121  1.00  0.00     0.179 C 
ATOM     11  C   UNL     1      25.749  40.465   6.783  1.00  0.00     0.282 C 
ATOM     12  O   UNL     1      24.511  39.927   7.097  1.00  0.00    -0.341 OA
ATOM     13  C   UNL     1      25.629  41.984   6.986  1.00  0.00     0.202 C 
ATOM     14  C   UNL     1      24.240  42.453   6.604  1.00  0.00     0.179 C 
ATOM     15  C   UNL     1      23.228  41.844   7.514  1.00  0.00     0.177 C 
BRANCH  11  16
ATOM     16  O   UNL     1      25.973  40.302   5.439  1.00  0.00    -0.341 OA
BRANCH  16  17
ATOM     17  C   UNL     1      27.271  40.088   5.056  1.00  0.00     0.184 C 
ATOM     18  C   UNL     1      28.101  39.332   6.051  1.00  0.00     0.178 C 
ATOM     19  O   UNL     1      29.140  40.027   6.595  1.00  0.00    -0.341 OA
ATOM     20  C   UNL     1      30.031  40.570   5.690  1.00  0.00     0.281 C 
ATOM     21  C   UNL     1      27.913  41.446   4.862  1.00  0.00     0.180 C 
ATOM     22  C   UNL     1      29.390  41.217   4.512  1.00  0.00     0.202 C 
BRANCH  18  23
ATOM     23  C   UNL     1      28.529  38.029   5.400  1.00  0.00     0.191 C 
BRANCH  23  24
ATOM     24  O   UNL     1      29.375  37.301   6.232  1.00  0.00    -0.394 OA
ATOM     25  H   UNL     1      29.510  36.368   5.910  1.00  0.00     0.210 HD
ENDBRANCH  23  24
ENDBRANCH  18  23
BRANCH  20  26
ATOM     26  O   UNL     1      30.961  39.591   5.373  1.00  0.00    -0.350 OA
BRANCH  26  27
ATOM     27  C   UNL     1      32.258  40.071   5.300  1.00  0.00     0.169 C 
BRANCH  27  28
ATOM     28  C   UNL     1      32.883  39.866   6.673  1.00  0.00     0.119 C 
BRANCH  28  29
ATOM     29  N   UNL     1      33.258  41.193   7.140  1.00  0.00    -0.092 NA
ATOM     30  N   UNL     1      33.193  41.431   8.324  1.00  0.00     0.001 N 
ATOM     31  N   UNL     1      33.080  41.984   9.426  1.00  0.00    -0.003 NA
ENDBRANCH  28  29
ENDBRANCH  27  28
ENDBRANCH  26  27
ENDBRANCH  20  26
BRANCH  21  32
ATOM     32  O   UNL     1      27.256  42.150   3.870  1.00  0.00    -0.387 OA
ATOM     33  H   UNL     1      27.942  42.367   3.164  1.00  0.00     0.211 HD
ENDBRANCH  21  32
BRANCH  22  34
ATOM     34  O   UNL     1      29.900  42.506   4.252  1.00  0.00    -0.385 OA
ATOM     35  H   UNL     1      30.090  42.552   3.290  1.00  0.00     0.211 HD
ENDBRANCH  22  34
ENDBRANCH  16  17
ENDBRANCH  11  16
BRANCH  13  36
ATOM     36  O   UNL     1      26.034  42.391   8.232  1.00  0.00    -0.385 OA
ATOM     37  H   UNL     1      25.687  41.859   8.969  1.00  0.00     0.211 HD
ENDBRANCH  13  36
BRANCH  14  38
ATOM     38  O   UNL     1      24.027  41.970   5.297  1.00  0.00    -0.387 OA
ATOM     39  H   UNL     1      23.748  42.669   4.686  1.00  0.00     0.211 HD
ENDBRANCH  14  38
BRANCH  15  40
ATOM     40  O   UNL     1      22.115  41.484   6.727  1.00  0.00    -0.387 OA
ATOM     41  H   UNL     1      21.284  41.658   7.198  1.00  0.00     0.211 HD
ENDBRANCH  15  40
ENDBRANCH   9  10
ENDBRANCH   8   9
ENDBRANCH   3   8
BRANCH   3  42
ATOM     42  C   UNL     1      20.886  37.017   7.980  1.00  0.00     0.364 C 
ATOM     43  O   UNL     1      20.702  35.864   7.571  1.00  0.00    -0.246 OA
BRANCH  42  44
ATOM     44  O   UNL     1      19.871  37.925   7.884  1.00  0.00    -0.477 OA
ATOM     45  H   UNL     1      19.121  37.997   8.570  1.00  0.00     0.296 HD
ENDBRANCH  42  44
ENDBRANCH   3  42
BRANCH   6  46
ATOM     46  O   UNL     1      24.096  37.707  11.339  1.00  0.00    -0.391 OA
ATOM     47  H   UNL     1      23.808  38.602  11.647  1.00  0.00     0.211 HD
ENDBRANCH   6  46
BRANCH   7  48
ATOM     48  N   UNL     1      22.214  34.785  10.894  1.00  0.00    -0.348 N 
ATOM     49  C   UNL     1      22.344  33.961  12.075  1.00  0.00     0.217 C 
ATOM     50  H   UNL     1      21.305  34.713  10.387  1.00  0.00     0.163 HD
ATOM     51  C   UNL     1      21.174  33.100  12.466  1.00  0.00     0.114 C 
ATOM     52  O   UNL     1      23.389  33.944  12.770  1.00  0.00    -0.275 OA
ENDBRANCH   7  48
ENDBRANCH   1   2
BRANCH   1  53
ATOM     53  O   UNL     1      25.737  35.700  10.313  1.00  0.00    -0.388 OA
ATOM     54  H   UNL     1      25.237  35.005  10.814  1.00  0.00     0.211 HD
ENDBRANCH   1  53
BRANCH   1  55
ATOM     55  C   UNL     1      25.670  37.161   8.528  1.00  0.00     0.165 C 
BRANCH  55  56
ATOM     56  O   UNL     1      25.534  37.010   7.080  1.00  0.00    -0.388 OA
ATOM     57  H   UNL     1      26.191  36.264   6.898  1.00  0.00     0.211 HD
ENDBRANCH  55  56
BRANCH  55  58
ATOM     58  C   UNL     1      27.138  37.353   8.693  1.00  0.00     0.154 C 
BRANCH  58  59
ATOM     59  N   UNL     1      27.474  37.965   9.928  1.00  0.00    -0.319 N 
ATOM     60  C   UNL     1      28.873  38.260  10.136  1.00  0.00     0.407 C 
ATOM     61  H   UNL     1      26.847  38.226  10.710  1.00  0.00     0.167 HD
ATOM     62  O   UNL     1      29.712  37.974   9.235  1.00  0.00    -0.225 OA
BRANCH  60  63
ATOM     63  O   UNL     1      29.364  38.842  11.283  1.00  0.00    -0.443 OA
BRANCH  63  64
ATOM     64  C   UNL     1      28.971  38.523  12.602  1.00  0.00     0.294 C 
BRANCH  64  65
ATOM     65  C   UNL     1      28.942  37.055  12.864  1.00  0.00     0.120 A 
ATOM     66  C   UNL     1      29.882  36.276  13.496  1.00  0.00     0.138 A 
ATOM     67  N   UNL     1      27.944  36.242  12.506  1.00  0.00    -0.132 NA
ATOM     68  N   UNL     1      29.428  34.985  13.508  1.00  0.00    -0.252 N 
ATOM     69  N   UNL     1      28.264  35.024  12.902  1.00  0.00    -0.067 NA
BRANCH  68  70
ATOM     70  C   UNL     1      30.087  33.848  14.036  1.00  0.00     0.150 C 
BRANCH  70  71
ATOM     71  C   UNL     1      30.932  34.086  15.215  1.00  0.00     0.022 C 
BRANCH  71  72
ATOM     72  C   UNL     1      32.361  33.699  15.117  1.00  0.00     0.128 C 
BRANCH  72  73
ATOM     73  C   UNL     1      33.237  34.573  14.325  1.00  0.00     0.303 C 
ATOM     74  O   UNL     1      33.162  35.820  14.477  1.00  0.00    -0.252 OA
BRANCH  73  75
ATOM     75  O   UNL     1      34.162  34.102  13.403  1.00  0.00    -0.481 OA
ATOM     76  H   UNL     1      33.854  33.596  12.585  1.00  0.00     0.296 HD
ENDBRANCH  73  75
ENDBRANCH  72  73
ENDBRANCH  71  72
BRANCH  71  77
ATOM     77  C   UNL     1      30.308  33.699  16.526  1.00  0.00     0.009 C 
BRANCH  77  78
ATOM     78  C   UNL     1      30.759  32.490  17.212  1.00  0.00    -0.017 C 
ATOM     79  C   UNL     1      30.647  32.414  18.692  1.00  0.00     0.007 C 
ATOM     80  C   UNL     1      30.211  31.198  16.633  1.00  0.00     0.007 C 
ENDBRANCH  77  78
ENDBRANCH  71  77
ENDBRANCH  70  71
ENDBRANCH  68  70
ENDBRANCH  64  65
ENDBRANCH  63  64
ENDBRANCH  60  63
ENDBRANCH  58  59
ENDBRANCH  55  58
ENDBRANCH   1  55
TORSDOF 36
BEGIN_RES LYS A 131
REMARK  4 active torsions:
REMARK  status: ('A' for Active; 'I' for Inactive)
REMARK    1  A    between atoms: CA   and  CB  
REMARK    2  A    between atoms: CB   and  CG  
REMARK    3  A    between atoms: CG   and  CD  
REMARK    4  A    between atoms: CD   and  CE  
ROOT
ATOM      1  CA  LYS A 131      29.867  25.555  16.977  1.00 20.52     0.186 C 
ENDROOT
BRANCH   1   2
ATOM      2  CB  LYS A 131      28.345  25.722  17.026  1.00 20.94     0.034 C 
BRANCH   2   3
ATOM      3  CG  LYS A 131      27.603  24.396  16.968  1.00 22.96     0.005 C 
BRANCH   3   4
ATOM      4  CD  LYS A 131      26.122  24.566  17.162  1.00 24.33     0.041 C 
BRANCH   4   5
ATOM      5  CE  LYS A 131      25.704  23.925  18.482  1.00 26.91     0.338 C 
ATOM      6  NZ  LYS A 131      25.749  24.920  19.579  1.00 27.40     0.618 N 
ENDBRANCH   4   5
ENDBRANCH   3   4
ENDBRANCH   2   3
ENDBRANCH   1   2
END_RES LYS A 131
BEGIN_RES LYS A 135
REMARK  4 active torsions:
REMARK  status: ('A' for Active; 'I' for Inactive)
REMARK    5  A    between atoms: CA   and  CB  
REMARK    6  A    between atoms: CB   and  CG  
REMARK    7  A    between atoms: CG   and  CD  
REMARK    8  A    between atoms: CD   and  CE  
ROOT
ATOM      7  CA  LYS A 135      33.193  34.663   9.290  1.00 25.02     0.186 C 
ENDROOT
BRANCH   7   8
ATOM      8  CB  LYS A 135      32.060  35.360  10.034  1.00 26.63     0.034 C 
BRANCH   8   9
ATOM      9  CG  LYS A 135      30.746  34.627   9.954  1.00 29.45     0.005 C 
BRANCH   9  10
ATOM     10  CD  LYS A 135      30.323  34.440   8.505  1.00 32.00     0.041 C 
BRANCH  10  11
ATOM     11  CE  LYS A 135      28.811  34.383   8.395  1.00 34.25     0.338 C 
ATOM     12  NZ  LYS A 135      28.214  33.685   9.567  1.00 35.99     0.618 N 
ENDBRANCH  10  11
ENDBRANCH   9  10
ENDBRANCH   8   9
ENDBRANCH   7   8
END_RES LYS A 135
