REMARK VINA RESULT:    -4.700      2.495      4.953
REMARK INTER + INTRA:         -23.288
REMARK INTER:                 -14.021
REMARK INTRA:                  -9.267
REMARK UNBOUND:               -10.207
REMARK SMILES CC(=O)N[C@@H]1[C@@H](O)C[C@](OC[C@H]2O[C@@H](O[C@H]3[C@H](O)[C@@H](O)[C@H](OCCN=[N+]=[N-])O[C@@H]3CO)[C@H](O)[C@@H](O)[C@H]2O)(C(=O)O)O[C@H]1C(O)[C@H](O)CNC(=O)OCc1cn(C[C@H](CC(=O)O)CC(C)C)nn1
REMARK SMILES IDX 43 1 42 2 9 3 8 4 41 5 6 6 5 7 10 8 11 9 12 10 14 11 13 12
REMARK SMILES IDX 32 13 34 14 36 15 15 16 16 17 29 18 28 19 21 20 17 21 19 22
REMARK SMILES IDX 30 23 31 24 22 26 23 27 24 28 25 29 26 30 27 31 18 32 20 34
REMARK SMILES IDX 33 36 35 38 37 40 38 42 39 43 40 44 7 46 4 48 2 49 1 51 3 52
REMARK SMILES IDX 44 53 45 55 46 56 47 58 48 59 49 60 50 62 51 63 52 64 53 65
REMARK SMILES IDX 54 66 67 67 55 68 66 69 56 70 57 71 58 72 59 73 60 74 61 75
REMARK SMILES IDX 62 77 63 78 64 79 65 80
REMARK H PARENT 31 25 18 33 20 35 33 37 35 39 37 41 40 45 7 47 4 50 44 54
REMARK H PARENT 46 57 48 61 61 76
REMARK Flexibility Score: inf
ROOT
ATOM      1  C   UNL     1      29.493  31.847  16.441  1.00  0.00     0.176 C 
ENDROOT
BRANCH   1   2
ATOM      2  C   UNL     1      30.406  32.097  17.608  1.00  0.00     0.178 C 
ATOM      3  C   UNL     1      30.112  30.826  19.635  1.00  0.00     0.272 C 
ATOM      4  C   UNL     1      29.361  31.948  20.256  1.00  0.00     0.113 C 
ATOM      5  O   UNL     1      30.377  30.961  18.352  1.00  0.00    -0.332 OA
ATOM      6  C   UNL     1      28.944  33.061  19.382  1.00  0.00     0.145 C 
ATOM      7  C   UNL     1      29.960  33.352  18.275  1.00  0.00     0.142 C 
BRANCH   3   8
ATOM      8  O   UNL     1      29.388  29.617  19.824  1.00  0.00    -0.338 OA
BRANCH   8   9
ATOM      9  C   UNL     1      28.304  29.723  20.639  1.00  0.00     0.199 C 
BRANCH   9  10
ATOM     10  C   UNL     1      27.011  29.447  19.840  1.00  0.00     0.179 C 
ATOM     11  C   UNL     1      25.812  30.196  17.999  1.00  0.00     0.282 C 
ATOM     12  O   UNL     1      27.050  30.074  18.611  1.00  0.00    -0.341 OA
ATOM     13  C   UNL     1      25.013  28.937  18.373  1.00  0.00     0.202 C 
ATOM     14  C   UNL     1      25.938  27.741  18.464  1.00  0.00     0.179 C 
ATOM     15  C   UNL     1      26.919  27.939  19.570  1.00  0.00     0.177 C 
BRANCH  11  16
ATOM     16  O   UNL     1      25.982  30.119  16.639  1.00  0.00    -0.341 OA
BRANCH  16  17
ATOM     17  C   UNL     1      25.058  30.772  15.868  1.00  0.00     0.184 C 
ATOM     18  C   UNL     1      24.378  29.914  14.841  1.00  0.00     0.178 C 
ATOM     19  O   UNL     1      24.625  30.249  13.543  1.00  0.00    -0.341 OA
ATOM     20  C   UNL     1      24.335  31.555  13.199  1.00  0.00     0.281 C 
ATOM     21  C   UNL     1      25.786  31.877  15.131  1.00  0.00     0.180 C 
ATOM     22  C   UNL     1      24.774  32.564  14.203  1.00  0.00     0.202 C 
BRANCH  18  23
ATOM     23  C   UNL     1      22.899  29.875  15.178  1.00  0.00     0.191 C 
BRANCH  23  24
ATOM     24  O   UNL     1      22.555  30.885  16.073  1.00  0.00    -0.394 OA
ATOM     25  H   UNL     1      23.343  31.431  16.346  1.00  0.00     0.210 HD
ENDBRANCH  23  24
ENDBRANCH  18  23
BRANCH  20  26
ATOM     26  O   UNL     1      22.989  31.616  12.872  1.00  0.00    -0.350 OA
BRANCH  26  27
ATOM     27  C   UNL     1      22.503  32.911  12.801  1.00  0.00     0.169 C 
BRANCH  27  28
ATOM     28  C   UNL     1      21.090  32.884  13.369  1.00  0.00     0.119 C 
BRANCH  28  29
ATOM     29  N   UNL     1      21.222  33.230  14.777  1.00  0.00    -0.092 NA
ATOM     30  N   UNL     1      21.187  34.396  15.093  1.00  0.00     0.001 N 
ATOM     31  N   UNL     1      21.338  35.483  15.668  1.00  0.00    -0.003 NA
ENDBRANCH  28  29
ENDBRANCH  27  28
ENDBRANCH  26  27
ENDBRANCH  20  26
BRANCH  21  32
ATOM     32  O   UNL     1      26.341  32.768  16.030  1.00  0.00    -0.387 OA
ATOM     33  H   UNL     1      25.577  33.294  16.427  1.00  0.00     0.211 HD
ENDBRANCH  21  32
BRANCH  22  34
ATOM     34  O   UNL     1      25.487  33.634  13.625  1.00  0.00    -0.385 OA
ATOM     35  H   UNL     1      25.007  33.895  12.811  1.00  0.00     0.211 HD
ENDBRANCH  22  34
ENDBRANCH  16  17
ENDBRANCH  11  16
BRANCH  13  36
ATOM     36  O   UNL     1      24.219  29.117  19.478  1.00  0.00    -0.385 OA
ATOM     37  H   UNL     1      23.308  29.399  19.285  1.00  0.00     0.211 HD
ENDBRANCH  13  36
BRANCH  14  38
ATOM     38  O   UNL     1      26.633  27.709  17.238  1.00  0.00    -0.387 OA
ATOM     39  H   UNL     1      27.276  28.430  17.159  1.00  0.00     0.211 HD
ENDBRANCH  14  38
BRANCH  15  40
ATOM     40  O   UNL     1      28.168  27.466  19.115  1.00  0.00    -0.387 OA
ATOM     41  H   UNL     1      28.124  26.522  18.896  1.00  0.00     0.211 HD
ENDBRANCH  15  40
ENDBRANCH   9  10
ENDBRANCH   8   9
ENDBRANCH   3   8
BRANCH   3  42
ATOM     42  C   UNL     1      31.380  30.568  20.427  1.00  0.00     0.364 C 
ATOM     43  O   UNL     1      31.930  31.488  21.046  1.00  0.00    -0.246 OA
BRANCH  42  44
ATOM     44  O   UNL     1      31.929  29.319  20.466  1.00  0.00    -0.477 OA
ATOM     45  H   UNL     1      31.989  28.710  19.652  1.00  0.00     0.296 HD
ENDBRANCH  42  44
ENDBRANCH   3  42
BRANCH   6  46
ATOM     46  O   UNL     1      27.681  32.987  18.835  1.00  0.00    -0.391 OA
ATOM     47  H   UNL     1      27.047  33.257  19.545  1.00  0.00     0.211 HD
ENDBRANCH   6  46
BRANCH   7  48
ATOM     48  N   UNL     1      30.990  34.139  18.898  1.00  0.00    -0.348 N 
ATOM     49  C   UNL     1      32.028  34.690  18.057  1.00  0.00     0.217 C 
ATOM     50  H   UNL     1      31.068  34.353  19.917  1.00  0.00     0.163 HD
ATOM     51  C   UNL     1      33.100  35.519  18.710  1.00  0.00     0.114 C 
ATOM     52  O   UNL     1      32.059  34.500  16.817  1.00  0.00    -0.275 OA
ENDBRANCH   7  48
ENDBRANCH   1   2
BRANCH   1  53
ATOM     53  O   UNL     1      29.075  30.483  16.485  1.00  0.00    -0.388 OA
ATOM     54  H   UNL     1      28.894  30.170  15.561  1.00  0.00     0.211 HD
ENDBRANCH   1  53
BRANCH   1  55
ATOM     55  C   UNL     1      30.087  31.988  15.058  1.00  0.00     0.165 C 
BRANCH  55  56
ATOM     56  O   UNL     1      31.511  31.847  15.359  1.00  0.00    -0.388 OA
ATOM     57  H   UNL     1      31.587  30.845  15.476  1.00  0.00     0.211 HD
ENDBRANCH  55  56
BRANCH  55  58
ATOM     58  C   UNL     1      30.009  33.380  14.531  1.00  0.00     0.154 C 
BRANCH  58  59
ATOM     59  N   UNL     1      28.672  33.823  14.357  1.00  0.00    -0.319 N 
ATOM     60  C   UNL     1      28.332  35.086  14.972  1.00  0.00     0.407 C 
ATOM     61  H   UNL     1      27.899  33.358  13.848  1.00  0.00     0.167 HD
ATOM     62  O   UNL     1      29.213  35.724  15.615  1.00  0.00    -0.225 OA
BRANCH  60  63
ATOM     63  O   UNL     1      27.077  35.649  14.906  1.00  0.00    -0.443 OA
BRANCH  63  64
ATOM     64  C   UNL     1      26.798  37.011  14.655  1.00  0.00     0.294 C 
BRANCH  64  65
ATOM     65  C   UNL     1      26.426  37.279  13.237  1.00  0.00     0.120 A 
ATOM     66  C   UNL     1      26.952  36.728  12.091  1.00  0.00     0.138 A 
ATOM     67  N   UNL     1      25.475  38.136  12.852  1.00  0.00    -0.132 NA
ATOM     68  N   UNL     1      26.300  37.272  11.018  1.00  0.00    -0.252 N 
ATOM     69  N   UNL     1      25.427  38.107  11.532  1.00  0.00    -0.067 NA
BRANCH  68  70
ATOM     70  C   UNL     1      26.537  37.010   9.647  1.00  0.00     0.150 C 
BRANCH  70  71
ATOM     71  C   UNL     1      25.843  35.841   9.087  1.00  0.00     0.022 C 
BRANCH  71  72
ATOM     72  C   UNL     1      24.662  35.333   9.827  1.00  0.00     0.128 C 
BRANCH  72  73
ATOM     73  C   UNL     1      23.340  35.620   9.254  1.00  0.00     0.303 C 
ATOM     74  O   UNL     1      23.212  36.582   8.453  1.00  0.00    -0.252 OA
BRANCH  73  75
ATOM     75  O   UNL     1      22.200  34.882   9.545  1.00  0.00    -0.481 OA
ATOM     76  H   UNL     1      21.872  34.177   8.901  1.00  0.00     0.296 HD
ENDBRANCH  73  75
ENDBRANCH  72  73
ENDBRANCH  71  72
BRANCH  71  77
ATOM     77  C   UNL     1      26.747  34.744   8.601  1.00  0.00     0.009 C 
BRANCH  77  78
ATOM     78  C   UNL     1      28.187  34.979   8.519  1.00  0.00    -0.017 C 
ATOM     79  C   UNL     1      29.115  34.005   9.151  1.00  0.00     0.007 C 
ATOM     80  C   UNL     1      28.697  35.272   7.120  1.00  0.00     0.007 C 
ENDBRANCH  77  78
ENDBRANCH  71  77
ENDBRANCH  70  71
ENDBRANCH  68  70
ENDBRANCH  64  65
ENDBRANCH  63  64
ENDBRANCH  60  63
ENDBRANCH  58  59
ENDBRANCH  55  58
ENDBRANCH   1  55
TORSDOF 36
BEGIN_RES LYS A 131
REMARK  4 active torsions:
REMARK  status: ('A' for Active; 'I' for Inactive)
REMARK    1  A    between atoms: CA   and  CB  
REMARK    2  A    between atoms: CB   and  CG  
REMARK    3  A    between atoms: CG   and  CD  
REMARK    4  A    between atoms: CD   and  CE  
ROOT
ATOM      1  CA  LYS A 131      29.867  25.555  16.977  1.00 20.52     0.186 C 
ENDROOT
BRANCH   1   2
ATOM      2  CB  LYS A 131      28.345  25.722  17.026  1.00 20.94     0.034 C 
BRANCH   2   3
ATOM      3  CG  LYS A 131      27.601  24.403  16.887  1.00 22.96     0.005 C 
BRANCH   3   4
ATOM      4  CD  LYS A 131      26.613  24.190  18.001  1.00 24.33     0.041 C 
BRANCH   4   5
ATOM      5  CE  LYS A 131      25.201  24.139  17.425  1.00 26.91     0.338 C 
ATOM      6  NZ  LYS A 131      24.239  23.673  18.452  1.00 27.40     0.618 N 
ENDBRANCH   4   5
ENDBRANCH   3   4
ENDBRANCH   2   3
ENDBRANCH   1   2
END_RES LYS A 131
BEGIN_RES LYS A 135
REMARK  4 active torsions:
REMARK  status: ('A' for Active; 'I' for Inactive)
REMARK    5  A    between atoms: CA   and  CB  
REMARK    6  A    between atoms: CB   and  CG  
REMARK    7  A    between atoms: CG   and  CD  
REMARK    8  A    between atoms: CD   and  CE  
ROOT
ATOM      7  CA  LYS A 135      33.193  34.663   9.290  1.00 25.02     0.186 C 
ENDROOT
BRANCH   7   8
ATOM      8  CB  LYS A 135      32.060  35.360  10.034  1.00 26.63     0.034 C 
BRANCH   8   9
ATOM      9  CG  LYS A 135      32.499  36.027  11.312  1.00 29.45     0.005 C 
BRANCH   9  10
ATOM     10  CD  LYS A 135      31.390  35.978  12.351  1.00 32.00     0.041 C 
BRANCH  10  11
ATOM     11  CE  LYS A 135      31.478  37.174  13.280  1.00 34.25     0.338 C 
ATOM     12  NZ  LYS A 135      30.231  37.987  13.227  1.00 35.99     0.618 N 
ENDBRANCH  10  11
ENDBRANCH   9  10
ENDBRANCH   8   9
ENDBRANCH   7   8
END_RES LYS A 135
