REMARK VINA RESULT:    -4.514      3.779     11.832
REMARK INTER + INTRA:         -23.915
REMARK INTER:                 -12.159
REMARK INTRA:                 -11.756
REMARK UNBOUND:               -11.748
REMARK SMILES CC(=O)N[C@@H]1[C@@H](O)C[C@](OC[C@H]2O[C@@H](O[C@H]3[C@H](O)[C@@H](O)[C@H](OCCN=[N+]=[N-])O[C@@H]3CO)[C@H](O)[C@@H](O)[C@H]2O)(C(=O)O)O[C@H]1C(O)[C@H](O)CNC(=O)OCc1cn([C@@H](C)C(=O)OCc2ccccc2)nn1
REMARK SMILES IDX 43 1 42 2 9 3 8 4 41 5 6 6 5 7 10 8 11 9 12 10 14 11 13 12
REMARK SMILES IDX 32 13 34 14 36 15 15 16 16 17 29 18 28 19 21 20 17 21 19 22
REMARK SMILES IDX 30 23 31 24 22 26 23 27 24 28 25 29 26 30 27 31 18 32 20 34
REMARK SMILES IDX 33 36 35 38 37 40 38 42 39 43 40 44 7 46 4 48 2 49 1 51 3 52
REMARK SMILES IDX 44 53 45 55 46 56 47 58 48 59 49 60 50 62 51 63 52 64 53 65
REMARK SMILES IDX 54 66 69 67 55 68 68 69 56 70 57 71 58 72 59 73 60 74 61 75
REMARK SMILES IDX 62 76 63 77 67 78 64 79 66 80 65 81
REMARK H PARENT 31 25 18 33 20 35 33 37 35 39 37 41 40 45 7 47 4 50 44 54
REMARK H PARENT 46 57 48 61
REMARK Flexibility Score: inf
ROOT
ATOM      1  C   UNL     1      25.018  36.595  10.093  1.00  0.00     0.176 C 
ENDROOT
BRANCH   1   2
ATOM      2  C   UNL     1      25.889  37.023  11.209  1.00  0.00     0.178 C 
ATOM      3  C   UNL     1      25.988  39.338  10.928  1.00  0.00     0.272 C 
ATOM      4  C   UNL     1      27.427  39.212  10.606  1.00  0.00     0.113 C 
ATOM      5  O   UNL     1      25.601  38.238  11.773  1.00  0.00    -0.332 OA
ATOM      6  C   UNL     1      27.796  37.894   9.965  1.00  0.00     0.145 C 
ATOM      7  C   UNL     1      27.341  36.794  10.876  1.00  0.00     0.142 C 
BRANCH   3   8
ATOM      8  O   UNL     1      25.077  39.387   9.990  1.00  0.00    -0.338 OA
BRANCH   8   9
ATOM      9  C   UNL     1      24.671  40.327   9.187  1.00  0.00     0.199 C 
BRANCH   9  10
ATOM     10  C   UNL     1      23.238  40.494   8.766  1.00  0.00     0.179 C 
ATOM     11  C   UNL     1      21.384  39.165   8.308  1.00  0.00     0.282 C 
ATOM     12  O   UNL     1      22.769  39.308   8.284  1.00  0.00    -0.341 OA
ATOM     13  C   UNL     1      20.671  40.468   8.344  1.00  0.00     0.202 C 
ATOM     14  C   UNL     1      20.998  41.229   9.599  1.00  0.00     0.179 C 
ATOM     15  C   UNL     1      22.411  40.969   9.980  1.00  0.00     0.177 C 
BRANCH  11  16
ATOM     16  O   UNL     1      21.091  38.266   9.297  1.00  0.00    -0.341 OA
BRANCH  16  17
ATOM     17  C   UNL     1      19.936  37.561   9.133  1.00  0.00     0.184 C 
ATOM     18  C   UNL     1      19.814  36.541  10.236  1.00  0.00     0.178 C 
ATOM     19  O   UNL     1      18.716  35.708   9.997  1.00  0.00    -0.341 OA
ATOM     20  C   UNL     1      19.203  34.721   9.102  1.00  0.00     0.281 C 
ATOM     21  C   UNL     1      19.890  36.798   7.819  1.00  0.00     0.180 C 
ATOM     22  C   UNL     1      19.944  35.321   7.949  1.00  0.00     0.202 C 
BRANCH  18  23
ATOM     23  C   UNL     1      19.782  37.123  11.618  1.00  0.00     0.191 C 
BRANCH  23  24
ATOM     24  O   UNL     1      20.522  36.260  12.433  1.00  0.00    -0.394 OA
ATOM     25  H   UNL     1      20.490  35.322  12.130  1.00  0.00     0.210 HD
ENDBRANCH  23  24
ENDBRANCH  18  23
BRANCH  20  26
ATOM     26  O   UNL     1      18.157  33.927   8.754  1.00  0.00    -0.350 OA
BRANCH  26  27
ATOM     27  C   UNL     1      17.314  33.484   9.718  1.00  0.00     0.169 C 
BRANCH  27  28
ATOM     28  C   UNL     1      17.657  32.220  10.421  1.00  0.00     0.119 C 
BRANCH  28  29
ATOM     29  N   UNL     1      18.199  32.323  11.727  1.00  0.00    -0.092 NA
ATOM     30  N   UNL     1      19.348  32.697  11.935  1.00  0.00     0.001 N 
ATOM     31  N   UNL     1      20.436  33.228  12.222  1.00  0.00    -0.003 NA
ENDBRANCH  28  29
ENDBRANCH  27  28
ENDBRANCH  26  27
ENDBRANCH  20  26
BRANCH  21  32
ATOM     32  O   UNL     1      18.762  37.144   7.069  1.00  0.00    -0.387 OA
ATOM     33  H   UNL     1      18.947  37.219   6.106  1.00  0.00     0.211 HD
ENDBRANCH  21  32
BRANCH  22  34
ATOM     34  O   UNL     1      21.275  34.897   7.876  1.00  0.00    -0.385 OA
ATOM     35  H   UNL     1      21.820  35.597   8.328  1.00  0.00     0.211 HD
ENDBRANCH  22  34
ENDBRANCH  16  17
ENDBRANCH  11  16
BRANCH  13  36
ATOM     36  O   UNL     1      21.043  41.207   7.195  1.00  0.00    -0.385 OA
ATOM     37  H   UNL     1      21.135  40.514   6.473  1.00  0.00     0.211 HD
ENDBRANCH  13  36
BRANCH  14  38
ATOM     38  O   UNL     1      20.086  40.887  10.576  1.00  0.00    -0.387 OA
ATOM     39  H   UNL     1      20.179  41.446  11.395  1.00  0.00     0.211 HD
ENDBRANCH  14  38
BRANCH  15  40
ATOM     40  O   UNL     1      22.526  40.089  11.048  1.00  0.00    -0.387 OA
ATOM     41  H   UNL     1      23.116  39.320  10.777  1.00  0.00     0.211 HD
ENDBRANCH  15  40
ENDBRANCH   9  10
ENDBRANCH   8   9
ENDBRANCH   3   8
BRANCH   3  42
ATOM     42  C   UNL     1      25.849  40.459  11.939  1.00  0.00     0.364 C 
ATOM     43  O   UNL     1      26.686  41.368  12.019  1.00  0.00    -0.246 OA
BRANCH  42  44
ATOM     44  O   UNL     1      24.764  40.498  12.813  1.00  0.00    -0.477 OA
ATOM     45  H   UNL     1      24.764  41.008  13.690  1.00  0.00     0.296 HD
ENDBRANCH  42  44
ENDBRANCH   3  42
BRANCH   6  46
ATOM     46  O   UNL     1      27.300  37.762   8.672  1.00  0.00    -0.391 OA
ATOM     47  H   UNL     1      27.821  37.046   8.240  1.00  0.00     0.211 HD
ENDBRANCH   6  46
BRANCH   7  48
ATOM     48  N   UNL     1      28.171  36.806  12.073  1.00  0.00    -0.348 N 
ATOM     49  C   UNL     1      28.726  35.570  12.529  1.00  0.00     0.217 C 
ATOM     50  H   UNL     1      28.385  37.664  12.619  1.00  0.00     0.163 HD
ATOM     51  C   UNL     1      29.576  35.582  13.757  1.00  0.00     0.114 C 
ATOM     52  O   UNL     1      28.495  34.500  11.902  1.00  0.00    -0.275 OA
ENDBRANCH   7  48
ENDBRANCH   1   2
BRANCH   1  53
ATOM     53  O   UNL     1      25.401  35.291   9.698  1.00  0.00    -0.388 OA
ATOM     54  H   UNL     1      26.362  35.278   9.436  1.00  0.00     0.211 HD
ENDBRANCH   1  53
BRANCH   1  55
ATOM     55  C   UNL     1      23.543  36.432  10.491  1.00  0.00     0.165 C 
BRANCH  55  56
ATOM     56  O   UNL     1      23.161  37.315  11.452  1.00  0.00    -0.388 OA
ATOM     57  H   UNL     1      23.708  37.215  12.267  1.00  0.00     0.211 HD
ENDBRANCH  55  56
BRANCH  55  58
ATOM     58  C   UNL     1      23.217  34.997  10.755  1.00  0.00     0.154 C 
BRANCH  58  59
ATOM     59  N   UNL     1      23.244  34.717  12.163  1.00  0.00    -0.319 N 
ATOM     60  C   UNL     1      24.303  34.100  12.870  1.00  0.00     0.407 C 
ATOM     61  H   UNL     1      22.410  34.981  12.779  1.00  0.00     0.167 HD
ATOM     62  O   UNL     1      25.324  33.724  12.290  1.00  0.00    -0.225 OA
BRANCH  60  63
ATOM     63  O   UNL     1      24.226  33.895  14.256  1.00  0.00    -0.443 OA
BRANCH  63  64
ATOM     64  C   UNL     1      23.402  32.905  14.820  1.00  0.00     0.294 C 
BRANCH  64  65
ATOM     65  C   UNL     1      24.281  31.839  15.353  1.00  0.00     0.120 A 
ATOM     66  C   UNL     1      24.400  31.404  16.654  1.00  0.00     0.139 A 
ATOM     67  N   UNL     1      25.135  31.107  14.628  1.00  0.00    -0.132 NA
ATOM     68  N   UNL     1      25.331  30.411  16.692  1.00  0.00    -0.238 N 
ATOM     69  N   UNL     1      25.757  30.253  15.453  1.00  0.00    -0.066 NA
BRANCH  68  70
ATOM     70  C   UNL     1      25.696  29.748  17.919  1.00  0.00     0.215 C 
ATOM     71  C   UNL     1      25.132  28.340  17.973  1.00  0.00     0.046 C 
BRANCH  70  72
ATOM     72  C   UNL     1      27.195  29.693  18.061  1.00  0.00     0.331 C 
ATOM     73  O   UNL     1      27.741  28.596  18.271  1.00  0.00    -0.250 OA
BRANCH  72  74
ATOM     74  O   UNL     1      27.966  30.827  17.961  1.00  0.00    -0.459 OA
BRANCH  74  75
ATOM     75  C   UNL     1      29.289  30.949  18.424  1.00  0.00     0.268 C 
BRANCH  75  76
ATOM     76  C   UNL     1      30.143  31.796  17.565  1.00  0.00    -0.011 A 
ATOM     77  C   UNL     1      30.697  32.969  18.008  1.00  0.00     0.007 A 
ATOM     78  C   UNL     1      30.403  31.418  16.271  1.00  0.00     0.007 A 
ATOM     79  C   UNL     1      31.490  33.762  17.211  1.00  0.00     0.000 A 
ATOM     80  C   UNL     1      31.190  32.179  15.438  1.00  0.00     0.000 A 
ATOM     81  C   UNL     1      31.735  33.362  15.922  1.00  0.00     0.000 A 
ENDBRANCH  75  76
ENDBRANCH  74  75
ENDBRANCH  72  74
ENDBRANCH  70  72
ENDBRANCH  68  70
ENDBRANCH  64  65
ENDBRANCH  63  64
ENDBRANCH  60  63
ENDBRANCH  58  59
ENDBRANCH  55  58
ENDBRANCH   1  55
TORSDOF 34
BEGIN_RES LYS A 131
REMARK  4 active torsions:
REMARK  status: ('A' for Active; 'I' for Inactive)
REMARK    1  A    between atoms: CA   and  CB  
REMARK    2  A    between atoms: CB   and  CG  
REMARK    3  A    between atoms: CG   and  CD  
REMARK    4  A    between atoms: CD   and  CE  
ROOT
ATOM      1  CA  LYS A 131      29.867  25.555  16.977  1.00 20.52     0.186 C 
ENDROOT
BRANCH   1   2
ATOM      2  CB  LYS A 131      28.345  25.722  17.026  1.00 20.94     0.034 C 
BRANCH   2   3
ATOM      3  CG  LYS A 131      27.601  24.401  16.901  1.00 22.96     0.005 C 
BRANCH   3   4
ATOM      4  CD  LYS A 131      26.144  24.536  17.247  1.00 24.33     0.041 C 
BRANCH   4   5
ATOM      5  CE  LYS A 131      25.616  23.199  17.756  1.00 26.91     0.338 C 
ATOM      6  NZ  LYS A 131      25.495  23.218  19.233  1.00 27.40     0.618 N 
ENDBRANCH   4   5
ENDBRANCH   3   4
ENDBRANCH   2   3
ENDBRANCH   1   2
END_RES LYS A 131
BEGIN_RES LYS A 135
REMARK  4 active torsions:
REMARK  status: ('A' for Active; 'I' for Inactive)
REMARK    5  A    between atoms: CA   and  CB  
REMARK    6  A    between atoms: CB   and  CG  
REMARK    7  A    between atoms: CG   and  CD  
REMARK    8  A    between atoms: CD   and  CE  
ROOT
ATOM      7  CA  LYS A 135      33.193  34.663   9.290  1.00 25.02     0.186 C 
ENDROOT
BRANCH   7   8
ATOM      8  CB  LYS A 135      32.060  35.360  10.034  1.00 26.63     0.034 C 
BRANCH   8   9
ATOM      9  CG  LYS A 135      30.836  35.592   9.186  1.00 29.45     0.005 C 
BRANCH   9  10
ATOM     10  CD  LYS A 135      30.108  34.283   8.925  1.00 32.00     0.041 C 
BRANCH  10  11
ATOM     11  CE  LYS A 135      28.791  34.538   8.216  1.00 34.25     0.338 C 
ATOM     12  NZ  LYS A 135      28.988  35.390   7.010  1.00 35.99     0.618 N 
ENDBRANCH  10  11
ENDBRANCH   9  10
ENDBRANCH   8   9
ENDBRANCH   7   8
END_RES LYS A 135
