REMARK VINA RESULT:    -4.415      3.462      7.456
REMARK INTER + INTRA:         -22.572
REMARK INTER:                  -9.281
REMARK INTRA:                 -13.292
REMARK UNBOUND:               -11.447
REMARK SMILES CC(=O)N[C@@H]1[C@@H](O)C[C@](OC[C@H]2O[C@@H](O[C@H]3[C@H](O)[C@@H](O)[C@H](OCCN=[N+]=[N-])O[C@@H]3CO)[C@H](O)[C@@H](O)[C@H]2O)(C(=O)O)O[C@H]1C(O)[C@H](O)CNC(=O)OCc1cn(-c2ccccc2C(C)C)nn1
REMARK SMILES IDX 9 1 8 2 6 3 5 4 42 5 41 6 10 7 11 8 12 9 14 10 13 11 32 12
REMARK SMILES IDX 34 13 36 14 15 15 16 16 29 17 28 18 21 19 17 20 19 21 30 22
REMARK SMILES IDX 31 23 22 25 23 26 24 27 25 28 26 29 27 30 18 31 20 33 33 35
REMARK SMILES IDX 35 37 37 39 38 41 39 42 40 43 7 45 43 47 44 48 45 50 46 51
REMARK SMILES IDX 47 53 48 54 49 55 50 57 51 58 52 59 53 60 54 61 66 62 55 63
REMARK SMILES IDX 65 64 56 65 61 66 57 67 60 68 58 69 59 70 62 71 63 72 64 73
REMARK SMILES IDX 4 74 2 75 1 77 3 78
REMARK H PARENT 31 24 18 32 20 34 33 36 35 38 37 40 40 44 7 46 44 49 46 52
REMARK H PARENT 48 56 4 76
REMARK Flexibility Score: inf
ROOT
ATOM      1  C   UNL     1      26.618  37.718   9.918  1.00  0.00     0.272 C 
ATOM      2  C   UNL     1      28.095  37.475  10.124  1.00  0.00     0.113 C 
ATOM      3  C   UNL     1      28.252  36.661  11.399  1.00  0.00     0.145 C 
ATOM      4  C   UNL     1      27.856  37.584  12.565  1.00  0.00     0.142 C 
ATOM      5  C   UNL     1      26.541  38.180  12.231  1.00  0.00     0.178 C 
ATOM      6  O   UNL     1      25.971  37.493  11.170  1.00  0.00    -0.332 OA
ENDROOT
BRANCH   1   7
ATOM      7  O   UNL     1      26.055  36.803   9.106  1.00  0.00    -0.338 OA
BRANCH   7   8
ATOM      8  C   UNL     1      25.053  36.867   8.300  1.00  0.00     0.199 C 
BRANCH   8   9
ATOM      9  C   UNL     1      23.664  36.423   8.627  1.00  0.00     0.179 C 
ATOM     10  C   UNL     1      22.344  35.482  10.220  1.00  0.00     0.282 C 
ATOM     11  O   UNL     1      23.588  35.632   9.747  1.00  0.00    -0.341 OA
ATOM     12  C   UNL     1      21.207  35.849   9.276  1.00  0.00     0.202 C 
ATOM     13  C   UNL     1      21.361  37.246   8.737  1.00  0.00     0.179 C 
ATOM     14  C   UNL     1      22.792  37.671   8.897  1.00  0.00     0.177 C 
BRANCH  10  15
ATOM     15  O   UNL     1      22.052  36.007  11.442  1.00  0.00    -0.341 OA
BRANCH  15  16
ATOM     16  C   UNL     1      22.528  35.392  12.573  1.00  0.00     0.184 C 
ATOM     17  C   UNL     1      22.695  33.915  12.428  1.00  0.00     0.178 C 
ATOM     18  O   UNL     1      21.986  33.193  13.323  1.00  0.00    -0.341 OA
ATOM     19  C   UNL     1      22.123  33.429  14.656  1.00  0.00     0.281 C 
ATOM     20  C   UNL     1      21.835  35.741  13.827  1.00  0.00     0.180 C 
ATOM     21  C   UNL     1      22.430  34.899  14.943  1.00  0.00     0.202 C 
BRANCH  17  22
ATOM     22  C   UNL     1      24.161  33.458  12.502  1.00  0.00     0.191 C 
BRANCH  22  23
ATOM     23  O   UNL     1      24.963  34.598  12.271  1.00  0.00    -0.394 OA
ATOM     24  H   UNL     1      24.463  35.370  12.685  1.00  0.00     0.210 HD
ENDBRANCH  22  23
ENDBRANCH  17  22
BRANCH  19  25
ATOM     25  O   UNL     1      23.143  32.681  15.180  1.00  0.00    -0.350 OA
BRANCH  25  26
ATOM     26  C   UNL     1      22.957  31.342  15.320  1.00  0.00     0.169 C 
BRANCH  26  27
ATOM     27  C   UNL     1      24.112  30.510  15.737  1.00  0.00     0.119 C 
BRANCH  27  28
ATOM     28  N   UNL     1      25.298  30.840  15.022  1.00  0.00    -0.092 NA
ATOM     29  N   UNL     1      26.386  31.115  15.488  1.00  0.00     0.001 N 
ATOM     30  N   UNL     1      27.440  31.218  16.103  1.00  0.00    -0.003 NA
ENDBRANCH  27  28
ENDBRANCH  26  27
ENDBRANCH  25  26
ENDBRANCH  19  25
BRANCH  20  31
ATOM     31  O   UNL     1      21.988  37.069  14.221  1.00  0.00    -0.387 OA
ATOM     32  H   UNL     1      21.643  37.157  15.137  1.00  0.00     0.211 HD
ENDBRANCH  20  31
BRANCH  21  33
ATOM     33  O   UNL     1      21.848  35.226  16.170  1.00  0.00    -0.385 OA
ATOM     34  H   UNL     1      22.037  34.473  16.786  1.00  0.00     0.211 HD
ENDBRANCH  21  33
ENDBRANCH  15  16
ENDBRANCH  10  15
BRANCH  12  35
ATOM     35  O   UNL     1      21.190  34.920   8.250  1.00  0.00    -0.385 OA
ATOM     36  H   UNL     1      21.658  35.298   7.440  1.00  0.00     0.211 HD
ENDBRANCH  12  35
BRANCH  13  37
ATOM     37  O   UNL     1      20.493  38.102   9.428  1.00  0.00    -0.387 OA
ATOM     38  H   UNL     1      19.823  38.412   8.769  1.00  0.00     0.211 HD
ENDBRANCH  13  37
BRANCH  14  39
ATOM     39  O   UNL     1      23.024  38.054  10.201  1.00  0.00    -0.387 OA
ATOM     40  H   UNL     1      23.577  38.875  10.184  1.00  0.00     0.211 HD
ENDBRANCH  14  39
ENDBRANCH   8   9
ENDBRANCH   7   8
ENDBRANCH   1   7
BRANCH   1  41
ATOM     41  C   UNL     1      26.344  39.102   9.513  1.00  0.00     0.364 C 
ATOM     42  O   UNL     1      27.172  39.627   8.687  1.00  0.00    -0.246 OA
BRANCH  41  43
ATOM     43  O   UNL     1      25.318  39.923   9.901  1.00  0.00    -0.477 OA
ATOM     44  H   UNL     1      24.991  40.743   9.424  1.00  0.00     0.296 HD
ENDBRANCH  41  43
ENDBRANCH   1  41
BRANCH   3  45
ATOM     45  O   UNL     1      27.304  35.632  11.420  1.00  0.00    -0.391 OA
ATOM     46  H   UNL     1      27.724  34.841  10.998  1.00  0.00     0.211 HD
ENDBRANCH   3  45
BRANCH   5  47
ATOM     47  C   UNL     1      25.494  38.186  13.303  1.00  0.00     0.176 C 
BRANCH  47  48
ATOM     48  O   UNL     1      24.319  37.716  12.618  1.00  0.00    -0.388 OA
ATOM     49  H   UNL     1      24.112  36.874  13.135  1.00  0.00     0.211 HD
ENDBRANCH  47  48
BRANCH  47  50
ATOM     50  C   UNL     1      25.112  39.517  13.868  1.00  0.00     0.165 C 
BRANCH  50  51
ATOM     51  O   UNL     1      25.312  40.568  13.014  1.00  0.00    -0.388 OA
ATOM     52  H   UNL     1      26.107  40.343  12.465  1.00  0.00     0.211 HD
ENDBRANCH  50  51
BRANCH  50  53
ATOM     53  C   UNL     1      25.484  39.696  15.292  1.00  0.00     0.154 C 
BRANCH  53  54
ATOM     54  N   UNL     1      26.066  38.534  15.935  1.00  0.00    -0.319 N 
ATOM     55  C   UNL     1      25.258  37.517  16.499  1.00  0.00     0.407 C 
ATOM     56  H   UNL     1      27.096  38.395  16.010  1.00  0.00     0.167 HD
ATOM     57  O   UNL     1      24.006  37.539  16.494  1.00  0.00    -0.225 OA
BRANCH  55  58
ATOM     58  O   UNL     1      25.802  36.370  17.126  1.00  0.00    -0.443 OA
BRANCH  58  59
ATOM     59  C   UNL     1      25.696  35.123  16.510  1.00  0.00     0.294 C 
BRANCH  59  60
ATOM     60  C   UNL     1      26.896  34.916  15.651  1.00  0.00     0.121 A 
ATOM     61  C   UNL     1      28.219  35.228  15.871  1.00  0.00     0.144 A 
ATOM     62  N   UNL     1      26.898  34.339  14.407  1.00  0.00    -0.131 NA
ATOM     63  N   UNL     1      28.983  34.864  14.828  1.00  0.00    -0.220 N 
ATOM     64  N   UNL     1      28.131  34.321  13.947  1.00  0.00    -0.062 NA
BRANCH  63  65
ATOM     65  C   UNL     1      30.389  34.991  14.643  1.00  0.00     0.070 A 
ATOM     66  C   UNL     1      31.242  34.232  15.413  1.00  0.00    -0.020 A 
ATOM     67  C   UNL     1      30.957  35.852  13.732  1.00  0.00     0.029 A 
ATOM     68  C   UNL     1      32.612  34.337  15.273  1.00  0.00     0.006 A 
ATOM     69  C   UNL     1      32.327  35.968  13.579  1.00  0.00     0.002 A 
ATOM     70  C   UNL     1      33.167  35.201  14.360  1.00  0.00     0.000 A 
BRANCH  66  71
ATOM     71  C   UNL     1      30.673  33.288  16.396  1.00  0.00     0.015 C 
ATOM     72  C   UNL     1      31.340  33.545  17.738  1.00  0.00     0.012 C 
ATOM     73  C   UNL     1      31.013  31.849  15.974  1.00  0.00     0.012 C 
ENDBRANCH  66  71
ENDBRANCH  63  65
ENDBRANCH  59  60
ENDBRANCH  58  59
ENDBRANCH  55  58
ENDBRANCH  53  54
ENDBRANCH  50  53
ENDBRANCH  47  50
ENDBRANCH   5  47
BRANCH   4  74
ATOM     74  N   UNL     1      28.907  38.566  12.699  1.00  0.00    -0.348 N 
ATOM     75  C   UNL     1      29.423  39.038  13.916  1.00  0.00     0.217 C 
ATOM     76  H   UNL     1      29.320  38.970  11.805  1.00  0.00     0.163 HD
ATOM     77  C   UNL     1      30.516  40.068  13.885  1.00  0.00     0.114 C 
ATOM     78  O   UNL     1      28.990  38.617  14.997  1.00  0.00    -0.275 OA
ENDBRANCH   4  74
TORSDOF 31
BEGIN_RES LYS A 131
REMARK  4 active torsions:
REMARK  status: ('A' for Active; 'I' for Inactive)
REMARK    1  A    between atoms: CA   and  CB  
REMARK    2  A    between atoms: CB   and  CG  
REMARK    3  A    between atoms: CG   and  CD  
REMARK    4  A    between atoms: CD   and  CE  
ROOT
ATOM      1  CA  LYS A 131      29.867  25.555  16.977  1.00 20.52     0.186 C 
ENDROOT
BRANCH   1   2
ATOM      2  CB  LYS A 131      28.345  25.722  17.026  1.00 20.94     0.034 C 
BRANCH   2   3
ATOM      3  CG  LYS A 131      27.599  24.426  16.749  1.00 22.96     0.005 C 
BRANCH   3   4
ATOM      4  CD  LYS A 131      26.892  23.907  17.970  1.00 24.33     0.041 C 
BRANCH   4   5
ATOM      5  CE  LYS A 131      25.583  23.242  17.556  1.00 26.91     0.338 C 
ATOM      6  NZ  LYS A 131      24.657  24.240  16.971  1.00 27.40     0.618 N 
ENDBRANCH   4   5
ENDBRANCH   3   4
ENDBRANCH   2   3
ENDBRANCH   1   2
END_RES LYS A 131
BEGIN_RES LYS A 135
REMARK  4 active torsions:
REMARK  status: ('A' for Active; 'I' for Inactive)
REMARK    5  A    between atoms: CA   and  CB  
REMARK    6  A    between atoms: CB   and  CG  
REMARK    7  A    between atoms: CG   and  CD  
REMARK    8  A    between atoms: CD   and  CE  
ROOT
ATOM      7  CA  LYS A 135      33.193  34.663   9.290  1.00 25.02     0.186 C 
ENDROOT
BRANCH   7   8
ATOM      8  CB  LYS A 135      32.060  35.360  10.034  1.00 26.63     0.034 C 
BRANCH   8   9
ATOM      9  CG  LYS A 135      30.713  34.721   9.816  1.00 29.45     0.005 C 
BRANCH   9  10
ATOM     10  CD  LYS A 135      30.442  34.532   8.331  1.00 32.00     0.041 C 
BRANCH  10  11
ATOM     11  CE  LYS A 135      28.975  34.761   8.024  1.00 34.25     0.338 C 
ATOM     12  NZ  LYS A 135      28.806  35.552   6.773  1.00 35.99     0.618 N 
ENDBRANCH  10  11
ENDBRANCH   9  10
ENDBRANCH   8   9
ENDBRANCH   7   8
END_RES LYS A 135
