REMARK VINA RESULT:    -4.999      2.693      7.912
REMARK INTER + INTRA:         -22.006
REMARK INTER:                  -8.814
REMARK INTRA:                 -13.192
REMARK UNBOUND:                -9.116
REMARK SMILES CC(=O)N[C@@H]1[C@@H](O)C[C@](OC[C@H]2O[C@@H](O[C@H]3[C@H](O)[C@@H](O)[C@H](OCCN=[N+]=[N-])O[C@@H]3CO)[C@H](O)[C@@H](O)[C@H]2O)(C(=O)O)O[C@H]1C(O)[C@H](O)CNC(=O)OCc1cn(CCC2OCCO2)nn1
REMARK SMILES IDX 9 1 8 2 6 3 5 4 42 5 41 6 10 7 11 8 12 9 14 10 13 11 32 12
REMARK SMILES IDX 34 13 36 14 15 15 16 16 29 17 28 18 21 19 17 20 19 21 30 22
REMARK SMILES IDX 31 23 22 25 23 26 24 27 25 28 26 29 27 30 18 31 20 33 33 35
REMARK SMILES IDX 35 37 37 39 38 41 39 42 40 43 7 45 43 47 44 48 45 50 46 51
REMARK SMILES IDX 47 53 48 54 49 55 50 57 51 58 52 59 53 60 54 61 64 62 55 63
REMARK SMILES IDX 63 64 56 65 57 66 58 67 59 68 62 69 60 70 61 71 4 72 2 73
REMARK SMILES IDX 1 75 3 76
REMARK H PARENT 31 24 18 32 20 34 33 36 35 38 37 40 40 44 7 46 44 49 46 52
REMARK H PARENT 48 56 4 74
REMARK Flexibility Score: inf
ROOT
ATOM      1  C   UNL     1      29.678  31.414  17.722  1.00  0.00     0.272 C 
ATOM      2  C   UNL     1      30.276  32.851  17.949  1.00  0.00     0.113 C 
ATOM      3  C   UNL     1      29.477  33.875  17.263  1.00  0.00     0.145 C 
ATOM      4  C   UNL     1      28.049  33.835  17.771  1.00  0.00     0.142 C 
ATOM      5  C   UNL     1      27.697  32.514  18.366  1.00  0.00     0.178 C 
ATOM      6  O   UNL     1      28.313  31.419  17.872  1.00  0.00    -0.332 OA
ENDROOT
BRANCH   1   7
ATOM      7  O   UNL     1      30.257  30.706  18.692  1.00  0.00    -0.338 OA
BRANCH   7   8
ATOM      8  C   UNL     1      30.793  31.118  19.818  1.00  0.00     0.199 C 
BRANCH   8   9
ATOM      9  C   UNL     1      30.805  30.269  21.049  1.00  0.00     0.179 C 
ATOM     10  C   UNL     1      29.499  28.686  22.173  1.00  0.00     0.282 C 
ATOM     11  O   UNL     1      29.558  29.740  21.285  1.00  0.00    -0.341 OA
ATOM     12  C   UNL     1      30.721  28.449  22.981  1.00  0.00     0.202 C 
ATOM     13  C   UNL     1      31.995  28.470  22.181  1.00  0.00     0.179 C 
ATOM     14  C   UNL     1      31.720  29.038  20.829  1.00  0.00     0.177 C 
BRANCH  10  15
ATOM     15  O   UNL     1      28.996  27.573  21.500  1.00  0.00    -0.341 OA
BRANCH  15  16
ATOM     16  C   UNL     1      27.646  27.669  21.193  1.00  0.00     0.184 C 
ATOM     17  C   UNL     1      26.807  26.554  21.738  1.00  0.00     0.178 C 
ATOM     18  O   UNL     1      25.474  26.830  21.423  1.00  0.00    -0.341 OA
ATOM     19  C   UNL     1      25.205  26.762  20.064  1.00  0.00     0.281 C 
ATOM     20  C   UNL     1      27.474  27.577  19.650  1.00  0.00     0.180 C 
ATOM     21  C   UNL     1      26.001  27.889  19.412  1.00  0.00     0.202 C 
BRANCH  17  22
ATOM     22  C   UNL     1      26.877  26.566  23.255  1.00  0.00     0.191 C 
BRANCH  22  23
ATOM     23  O   UNL     1      27.952  25.702  23.583  1.00  0.00    -0.394 OA
ATOM     24  H   UNL     1      28.777  26.190  23.788  1.00  0.00     0.210 HD
ENDBRANCH  22  23
ENDBRANCH  17  22
BRANCH  19  25
ATOM     25  O   UNL     1      23.863  26.932  19.870  1.00  0.00    -0.350 OA
BRANCH  25  26
ATOM     26  C   UNL     1      23.105  27.082  20.996  1.00  0.00     0.169 C 
BRANCH  26  27
ATOM     27  C   UNL     1      22.290  28.356  21.049  1.00  0.00     0.119 C 
BRANCH  27  28
ATOM     28  N   UNL     1      23.061  29.418  21.669  1.00  0.00    -0.092 NA
ATOM     29  N   UNL     1      23.627  29.288  22.751  1.00  0.00     0.001 N 
ATOM     30  N   UNL     1      24.353  29.193  23.737  1.00  0.00    -0.003 NA
ENDBRANCH  27  28
ENDBRANCH  26  27
ENDBRANCH  25  26
ENDBRANCH  19  25
BRANCH  20  31
ATOM     31  O   UNL     1      28.264  28.536  19.065  1.00  0.00    -0.387 OA
ATOM     32  H   UNL     1      27.843  28.816  18.206  1.00  0.00     0.211 HD
ENDBRANCH  20  31
BRANCH  21  33
ATOM     33  O   UNL     1      25.807  27.943  18.049  1.00  0.00    -0.385 OA
ATOM     34  H   UNL     1      26.350  27.230  17.628  1.00  0.00     0.211 HD
ENDBRANCH  21  33
ENDBRANCH  15  16
ENDBRANCH  10  15
BRANCH  12  35
ATOM     35  O   UNL     1      30.773  29.396  24.035  1.00  0.00    -0.385 OA
ATOM     36  H   UNL     1      30.342  30.211  23.665  1.00  0.00     0.211 HD
ENDBRANCH  12  35
BRANCH  13  37
ATOM     37  O   UNL     1      32.600  27.214  22.129  1.00  0.00    -0.387 OA
ATOM     38  H   UNL     1      32.283  26.762  21.304  1.00  0.00     0.211 HD
ENDBRANCH  13  37
BRANCH  14  39
ATOM     39  O   UNL     1      31.089  28.167  19.965  1.00  0.00    -0.387 OA
ATOM     40  H   UNL     1      31.660  27.851  19.221  1.00  0.00     0.211 HD
ENDBRANCH  14  39
ENDBRANCH   8   9
ENDBRANCH   7   8
ENDBRANCH   1   7
BRANCH   1  41
ATOM     41  C   UNL     1      29.974  31.156  16.313  1.00  0.00     0.364 C 
ATOM     42  O   UNL     1      29.099  30.525  15.588  1.00  0.00    -0.246 OA
BRANCH  41  43
ATOM     43  O   UNL     1      31.096  31.503  15.596  1.00  0.00    -0.477 OA
ATOM     44  H   UNL     1      31.665  32.282  15.897  1.00  0.00     0.296 HD
ENDBRANCH  41  43
ENDBRANCH   1  41
BRANCH   3  45
ATOM     45  O   UNL     1      30.066  35.130  17.593  1.00  0.00    -0.391 OA
ATOM     46  H   UNL     1      30.975  34.915  17.965  1.00  0.00     0.211 HD
ENDBRANCH   3  45
BRANCH   5  47
ATOM     47  C   UNL     1      27.676  32.610  19.862  1.00  0.00     0.176 C 
BRANCH  47  48
ATOM     48  O   UNL     1      27.096  33.800  20.326  1.00  0.00    -0.388 OA
ATOM     49  H   UNL     1      26.118  33.674  20.501  1.00  0.00     0.211 HD
ENDBRANCH  47  48
BRANCH  47  50
ATOM     50  C   UNL     1      26.736  31.517  20.444  1.00  0.00     0.165 C 
BRANCH  50  51
ATOM     51  O   UNL     1      26.177  30.823  19.397  1.00  0.00    -0.388 OA
ATOM     52  H   UNL     1      26.640  30.939  18.547  1.00  0.00     0.211 HD
ENDBRANCH  50  51
BRANCH  50  53
ATOM     53  C   UNL     1      25.822  32.160  21.405  1.00  0.00     0.154 C 
BRANCH  53  54
ATOM     54  N   UNL     1      24.453  32.052  21.010  1.00  0.00    -0.319 N 
ATOM     55  C   UNL     1      23.684  33.103  20.513  1.00  0.00     0.407 C 
ATOM     56  H   UNL     1      24.009  31.104  21.106  1.00  0.00     0.167 HD
ATOM     57  O   UNL     1      24.155  34.245  20.390  1.00  0.00    -0.225 OA
BRANCH  55  58
ATOM     58  O   UNL     1      22.345  32.958  20.123  1.00  0.00    -0.443 OA
BRANCH  58  59
ATOM     59  C   UNL     1      21.998  32.773  18.763  1.00  0.00     0.294 C 
BRANCH  59  60
ATOM     60  C   UNL     1      22.946  31.890  18.045  1.00  0.00     0.120 A 
ATOM     61  C   UNL     1      23.721  32.273  16.946  1.00  0.00     0.138 A 
ATOM     62  N   UNL     1      23.266  30.604  18.256  1.00  0.00    -0.132 NA
ATOM     63  N   UNL     1      24.472  31.214  16.541  1.00  0.00    -0.252 N 
ATOM     64  N   UNL     1      24.176  30.223  17.350  1.00  0.00    -0.067 NA
BRANCH  63  65
ATOM     65  C   UNL     1      25.396  31.289  15.419  1.00  0.00     0.151 C 
BRANCH  65  66
ATOM     66  C   UNL     1      24.750  30.730  14.159  1.00  0.00     0.086 C 
BRANCH  66  67
ATOM     67  C   UNL     1      24.367  31.825  13.205  1.00  0.00     0.251 C 
ATOM     68  O   UNL     1      23.026  32.160  13.401  1.00  0.00    -0.350 OA
ATOM     69  O   UNL     1      25.074  32.996  13.397  1.00  0.00    -0.350 OA
ATOM     70  C   UNL     1      22.887  33.412  12.814  1.00  0.00     0.192 C 
ATOM     71  C   UNL     1      24.315  33.885  12.600  1.00  0.00     0.192 C 
ENDBRANCH  66  67
ENDBRANCH  65  66
ENDBRANCH  63  65
ENDBRANCH  59  60
ENDBRANCH  58  59
ENDBRANCH  55  58
ENDBRANCH  53  54
ENDBRANCH  50  53
ENDBRANCH  47  50
ENDBRANCH   5  47
BRANCH   4  72
ATOM     72  N   UNL     1      27.119  34.259  16.726  1.00  0.00    -0.348 N 
ATOM     73  C   UNL     1      26.091  35.182  16.937  1.00  0.00     0.217 C 
ATOM     74  H   UNL     1      27.260  33.823  15.768  1.00  0.00     0.163 HD
ATOM     75  C   UNL     1      25.177  35.566  15.813  1.00  0.00     0.114 C 
ATOM     76  O   UNL     1      25.969  35.669  18.094  1.00  0.00    -0.275 OA
ENDBRANCH   4  72
TORSDOF 32
BEGIN_RES LYS A 131
REMARK  4 active torsions:
REMARK  status: ('A' for Active; 'I' for Inactive)
REMARK    1  A    between atoms: CA   and  CB  
REMARK    2  A    between atoms: CB   and  CG  
REMARK    3  A    between atoms: CG   and  CD  
REMARK    4  A    between atoms: CD   and  CE  
ROOT
ATOM      1  CA  LYS A 131      29.867  25.555  16.977  1.00 20.52     0.186 C 
ENDROOT
BRANCH   1   2
ATOM      2  CB  LYS A 131      28.345  25.722  17.026  1.00 20.94     0.034 C 
BRANCH   2   3
ATOM      3  CG  LYS A 131      27.601  24.404  16.873  1.00 22.96     0.005 C 
BRANCH   3   4
ATOM      4  CD  LYS A 131      26.566  24.210  17.947  1.00 24.33     0.041 C 
BRANCH   4   5
ATOM      5  CE  LYS A 131      25.265  23.724  17.317  1.00 26.91     0.338 C 
ATOM      6  NZ  LYS A 131      24.387  24.872  16.990  1.00 27.40     0.618 N 
ENDBRANCH   4   5
ENDBRANCH   3   4
ENDBRANCH   2   3
ENDBRANCH   1   2
END_RES LYS A 131
BEGIN_RES LYS A 135
REMARK  4 active torsions:
REMARK  status: ('A' for Active; 'I' for Inactive)
REMARK    5  A    between atoms: CA   and  CB  
REMARK    6  A    between atoms: CB   and  CG  
REMARK    7  A    between atoms: CG   and  CD  
REMARK    8  A    between atoms: CD   and  CE  
ROOT
ATOM      7  CA  LYS A 135      33.193  34.663   9.290  1.00 25.02     0.186 C 
ENDROOT
BRANCH   7   8
ATOM      8  CB  LYS A 135      32.060  35.360  10.034  1.00 26.63     0.034 C 
BRANCH   8   9
ATOM      9  CG  LYS A 135      30.708  34.739   9.792  1.00 29.45     0.005 C 
BRANCH   9  10
ATOM     10  CD  LYS A 135      30.484  34.505   8.306  1.00 32.00     0.041 C 
BRANCH  10  11
ATOM     11  CE  LYS A 135      29.043  34.798   7.933  1.00 34.25     0.338 C 
ATOM     12  NZ  LYS A 135      28.113  34.392   9.023  1.00 35.99     0.618 N 
ENDBRANCH  10  11
ENDBRANCH   9  10
ENDBRANCH   8   9
ENDBRANCH   7   8
END_RES LYS A 135
