REMARK VINA RESULT:    -3.625      2.641      9.338
REMARK INTER + INTRA:         -22.658
REMARK INTER:                 -11.583
REMARK INTRA:                 -11.075
REMARK UNBOUND:               -13.100
REMARK SMILES CC(=O)N[C@@H]1[C@@H](O)C[C@](OC[C@H]2O[C@@H](O[C@H]3[C@H](O)[C@@H](O)[C@H](OCCN=[N+]=[N-])O[C@@H]3CO)[C@H](O)[C@@H](O)[C@H]2O)(C(=O)O)O[C@H]1C(O)[C@H](O)CNC(=O)OCc1cn(CCNS(C)(=O)=O)nn1
REMARK SMILES IDX 43 1 42 2 9 3 8 4 41 5 6 6 5 7 10 8 11 9 12 10 14 11 13 12
REMARK SMILES IDX 32 13 34 14 36 15 15 16 16 17 29 18 28 19 21 20 17 21 19 22
REMARK SMILES IDX 30 23 31 24 22 26 23 27 24 28 25 29 26 30 27 31 18 32 20 34
REMARK SMILES IDX 33 36 35 38 37 40 38 42 39 43 40 44 7 46 4 48 2 49 1 51 3 52
REMARK SMILES IDX 44 53 45 55 46 56 47 58 48 59 49 60 50 62 51 63 52 64 53 65
REMARK SMILES IDX 54 66 64 67 55 68 63 69 56 70 57 71 58 72 59 74 61 75 62 76
REMARK SMILES IDX 60 77
REMARK H PARENT 31 25 18 33 20 35 33 37 35 39 37 41 40 45 7 47 4 50 44 54
REMARK H PARENT 46 57 48 61 58 73
REMARK Flexibility Score: inf
ROOT
ATOM      1  C   UNL     1      28.840  36.408  13.453  1.00  0.00     0.176 C 
ENDROOT
BRANCH   1   2
ATOM      2  C   UNL     1      30.375  36.474  13.561  1.00  0.00     0.178 C 
ATOM      3  C   UNL     1      32.084  35.180  14.502  1.00  0.00     0.272 C 
ATOM      4  C   UNL     1      32.525  36.220  15.453  1.00  0.00     0.113 C 
ATOM      5  O   UNL     1      30.745  35.317  14.158  1.00  0.00    -0.332 OA
ATOM      6  C   UNL     1      31.716  37.487  15.449  1.00  0.00     0.145 C 
ATOM      7  C   UNL     1      30.782  37.684  14.306  1.00  0.00     0.142 C 
BRANCH   3   8
ATOM      8  O   UNL     1      32.185  33.858  14.947  1.00  0.00    -0.338 OA
BRANCH   8   9
ATOM      9  C   UNL     1      31.905  33.725  16.296  1.00  0.00     0.199 C 
BRANCH   9  10
ATOM     10  C   UNL     1      31.108  32.492  16.541  1.00  0.00     0.179 C 
ATOM     11  C   UNL     1      30.184  31.097  18.129  1.00  0.00     0.282 C 
ATOM     12  O   UNL     1      30.733  32.363  17.867  1.00  0.00    -0.341 OA
ATOM     13  C   UNL     1      28.928  30.872  17.360  1.00  0.00     0.202 C 
ATOM     14  C   UNL     1      29.287  30.919  15.891  1.00  0.00     0.179 C 
ATOM     15  C   UNL     1      30.010  32.186  15.578  1.00  0.00     0.177 C 
BRANCH  11  16
ATOM     16  O   UNL     1      29.986  31.022  19.475  1.00  0.00    -0.341 OA
BRANCH  16  17
ATOM     17  C   UNL     1      30.489  29.934  20.102  1.00  0.00     0.184 C 
ATOM     18  C   UNL     1      29.694  29.216  21.118  1.00  0.00     0.178 C 
ATOM     19  O   UNL     1      30.572  28.560  21.982  1.00  0.00    -0.341 OA
ATOM     20  C   UNL     1      31.177  29.416  22.857  1.00  0.00     0.281 C 
ATOM     21  C   UNL     1      31.890  30.232  20.704  1.00  0.00     0.180 C 
ATOM     22  C   UNL     1      31.586  30.675  22.120  1.00  0.00     0.202 C 
BRANCH  18  23
ATOM     23  C   UNL     1      28.890  28.092  20.472  1.00  0.00     0.191 C 
BRANCH  23  24
ATOM     24  O   UNL     1      29.718  26.960  20.292  1.00  0.00    -0.394 OA
ATOM     25  H   UNL     1      29.692  26.363  21.071  1.00  0.00     0.210 HD
ENDBRANCH  23  24
ENDBRANCH  18  23
BRANCH  20  26
ATOM     26  O   UNL     1      32.279  28.817  23.486  1.00  0.00    -0.350 OA
BRANCH  26  27
ATOM     27  C   UNL     1      33.047  29.680  24.226  1.00  0.00     0.169 C 
BRANCH  27  28
ATOM     28  C   UNL     1      34.465  29.204  24.187  1.00  0.00     0.119 C 
BRANCH  28  29
ATOM     29  N   UNL     1      35.068  29.383  22.872  1.00  0.00    -0.092 NA
ATOM     30  N   UNL     1      35.127  30.561  22.480  1.00  0.00     0.001 N 
ATOM     31  N   UNL     1      35.263  31.579  21.811  1.00  0.00    -0.003 NA
ENDBRANCH  28  29
ENDBRANCH  27  28
ENDBRANCH  26  27
ENDBRANCH  20  26
BRANCH  21  32
ATOM     32  O   UNL     1      32.631  29.049  20.779  1.00  0.00    -0.387 OA
ATOM     33  H   UNL     1      32.223  28.458  21.467  1.00  0.00     0.211 HD
ENDBRANCH  21  32
BRANCH  22  34
ATOM     34  O   UNL     1      30.642  31.673  22.206  1.00  0.00    -0.385 OA
ATOM     35  H   UNL     1      30.303  31.833  23.124  1.00  0.00     0.211 HD
ENDBRANCH  22  34
ENDBRANCH  16  17
ENDBRANCH  11  16
BRANCH  13  36
ATOM     36  O   UNL     1      28.431  29.578  17.574  1.00  0.00    -0.385 OA
ATOM     37  H   UNL     1      29.131  28.962  17.912  1.00  0.00     0.211 HD
ENDBRANCH  13  36
BRANCH  14  38
ATOM     38  O   UNL     1      28.211  30.653  15.081  1.00  0.00    -0.387 OA
ATOM     39  H   UNL     1      27.874  29.709  15.192  1.00  0.00     0.211 HD
ENDBRANCH  14  38
BRANCH  15  40
ATOM     40  O   UNL     1      29.097  33.236  15.603  1.00  0.00    -0.387 OA
ATOM     41  H   UNL     1      28.265  33.040  15.100  1.00  0.00     0.211 HD
ENDBRANCH  15  40
ENDBRANCH   9  10
ENDBRANCH   8   9
ENDBRANCH   3   8
BRANCH   3  42
ATOM     42  C   UNL     1      32.896  35.209  13.262  1.00  0.00     0.364 C 
ATOM     43  O   UNL     1      32.615  35.985  12.290  1.00  0.00    -0.246 OA
BRANCH  42  44
ATOM     44  O   UNL     1      34.007  34.419  13.043  1.00  0.00    -0.477 OA
ATOM     45  H   UNL     1      34.300  34.108  12.121  1.00  0.00     0.296 HD
ENDBRANCH  42  44
ENDBRANCH   3  42
BRANCH   6  46
ATOM     46  O   UNL     1      31.030  37.647  16.645  1.00  0.00    -0.391 OA
ATOM     47  H   UNL     1      30.135  37.255  16.677  1.00  0.00     0.211 HD
ENDBRANCH   6  46
BRANCH   7  48
ATOM     48  N   UNL     1      31.402  38.648  13.382  1.00  0.00    -0.348 N 
ATOM     49  C   UNL     1      30.765  39.732  12.770  1.00  0.00     0.217 C 
ATOM     50  H   UNL     1      32.456  38.545  13.168  1.00  0.00     0.163 HD
ATOM     51  C   UNL     1      31.506  40.644  11.828  1.00  0.00     0.114 C 
ATOM     52  O   UNL     1      29.549  39.993  12.975  1.00  0.00    -0.275 OA
ENDBRANCH   7  48
ENDBRANCH   1   2
BRANCH   1  53
ATOM     53  O   UNL     1      28.299  37.505  14.148  1.00  0.00    -0.388 OA
ATOM     54  H   UNL     1      27.656  37.149  14.787  1.00  0.00     0.211 HD
ENDBRANCH   1  53
BRANCH   1  55
ATOM     55  C   UNL     1      28.420  36.500  12.033  1.00  0.00     0.165 C 
BRANCH  55  56
ATOM     56  O   UNL     1      28.948  37.544  11.313  1.00  0.00    -0.388 OA
ATOM     57  H   UNL     1      29.937  37.503  11.222  1.00  0.00     0.211 HD
ENDBRANCH  55  56
BRANCH  55  58
ATOM     58  C   UNL     1      26.953  36.347  11.779  1.00  0.00     0.154 C 
BRANCH  58  59
ATOM     59  N   UNL     1      26.364  35.315  12.590  1.00  0.00    -0.319 N 
ATOM     60  C   UNL     1      25.213  34.620  12.057  1.00  0.00     0.407 C 
ATOM     61  H   UNL     1      26.707  35.039  13.524  1.00  0.00     0.167 HD
ATOM     62  O   UNL     1      24.831  34.960  10.909  1.00  0.00    -0.225 OA
BRANCH  60  63
ATOM     63  O   UNL     1      24.582  33.643  12.783  1.00  0.00    -0.443 OA
BRANCH  63  64
ATOM     64  C   UNL     1      23.944  33.960  13.998  1.00  0.00     0.294 C 
BRANCH  64  65
ATOM     65  C   UNL     1      24.831  33.694  15.146  1.00  0.00     0.120 A 
ATOM     66  C   UNL     1      24.684  34.150  16.446  1.00  0.00     0.138 A 
ATOM     67  N   UNL     1      25.920  32.938  15.160  1.00  0.00    -0.132 NA
ATOM     68  N   UNL     1      25.670  33.666  17.203  1.00  0.00    -0.251 N 
ATOM     69  N   UNL     1      26.429  32.920  16.398  1.00  0.00    -0.067 NA
BRANCH  68  70
ATOM     70  C   UNL     1      25.878  33.915  18.619  1.00  0.00     0.162 C 
BRANCH  70  71
ATOM     71  C   UNL     1      27.273  33.444  19.025  1.00  0.00     0.122 C 
BRANCH  71  72
ATOM     72  N   UNL     1      28.284  34.238  18.389  1.00  0.00    -0.214 NA
ATOM     73  H   UNL     1      27.819  34.935  17.748  1.00  0.00     0.141 HD
BRANCH  72  74
ATOM     74  S   UNL     1      29.229  35.143  19.506  1.00  0.00     0.208 S 
ATOM     75  O   UNL     1      29.810  34.218  20.562  1.00  0.00    -0.213 OA
ATOM     76  O   UNL     1      30.373  35.739  18.709  1.00  0.00    -0.213 OA
ATOM     77  C   UNL     1      28.274  36.427  20.253  1.00  0.00     0.176 C 
ENDBRANCH  72  74
ENDBRANCH  71  72
ENDBRANCH  70  71
ENDBRANCH  68  70
ENDBRANCH  64  65
ENDBRANCH  63  64
ENDBRANCH  60  63
ENDBRANCH  58  59
ENDBRANCH  55  58
ENDBRANCH   1  55
TORSDOF 33
BEGIN_RES LYS A 131
REMARK  4 active torsions:
REMARK  status: ('A' for Active; 'I' for Inactive)
REMARK    1  A    between atoms: CA   and  CB  
REMARK    2  A    between atoms: CB   and  CG  
REMARK    3  A    between atoms: CG   and  CD  
REMARK    4  A    between atoms: CD   and  CE  
ROOT
ATOM      1  CA  LYS A 131      29.867  25.555  16.977  1.00 20.52     0.186 C 
ENDROOT
BRANCH   1   2
ATOM      2  CB  LYS A 131      28.345  25.722  17.026  1.00 20.94     0.034 C 
BRANCH   2   3
ATOM      3  CG  LYS A 131      27.601  24.403  16.886  1.00 22.96     0.005 C 
BRANCH   3   4
ATOM      4  CD  LYS A 131      26.335  24.378  17.696  1.00 24.33     0.041 C 
BRANCH   4   5
ATOM      5  CE  LYS A 131      25.691  22.999  17.592  1.00 26.91     0.338 C 
ATOM      6  NZ  LYS A 131      24.282  23.116  17.148  1.00 27.40     0.618 N 
ENDBRANCH   4   5
ENDBRANCH   3   4
ENDBRANCH   2   3
ENDBRANCH   1   2
END_RES LYS A 131
BEGIN_RES LYS A 135
REMARK  4 active torsions:
REMARK  status: ('A' for Active; 'I' for Inactive)
REMARK    5  A    between atoms: CA   and  CB  
REMARK    6  A    between atoms: CB   and  CG  
REMARK    7  A    between atoms: CG   and  CD  
REMARK    8  A    between atoms: CD   and  CE  
ROOT
ATOM      7  CA  LYS A 135      33.193  34.663   9.290  1.00 25.02     0.186 C 
ENDROOT
BRANCH   7   8
ATOM      8  CB  LYS A 135      32.060  35.360  10.034  1.00 26.63     0.034 C 
BRANCH   8   9
ATOM      9  CG  LYS A 135      30.818  35.548   9.201  1.00 29.45     0.005 C 
BRANCH   9  10
ATOM     10  CD  LYS A 135      30.103  34.221   8.998  1.00 32.00     0.041 C 
BRANCH  10  11
ATOM     11  CE  LYS A 135      28.653  34.451   8.617  1.00 34.25     0.338 C 
ATOM     12  NZ  LYS A 135      27.738  33.662   9.489  1.00 35.99     0.618 N 
ENDBRANCH  10  11
ENDBRANCH   9  10
ENDBRANCH   8   9
ENDBRANCH   7   8
END_RES LYS A 135
