REMARK VINA RESULT:    -4.570      7.737     13.974
REMARK INTER + INTRA:         -24.066
REMARK INTER:                 -13.415
REMARK INTRA:                 -10.651
REMARK UNBOUND:               -11.748
REMARK SMILES CC(=O)N[C@@H]1[C@@H](O)C[C@](OC[C@H]2O[C@@H](O[C@H]3[C@H](O)[C@@H](O)[C@H](OCCN=[N+]=[N-])O[C@@H]3CO)[C@H](O)[C@@H](O)[C@H]2O)(C(=O)O)O[C@H]1C(O)[C@H](O)CNC(=O)OCc1cn([C@@H](C)C(=O)OCc2ccccc2)nn1
REMARK SMILES IDX 43 1 42 2 9 3 8 4 41 5 6 6 5 7 10 8 11 9 12 10 14 11 13 12
REMARK SMILES IDX 32 13 34 14 36 15 15 16 16 17 29 18 28 19 21 20 17 21 19 22
REMARK SMILES IDX 30 23 31 24 22 26 23 27 24 28 25 29 26 30 27 31 18 32 20 34
REMARK SMILES IDX 33 36 35 38 37 40 38 42 39 43 40 44 7 46 4 48 2 49 1 51 3 52
REMARK SMILES IDX 44 53 45 55 46 56 47 58 48 59 49 60 50 62 51 63 52 64 53 65
REMARK SMILES IDX 54 66 69 67 55 68 68 69 56 70 57 71 58 72 59 73 60 74 61 75
REMARK SMILES IDX 62 76 63 77 67 78 64 79 66 80 65 81
REMARK H PARENT 31 25 18 33 20 35 33 37 35 39 37 41 40 45 7 47 4 50 44 54
REMARK H PARENT 46 57 48 61
REMARK Flexibility Score: inf
ROOT
ATOM      1  C   UNL     1      26.356  38.348   7.096  1.00  0.00     0.176 C 
ENDROOT
BRANCH   1   2
ATOM      2  C   UNL     1      27.733  37.999   7.505  1.00  0.00     0.178 C 
ATOM      3  C   UNL     1      29.002  39.719   6.565  1.00  0.00     0.272 C 
ATOM      4  C   UNL     1      29.629  38.727   5.663  1.00  0.00     0.113 C 
ATOM      5  O   UNL     1      28.573  39.049   7.766  1.00  0.00    -0.332 OA
ATOM      6  C   UNL     1      28.736  37.555   5.329  1.00  0.00     0.145 C 
ATOM      7  C   UNL     1      28.301  36.923   6.616  1.00  0.00     0.142 C 
BRANCH   3   8
ATOM      8  O   UNL     1      27.975  40.437   6.188  1.00  0.00    -0.338 OA
BRANCH   8   9
ATOM      9  C   UNL     1      27.727  41.155   5.132  1.00  0.00     0.199 C 
BRANCH   9  10
ATOM     10  C   UNL     1      26.624  42.174   5.065  1.00  0.00     0.179 C 
ATOM     11  C   UNL     1      24.406  42.395   5.732  1.00  0.00     0.282 C 
ATOM     12  O   UNL     1      25.429  41.559   5.292  1.00  0.00    -0.341 OA
ATOM     13  C   UNL     1      24.633  43.819   5.372  1.00  0.00     0.202 C 
ATOM     14  C   UNL     1      25.873  44.353   6.033  1.00  0.00     0.179 C 
ATOM     15  C   UNL     1      26.893  43.275   6.113  1.00  0.00     0.177 C 
BRANCH  11  16
ATOM     16  O   UNL     1      24.196  42.112   7.054  1.00  0.00    -0.341 OA
BRANCH  16  17
ATOM     17  C   UNL     1      22.935  42.344   7.517  1.00  0.00     0.184 C 
ATOM     18  C   UNL     1      22.932  42.252   9.021  1.00  0.00     0.178 C 
ATOM     19  O   UNL     1      21.619  42.335   9.501  1.00  0.00    -0.341 OA
ATOM     20  C   UNL     1      21.114  41.015   9.392  1.00  0.00     0.281 C 
ATOM     21  C   UNL     1      21.923  41.331   7.009  1.00  0.00     0.180 C 
ATOM     22  C   UNL     1      21.374  40.420   8.044  1.00  0.00     0.202 C 
BRANCH  18  23
ATOM     23  C   UNL     1      23.839  43.231   9.705  1.00  0.00     0.191 C 
BRANCH  23  24
ATOM     24  O   UNL     1      25.145  42.781   9.493  1.00  0.00    -0.394 OA
ATOM     25  H   UNL     1      25.767  43.505   9.244  1.00  0.00     0.210 HD
ENDBRANCH  23  24
ENDBRANCH  18  23
BRANCH  20  26
ATOM     26  O   UNL     1      19.806  41.042   9.758  1.00  0.00    -0.350 OA
BRANCH  26  27
ATOM     27  C   UNL     1      19.400  40.296  10.814  1.00  0.00     0.169 C 
BRANCH  27  28
ATOM     28  C   UNL     1      19.254  38.829  10.620  1.00  0.00     0.119 C 
BRANCH  28  29
ATOM     29  N   UNL     1      20.055  37.979  11.424  1.00  0.00    -0.092 NA
ATOM     30  N   UNL     1      21.275  38.083  11.477  1.00  0.00     0.001 N 
ATOM     31  N   UNL     1      22.488  38.245  11.708  1.00  0.00    -0.003 NA
ENDBRANCH  28  29
ENDBRANCH  27  28
ENDBRANCH  26  27
ENDBRANCH  20  26
BRANCH  21  32
ATOM     32  O   UNL     1      20.860  41.959   6.352  1.00  0.00    -0.387 OA
ATOM     33  H   UNL     1      20.498  41.427   5.609  1.00  0.00     0.211 HD
ENDBRANCH  21  32
BRANCH  22  34
ATOM     34  O   UNL     1      22.154  39.260   8.100  1.00  0.00    -0.385 OA
ATOM     35  H   UNL     1      22.733  39.347   8.904  1.00  0.00     0.211 HD
ENDBRANCH  22  34
ENDBRANCH  16  17
ENDBRANCH  11  16
BRANCH  13  36
ATOM     36  O   UNL     1      24.734  43.908   3.963  1.00  0.00    -0.385 OA
ATOM     37  H   UNL     1      25.227  44.770   3.803  1.00  0.00     0.211 HD
ENDBRANCH  13  36
BRANCH  14  38
ATOM     38  O   UNL     1      25.530  44.886   7.259  1.00  0.00    -0.387 OA
ATOM     39  H   UNL     1      24.926  44.287   7.777  1.00  0.00     0.211 HD
ENDBRANCH  14  38
BRANCH  15  40
ATOM     40  O   UNL     1      27.014  42.743   7.389  1.00  0.00    -0.387 OA
ATOM     41  H   UNL     1      27.805  42.120   7.411  1.00  0.00     0.211 HD
ENDBRANCH  15  40
ENDBRANCH   9  10
ENDBRANCH   8   9
ENDBRANCH   3   8
BRANCH   3  42
ATOM     42  C   UNL     1      30.116  40.557   7.159  1.00  0.00     0.364 C 
ATOM     43  O   UNL     1      31.259  40.104   7.310  1.00  0.00    -0.246 OA
BRANCH  42  44
ATOM     44  O   UNL     1      29.883  41.873   7.555  1.00  0.00    -0.477 OA
ATOM     45  H   UNL     1      30.602  42.487   7.924  1.00  0.00     0.296 HD
ENDBRANCH  42  44
ENDBRANCH   3  42
BRANCH   6  46
ATOM     46  O   UNL     1      27.665  37.904   4.512  1.00  0.00    -0.391 OA
ATOM     47  H   UNL     1      27.205  38.655   4.954  1.00  0.00     0.211 HD
ENDBRANCH   6  46
BRANCH   7  48
ATOM     48  N   UNL     1      29.454  36.278   7.231  1.00  0.00    -0.348 N 
ATOM     49  C   UNL     1      29.249  35.054   7.943  1.00  0.00     0.217 C 
ATOM     50  H   UNL     1      30.421  36.655   7.184  1.00  0.00     0.163 HD
ATOM     51  C   UNL     1      30.431  34.393   8.574  1.00  0.00     0.114 C 
ATOM     52  O   UNL     1      28.094  34.555   8.030  1.00  0.00    -0.275 OA
ENDBRANCH   7  48
ENDBRANCH   1   2
BRANCH   1  53
ATOM     53  O   UNL     1      25.646  37.150   6.836  1.00  0.00    -0.388 OA
ATOM     54  H   UNL     1      24.723  37.357   6.524  1.00  0.00     0.211 HD
ENDBRANCH   1  53
BRANCH   1  55
ATOM     55  C   UNL     1      25.534  39.019   8.208  1.00  0.00     0.165 C 
BRANCH  55  56
ATOM     56  O   UNL     1      25.957  40.282   8.479  1.00  0.00    -0.388 OA
ATOM     57  H   UNL     1      25.260  40.799   8.948  1.00  0.00     0.211 HD
ENDBRANCH  55  56
BRANCH  55  58
ATOM     58  C   UNL     1      25.388  38.110   9.385  1.00  0.00     0.154 C 
BRANCH  58  59
ATOM     59  N   UNL     1      24.135  37.409   9.338  1.00  0.00    -0.319 N 
ATOM     60  C   UNL     1      23.968  36.011   9.203  1.00  0.00     0.407 C 
ATOM     61  H   UNL     1      23.215  37.949   9.408  1.00  0.00     0.167 HD
ATOM     62  O   UNL     1      24.940  35.259   9.093  1.00  0.00    -0.225 OA
BRANCH  60  63
ATOM     63  O   UNL     1      22.689  35.432   9.189  1.00  0.00    -0.443 OA
BRANCH  63  64
ATOM     64  C   UNL     1      21.614  36.014   8.496  1.00  0.00     0.294 C 
BRANCH  64  65
ATOM     65  C   UNL     1      20.395  35.241   8.829  1.00  0.00     0.120 A 
ATOM     66  C   UNL     1      19.949  34.849  10.071  1.00  0.00     0.139 A 
ATOM     67  N   UNL     1      19.506  34.780   7.942  1.00  0.00    -0.132 NA
ATOM     68  N   UNL     1      18.790  34.152   9.911  1.00  0.00    -0.238 N 
ATOM     69  N   UNL     1      18.547  34.127   8.614  1.00  0.00    -0.066 NA
BRANCH  68  70
ATOM     70  C   UNL     1      18.070  33.591  11.027  1.00  0.00     0.215 C 
ATOM     71  C   UNL     1      16.623  34.045  11.033  1.00  0.00     0.046 C 
BRANCH  70  72
ATOM     72  C   UNL     1      18.123  32.086  10.985  1.00  0.00     0.331 C 
ATOM     73  O   UNL     1      17.311  31.474  10.271  1.00  0.00    -0.250 OA
BRANCH  72  74
ATOM     74  O   UNL     1      19.049  31.380  11.718  1.00  0.00    -0.459 OA
BRANCH  74  75
ATOM     75  C   UNL     1      20.074  31.954  12.492  1.00  0.00     0.268 C 
BRANCH  75  76
ATOM     76  C   UNL     1      21.292  31.122  12.573  1.00  0.00    -0.011 A 
ATOM     77  C   UNL     1      21.278  29.773  12.331  1.00  0.00     0.007 A 
ATOM     78  C   UNL     1      22.494  31.696  12.904  1.00  0.00     0.007 A 
ATOM     79  C   UNL     1      22.411  28.994  12.409  1.00  0.00     0.000 A 
ATOM     80  C   UNL     1      23.652  30.958  12.993  1.00  0.00     0.000 A 
ATOM     81  C   UNL     1      23.599  29.593  12.742  1.00  0.00     0.000 A 
ENDBRANCH  75  76
ENDBRANCH  74  75
ENDBRANCH  72  74
ENDBRANCH  70  72
ENDBRANCH  68  70
ENDBRANCH  64  65
ENDBRANCH  63  64
ENDBRANCH  60  63
ENDBRANCH  58  59
ENDBRANCH  55  58
ENDBRANCH   1  55
TORSDOF 34
BEGIN_RES LYS A 131
REMARK  4 active torsions:
REMARK  status: ('A' for Active; 'I' for Inactive)
REMARK    1  A    between atoms: CA   and  CB  
REMARK    2  A    between atoms: CB   and  CG  
REMARK    3  A    between atoms: CG   and  CD  
REMARK    4  A    between atoms: CD   and  CE  
ROOT
ATOM      1  CA  LYS A 131      29.867  25.555  16.977  1.00 20.52     0.186 C 
ENDROOT
BRANCH   1   2
ATOM      2  CB  LYS A 131      28.345  25.722  17.026  1.00 20.94     0.034 C 
BRANCH   2   3
ATOM      3  CG  LYS A 131      27.601  24.402  16.890  1.00 22.96     0.005 C 
BRANCH   3   4
ATOM      4  CD  LYS A 131      26.638  24.175  18.022  1.00 24.33     0.041 C 
BRANCH   4   5
ATOM      5  CE  LYS A 131      25.654  23.074  17.641  1.00 26.91     0.338 C 
ATOM      6  NZ  LYS A 131      24.742  22.779  18.771  1.00 27.40     0.618 N 
ENDBRANCH   4   5
ENDBRANCH   3   4
ENDBRANCH   2   3
ENDBRANCH   1   2
END_RES LYS A 131
BEGIN_RES LYS A 135
REMARK  4 active torsions:
REMARK  status: ('A' for Active; 'I' for Inactive)
REMARK    5  A    between atoms: CA   and  CB  
REMARK    6  A    between atoms: CB   and  CG  
REMARK    7  A    between atoms: CG   and  CD  
REMARK    8  A    between atoms: CD   and  CE  
ROOT
ATOM      7  CA  LYS A 135      33.193  34.663   9.290  1.00 25.02     0.186 C 
ENDROOT
BRANCH   7   8
ATOM      8  CB  LYS A 135      32.060  35.360  10.034  1.00 26.63     0.034 C 
BRANCH   8   9
ATOM      9  CG  LYS A 135      32.474  35.929  11.366  1.00 29.45     0.005 C 
BRANCH   9  10
ATOM     10  CD  LYS A 135      31.912  37.330  11.550  1.00 32.00     0.041 C 
BRANCH  10  11
ATOM     11  CE  LYS A 135      31.497  37.553  12.992  1.00 34.25     0.338 C 
ATOM     12  NZ  LYS A 135      30.829  36.345  13.550  1.00 35.99     0.618 N 
ENDBRANCH  10  11
ENDBRANCH   9  10
ENDBRANCH   8   9
ENDBRANCH   7   8
END_RES LYS A 135
