REMARK VINA RESULT:    -3.217      4.422      9.906
REMARK INTER + INTRA:         -21.955
REMARK INTER:                  -9.201
REMARK INTRA:                 -12.754
REMARK UNBOUND:               -13.473
REMARK SMILES CC(=O)N[C@@H]1[C@@H](O)C[C@](OC[C@H]2O[C@@H](O[C@H]3[C@H](O)[C@@H](O)[C@H](OCCN=[N+]=[N-])O[C@@H]3CO)[C@H](O)[C@@H](O)[C@H]2O)(C(=O)O)O[C@H]1C(O)[C@H](O)CNC(=O)OCc1cn(CCOC(C)=O)nn1
REMARK SMILES IDX 43 1 42 2 9 3 8 4 41 5 6 6 5 7 10 8 11 9 12 10 14 11 13 12
REMARK SMILES IDX 32 13 34 14 36 15 15 16 16 17 29 18 28 19 21 20 17 21 19 22
REMARK SMILES IDX 30 23 31 24 22 26 23 27 24 28 25 29 26 30 27 31 18 32 20 34
REMARK SMILES IDX 33 36 35 38 37 40 38 42 39 43 40 44 7 46 4 48 2 49 1 51 3 52
REMARK SMILES IDX 44 53 45 55 46 56 47 58 48 59 49 60 50 62 51 63 52 64 53 65
REMARK SMILES IDX 54 66 63 67 55 68 62 69 56 70 57 71 58 72 59 73 61 74 60 75
REMARK H PARENT 31 25 18 33 20 35 33 37 35 39 37 41 40 45 7 47 4 50 44 54
REMARK H PARENT 46 57 48 61
REMARK Flexibility Score: inf
ROOT
ATOM      1  C   UNL     1      27.855  35.554   9.682  1.00  0.00     0.176 C 
ENDROOT
BRANCH   1   2
ATOM      2  C   UNL     1      26.369  35.805   9.693  1.00  0.00     0.178 C 
ATOM      3  C   UNL     1      24.878  37.558   9.182  1.00  0.00     0.272 C 
ATOM      4  C   UNL     1      23.902  36.452   9.501  1.00  0.00     0.113 C 
ATOM      5  O   UNL     1      26.212  37.074   9.097  1.00  0.00    -0.332 OA
ATOM      6  C   UNL     1      24.219  35.737  10.766  1.00  0.00     0.145 C 
ATOM      7  C   UNL     1      25.737  35.926  11.045  1.00  0.00     0.142 C 
BRANCH   3   8
ATOM      8  O   UNL     1      24.915  38.590   9.990  1.00  0.00    -0.338 OA
BRANCH   8   9
ATOM      9  C   UNL     1      25.897  39.260  10.523  1.00  0.00     0.199 C 
BRANCH   9  10
ATOM     10  C   UNL     1      26.280  40.648  10.227  1.00  0.00     0.179 C 
ATOM     11  C   UNL     1      28.119  42.030  10.369  1.00  0.00     0.282 C 
ATOM     12  O   UNL     1      27.726  40.698  10.173  1.00  0.00    -0.341 OA
ATOM     13  C   UNL     1      27.299  43.019   9.652  1.00  0.00     0.202 C 
ATOM     14  C   UNL     1      26.286  42.510   8.686  1.00  0.00     0.179 C 
ATOM     15  C   UNL     1      25.948  41.063   8.781  1.00  0.00     0.177 C 
BRANCH  11  16
ATOM     16  O   UNL     1      29.484  42.078  10.142  1.00  0.00    -0.341 OA
BRANCH  16  17
ATOM     17  C   UNL     1      29.899  41.252   9.129  1.00  0.00     0.184 C 
ATOM     18  C   UNL     1      31.183  40.560   9.526  1.00  0.00     0.178 C 
ATOM     19  O   UNL     1      31.503  39.720   8.450  1.00  0.00    -0.341 OA
ATOM     20  C   UNL     1      32.030  40.459   7.433  1.00  0.00     0.281 C 
ATOM     21  C   UNL     1      30.105  42.008   7.826  1.00  0.00     0.180 C 
ATOM     22  C   UNL     1      31.496  41.866   7.304  1.00  0.00     0.202 C 
BRANCH  18  23
ATOM     23  C   UNL     1      30.951  39.699  10.754  1.00  0.00     0.191 C 
BRANCH  23  24
ATOM     24  O   UNL     1      29.773  38.990  10.613  1.00  0.00    -0.394 OA
ATOM     25  H   UNL     1      29.766  38.654   9.668  1.00  0.00     0.210 HD
ENDBRANCH  23  24
ENDBRANCH  18  23
BRANCH  20  26
ATOM     26  O   UNL     1      31.838  39.739   6.246  1.00  0.00    -0.350 OA
BRANCH  26  27
ATOM     27  C   UNL     1      32.854  39.989   5.331  1.00  0.00     0.169 C 
BRANCH  27  28
ATOM     28  C   UNL     1      34.145  39.526   6.016  1.00  0.00     0.119 C 
BRANCH  28  29
ATOM     29  N   UNL     1      34.832  38.618   5.113  1.00  0.00    -0.092 NA
ATOM     30  N   UNL     1      36.043  38.383   5.204  1.00  0.00     0.001 N 
ATOM     31  N   UNL     1      37.276  38.447   5.040  1.00  0.00    -0.003 NA
ENDBRANCH  28  29
ENDBRANCH  27  28
ENDBRANCH  26  27
ENDBRANCH  20  26
BRANCH  21  32
ATOM     32  O   UNL     1      29.166  41.683   6.855  1.00  0.00    -0.387 OA
ATOM     33  H   UNL     1      29.487  41.816   5.930  1.00  0.00     0.211 HD
ENDBRANCH  21  32
BRANCH  22  34
ATOM     34  O   UNL     1      32.330  42.821   7.852  1.00  0.00    -0.385 OA
ATOM     35  H   UNL     1      31.820  43.316   8.556  1.00  0.00     0.211 HD
ENDBRANCH  22  34
ENDBRANCH  16  17
ENDBRANCH  11  16
BRANCH  13  36
ATOM     36  O   UNL     1      26.726  43.969  10.539  1.00  0.00    -0.385 OA
ATOM     37  H   UNL     1      26.496  44.803  10.078  1.00  0.00     0.211 HD
ENDBRANCH  13  36
BRANCH  14  38
ATOM     38  O   UNL     1      26.659  42.776   7.360  1.00  0.00    -0.387 OA
ATOM     39  H   UNL     1      27.122  41.962   7.002  1.00  0.00     0.211 HD
ENDBRANCH  14  38
BRANCH  15  40
ATOM     40  O   UNL     1      26.855  40.374   7.930  1.00  0.00    -0.387 OA
ATOM     41  H   UNL     1      27.634  40.064   8.436  1.00  0.00     0.211 HD
ENDBRANCH  15  40
ENDBRANCH   9  10
ENDBRANCH   8   9
ENDBRANCH   3   8
BRANCH   3  42
ATOM     42  C   UNL     1      24.619  37.902   7.756  1.00  0.00     0.364 C 
ATOM     43  O   UNL     1      23.504  38.099   7.238  1.00  0.00    -0.246 OA
BRANCH  42  44
ATOM     44  O   UNL     1      25.703  38.029   6.861  1.00  0.00    -0.477 OA
ATOM     45  H   UNL     1      25.878  37.281   6.205  1.00  0.00     0.296 HD
ENDBRANCH  42  44
ENDBRANCH   3  42
BRANCH   6  46
ATOM     46  O   UNL     1      23.472  36.106  11.860  1.00  0.00    -0.391 OA
ATOM     47  H   UNL     1      22.512  35.871  11.783  1.00  0.00     0.211 HD
ENDBRANCH   6  46
BRANCH   7  48
ATOM     48  N   UNL     1      26.143  35.004  12.053  1.00  0.00    -0.348 N 
ATOM     49  C   UNL     1      26.975  35.387  13.136  1.00  0.00     0.217 C 
ATOM     50  H   UNL     1      25.805  34.029  12.013  1.00  0.00     0.163 HD
ATOM     51  C   UNL     1      27.398  34.414  14.189  1.00  0.00     0.114 C 
ATOM     52  O   UNL     1      27.400  36.576  13.262  1.00  0.00    -0.275 OA
ENDBRANCH   7  48
ENDBRANCH   1   2
BRANCH   1  53
ATOM     53  O   UNL     1      28.407  36.669  10.388  1.00  0.00    -0.388 OA
ATOM     54  H   UNL     1      29.367  36.535  10.530  1.00  0.00     0.211 HD
ENDBRANCH   1  53
BRANCH   1  55
ATOM     55  C   UNL     1      28.400  35.711   8.283  1.00  0.00     0.165 C 
BRANCH  55  56
ATOM     56  O   UNL     1      28.935  34.485   7.858  1.00  0.00    -0.388 OA
ATOM     57  H   UNL     1      29.896  34.491   8.041  1.00  0.00     0.211 HD
ENDBRANCH  55  56
BRANCH  55  58
ATOM     58  C   UNL     1      29.395  36.822   8.156  1.00  0.00     0.154 C 
BRANCH  58  59
ATOM     59  N   UNL     1      28.912  38.019   7.542  1.00  0.00    -0.319 N 
ATOM     60  C   UNL     1      28.836  38.203   6.148  1.00  0.00     0.407 C 
ATOM     61  H   UNL     1      28.576  38.849   8.123  1.00  0.00     0.167 HD
ATOM     62  O   UNL     1      29.178  37.324   5.330  1.00  0.00    -0.225 OA
BRANCH  60  63
ATOM     63  O   UNL     1      28.369  39.401   5.585  1.00  0.00    -0.443 OA
BRANCH  63  64
ATOM     64  C   UNL     1      27.506  39.430   4.484  1.00  0.00     0.294 C 
BRANCH  64  65
ATOM     65  C   UNL     1      26.603  40.613   4.517  1.00  0.00     0.120 A 
ATOM     66  C   UNL     1      26.819  41.767   3.783  1.00  0.00     0.138 A 
ATOM     67  N   UNL     1      25.475  40.820   5.189  1.00  0.00    -0.132 NA
ATOM     68  N   UNL     1      25.816  42.609   4.049  1.00  0.00    -0.249 N 
ATOM     69  N   UNL     1      25.009  42.012   4.907  1.00  0.00    -0.067 NA
BRANCH  68  70
ATOM     70  C   UNL     1      25.627  43.964   3.511  1.00  0.00     0.187 C 
BRANCH  70  71
ATOM     71  C   UNL     1      25.286  44.917   4.635  1.00  0.00     0.256 C 
BRANCH  71  72
ATOM     72  O   UNL     1      26.343  44.882   5.588  1.00  0.00    -0.464 OA
BRANCH  72  73
ATOM     73  C   UNL     1      27.642  45.210   5.213  1.00  0.00     0.302 C 
ATOM     74  O   UNL     1      28.546  44.366   5.421  1.00  0.00    -0.253 OA
ATOM     75  C   UNL     1      27.985  46.524   4.576  1.00  0.00     0.139 C 
ENDBRANCH  72  73
ENDBRANCH  71  72
ENDBRANCH  70  71
ENDBRANCH  68  70
ENDBRANCH  64  65
ENDBRANCH  63  64
ENDBRANCH  60  63
ENDBRANCH  58  59
ENDBRANCH  55  58
ENDBRANCH   1  55
TORSDOF 33
BEGIN_RES LYS A 131
REMARK  4 active torsions:
REMARK  status: ('A' for Active; 'I' for Inactive)
REMARK    1  A    between atoms: CA   and  CB  
REMARK    2  A    between atoms: CB   and  CG  
REMARK    3  A    between atoms: CG   and  CD  
REMARK    4  A    between atoms: CD   and  CE  
ROOT
ATOM      1  CA  LYS A 131      29.867  25.555  16.977  1.00 20.52     0.186 C 
ENDROOT
BRANCH   1   2
ATOM      2  CB  LYS A 131      28.345  25.722  17.026  1.00 20.94     0.034 C 
BRANCH   2   3
ATOM      3  CG  LYS A 131      27.600  24.407  16.855  1.00 22.96     0.005 C 
BRANCH   3   4
ATOM      4  CD  LYS A 131      26.734  24.088  18.042  1.00 24.33     0.041 C 
BRANCH   4   5
ATOM      5  CE  LYS A 131      25.533  23.264  17.588  1.00 26.91     0.338 C 
ATOM      6  NZ  LYS A 131      24.552  24.122  16.882  1.00 27.40     0.618 N 
ENDBRANCH   4   5
ENDBRANCH   3   4
ENDBRANCH   2   3
ENDBRANCH   1   2
END_RES LYS A 131
BEGIN_RES LYS A 135
REMARK  4 active torsions:
REMARK  status: ('A' for Active; 'I' for Inactive)
REMARK    5  A    between atoms: CA   and  CB  
REMARK    6  A    between atoms: CB   and  CG  
REMARK    7  A    between atoms: CG   and  CD  
REMARK    8  A    between atoms: CD   and  CE  
ROOT
ATOM      7  CA  LYS A 135      33.193  34.663   9.290  1.00 25.02     0.186 C 
ENDROOT
BRANCH   7   8
ATOM      8  CB  LYS A 135      32.060  35.360  10.034  1.00 26.63     0.034 C 
BRANCH   8   9
ATOM      9  CG  LYS A 135      31.113  34.408  10.718  1.00 29.45     0.005 C 
BRANCH   9  10
ATOM     10  CD  LYS A 135      30.790  34.890  12.124  1.00 32.00     0.041 C 
BRANCH  10  11
ATOM     11  CE  LYS A 135      31.972  35.631  12.717  1.00 34.25     0.338 C 
ATOM     12  NZ  LYS A 135      31.567  36.974  13.218  1.00 35.99     0.618 N 
ENDBRANCH  10  11
ENDBRANCH   9  10
ENDBRANCH   8   9
ENDBRANCH   7   8
END_RES LYS A 135
