REMARK VINA RESULT:    -4.778      3.426      8.096
REMARK INTER + INTRA:         -22.958
REMARK INTER:                  -9.955
REMARK INTRA:                 -13.003
REMARK UNBOUND:               -11.198
REMARK SMILES CC(=O)N[C@@H]1[C@@H](O)C[C@](OC[C@H]2O[C@@H](O[C@H]3[C@H](O)[C@@H](O)[C@H](OCCN=[N+]=[N-])O[C@@H]3CO)[C@H](O)[C@@H](O)[C@H]2O)(C(=O)O)O[C@H]1C(O)[C@H](O)CNC(=O)OCc1cn(C23CC4CC(CC(C4)C2)C3)nn1
REMARK SMILES IDX 9 1 8 2 6 3 5 4 42 5 41 6 10 7 11 8 12 9 14 10 13 11 32 12
REMARK SMILES IDX 34 13 36 14 15 15 16 16 29 17 28 18 21 19 17 20 19 21 30 22
REMARK SMILES IDX 31 23 22 25 23 26 24 27 25 28 26 29 27 30 18 31 20 33 33 35
REMARK SMILES IDX 35 37 37 39 38 41 39 42 40 43 7 45 43 47 44 48 45 50 46 51
REMARK SMILES IDX 47 53 48 54 49 55 50 57 51 58 52 59 53 60 54 61 67 62 55 63
REMARK SMILES IDX 66 64 56 65 65 66 64 67 57 68 60 69 62 70 58 71 59 72 61 73
REMARK SMILES IDX 63 74 4 75 2 76 1 78 3 79
REMARK H PARENT 31 24 18 32 20 34 33 36 35 38 37 40 40 44 7 46 44 49 46 52
REMARK H PARENT 48 56 4 77
REMARK Flexibility Score: inf
ROOT
ATOM      1  C   UNL     1      26.008  34.878  17.138  1.00  0.00     0.272 C 
ATOM      2  C   UNL     1      27.327  34.291  17.508  1.00  0.00     0.113 C 
ATOM      3  C   UNL     1      27.790  33.306  16.453  1.00  0.00     0.145 C 
ATOM      4  C   UNL     1      26.900  32.069  16.647  1.00  0.00     0.142 C 
ATOM      5  C   UNL     1      25.504  32.599  16.779  1.00  0.00     0.178 C 
ATOM      6  O   UNL     1      25.317  33.889  16.349  1.00  0.00    -0.332 OA
ENDROOT
BRANCH   1   7
ATOM      7  O   UNL     1      26.006  35.959  16.370  1.00  0.00    -0.338 OA
BRANCH   7   8
ATOM      8  C   UNL     1      26.759  37.028  16.409  1.00  0.00     0.199 C 
BRANCH   8   9
ATOM      9  C   UNL     1      27.629  37.477  15.282  1.00  0.00     0.179 C 
ATOM     10  C   UNL     1      29.303  36.951  13.879  1.00  0.00     0.282 C 
ATOM     11  O   UNL     1      28.535  36.412  14.931  1.00  0.00    -0.341 OA
ATOM     12  C   UNL     1      28.551  36.633  12.628  1.00  0.00     0.202 C 
ATOM     13  C   UNL     1      27.073  36.769  12.940  1.00  0.00     0.179 C 
ATOM     14  C   UNL     1      26.823  37.789  14.024  1.00  0.00     0.177 C 
BRANCH  10  15
ATOM     15  O   UNL     1      30.605  36.465  13.912  1.00  0.00    -0.341 OA
BRANCH  15  16
ATOM     16  C   UNL     1      30.716  35.525  14.894  1.00  0.00     0.184 C 
ATOM     17  C   UNL     1      31.702  35.778  15.976  1.00  0.00     0.178 C 
ATOM     18  O   UNL     1      31.329  34.936  17.048  1.00  0.00    -0.341 OA
ATOM     19  C   UNL     1      31.609  33.583  16.745  1.00  0.00     0.281 C 
ATOM     20  C   UNL     1      31.084  34.147  14.332  1.00  0.00     0.180 C 
ATOM     21  C   UNL     1      30.997  33.167  15.450  1.00  0.00     0.202 C 
BRANCH  17  22
ATOM     22  C   UNL     1      31.865  37.183  16.419  1.00  0.00     0.191 C 
BRANCH  22  23
ATOM     23  O   UNL     1      32.565  37.867  15.412  1.00  0.00    -0.394 OA
ATOM     24  H   UNL     1      32.861  37.252  14.692  1.00  0.00     0.210 HD
ENDBRANCH  22  23
ENDBRANCH  17  22
BRANCH  19  25
ATOM     25  O   UNL     1      31.023  32.866  17.762  1.00  0.00    -0.350 OA
BRANCH  25  26
ATOM     26  C   UNL     1      31.179  33.338  19.013  1.00  0.00     0.169 C 
BRANCH  26  27
ATOM     27  C   UNL     1      30.590  32.440  20.054  1.00  0.00     0.119 C 
BRANCH  27  28
ATOM     28  N   UNL     1      29.138  32.641  20.141  1.00  0.00    -0.092 NA
ATOM     29  N   UNL     1      28.741  33.611  20.773  1.00  0.00     0.001 N 
ATOM     30  N   UNL     1      28.153  34.371  21.572  1.00  0.00    -0.003 NA
ENDBRANCH  27  28
ENDBRANCH  26  27
ENDBRANCH  25  26
ENDBRANCH  19  25
BRANCH  20  31
ATOM     31  O   UNL     1      30.201  33.758  13.326  1.00  0.00    -0.387 OA
ATOM     32  H   UNL     1      30.141  32.778  13.316  1.00  0.00     0.211 HD
ENDBRANCH  20  31
BRANCH  21  33
ATOM     33  O   UNL     1      31.611  31.995  15.013  1.00  0.00    -0.385 OA
ATOM     34  H   UNL     1      32.424  32.194  14.511  1.00  0.00     0.211 HD
ENDBRANCH  21  33
ENDBRANCH  15  16
ENDBRANCH  10  15
BRANCH  12  35
ATOM     35  O   UNL     1      28.913  37.353  11.517  1.00  0.00    -0.385 OA
ATOM     36  H   UNL     1      28.906  36.777  10.716  1.00  0.00     0.211 HD
ENDBRANCH  12  35
BRANCH  13  37
ATOM     37  O   UNL     1      26.476  35.551  13.240  1.00  0.00    -0.387 OA
ATOM     38  H   UNL     1      25.477  35.640  13.123  1.00  0.00     0.211 HD
ENDBRANCH  13  37
BRANCH  14  39
ATOM     39  O   UNL     1      25.478  37.733  14.361  1.00  0.00    -0.387 OA
ATOM     40  H   UNL     1      25.017  36.977  13.911  1.00  0.00     0.211 HD
ENDBRANCH  14  39
ENDBRANCH   8   9
ENDBRANCH   7   8
ENDBRANCH   1   7
BRANCH   1  41
ATOM     41  C   UNL     1      25.148  34.974  18.329  1.00  0.00     0.364 C 
ATOM     42  O   UNL     1      23.952  35.294  18.348  1.00  0.00    -0.246 OA
BRANCH  41  43
ATOM     43  O   UNL     1      25.792  34.663  19.562  1.00  0.00    -0.477 OA
ATOM     44  H   UNL     1      26.658  34.168  19.532  1.00  0.00     0.296 HD
ENDBRANCH  41  43
ENDBRANCH   1  41
BRANCH   3  45
ATOM     45  O   UNL     1      27.513  33.816  15.192  1.00  0.00    -0.391 OA
ATOM     46  H   UNL     1      27.038  33.108  14.687  1.00  0.00     0.211 HD
ENDBRANCH   3  45
BRANCH   5  47
ATOM     47  C   UNL     1      24.509  31.772  15.878  1.00  0.00     0.176 C 
BRANCH  47  48
ATOM     48  O   UNL     1      24.565  30.514  16.513  1.00  0.00    -0.388 OA
ATOM     49  H   UNL     1      23.651  30.357  16.856  1.00  0.00     0.211 HD
ENDBRANCH  47  48
BRANCH  47  50
ATOM     50  C   UNL     1      25.030  31.669  14.516  1.00  0.00     0.165 C 
BRANCH  50  51
ATOM     51  O   UNL     1      25.188  32.888  13.831  1.00  0.00    -0.388 OA
ATOM     52  H   UNL     1      24.717  33.610  14.344  1.00  0.00     0.211 HD
ENDBRANCH  50  51
BRANCH  50  53
ATOM     53  C   UNL     1      24.396  30.692  13.602  1.00  0.00     0.154 C 
BRANCH  53  54
ATOM     54  N   UNL     1      23.332  31.205  12.820  1.00  0.00    -0.319 N 
ATOM     55  C   UNL     1      21.968  31.258  13.139  1.00  0.00     0.407 C 
ATOM     56  H   UNL     1      23.627  31.608  11.843  1.00  0.00     0.167 HD
ATOM     57  O   UNL     1      21.544  30.806  14.215  1.00  0.00    -0.225 OA
BRANCH  55  58
ATOM     58  O   UNL     1      21.077  31.841  12.206  1.00  0.00    -0.443 OA
BRANCH  58  59
ATOM     59  C   UNL     1      20.669  33.167  12.428  1.00  0.00     0.294 C 
BRANCH  59  60
ATOM     60  C   UNL     1      21.821  34.070  12.278  1.00  0.00     0.120 A 
ATOM     61  C   UNL     1      22.153  34.750  11.135  1.00  0.00     0.138 A 
ATOM     62  N   UNL     1      22.746  34.401  13.197  1.00  0.00    -0.132 NA
ATOM     63  N   UNL     1      23.254  35.461  11.394  1.00  0.00    -0.246 N 
ATOM     64  N   UNL     1      23.589  35.231  12.648  1.00  0.00    -0.066 NA
BRANCH  63  65
ATOM     65  C   UNL     1      23.902  36.312  10.416  1.00  0.00     0.065 C 
ATOM     66  C   UNL     1      23.062  36.346   9.178  1.00  0.00     0.034 C 
ATOM     67  C   UNL     1      24.151  37.686  11.005  1.00  0.00     0.034 C 
ATOM     68  C   UNL     1      25.256  35.731  10.051  1.00  0.00     0.034 C 
ATOM     69  C   UNL     1      23.682  37.249   8.143  1.00  0.00    -0.008 C 
ATOM     70  C   UNL     1      24.707  38.585   9.942  1.00  0.00    -0.008 C 
ATOM     71  C   UNL     1      25.887  36.655   9.037  1.00  0.00    -0.008 C 
ATOM     72  C   UNL     1      25.050  36.719   7.790  1.00  0.00     0.007 C 
ATOM     73  C   UNL     1      23.804  38.629   8.747  1.00  0.00     0.007 C 
ATOM     74  C   UNL     1      26.079  38.052   9.556  1.00  0.00     0.007 C 
ENDBRANCH  63  65
ENDBRANCH  59  60
ENDBRANCH  58  59
ENDBRANCH  55  58
ENDBRANCH  53  54
ENDBRANCH  50  53
ENDBRANCH  47  50
ENDBRANCH   5  47
BRANCH   4  75
ATOM     75  N   UNL     1      27.311  31.415  17.894  1.00  0.00    -0.348 N 
ATOM     76  C   UNL     1      27.750  30.062  17.907  1.00  0.00     0.217 C 
ATOM     77  H   UNL     1      27.281  31.943  18.801  1.00  0.00     0.163 HD
ATOM     78  C   UNL     1      28.161  29.405  19.200  1.00  0.00     0.114 C 
ATOM     79  O   UNL     1      27.784  29.440  16.823  1.00  0.00    -0.275 OA
ENDBRANCH   4  75
TORSDOF 30
BEGIN_RES LYS A 131
REMARK  4 active torsions:
REMARK  status: ('A' for Active; 'I' for Inactive)
REMARK    1  A    between atoms: CA   and  CB  
REMARK    2  A    between atoms: CB   and  CG  
REMARK    3  A    between atoms: CG   and  CD  
REMARK    4  A    between atoms: CD   and  CE  
ROOT
ATOM      1  CA  LYS A 131      29.867  25.555  16.977  1.00 20.52     0.186 C 
ENDROOT
BRANCH   1   2
ATOM      2  CB  LYS A 131      28.345  25.722  17.026  1.00 20.94     0.034 C 
BRANCH   2   3
ATOM      3  CG  LYS A 131      27.603  24.396  16.961  1.00 22.96     0.005 C 
BRANCH   3   4
ATOM      4  CD  LYS A 131      26.111  24.580  16.993  1.00 24.33     0.041 C 
BRANCH   4   5
ATOM      5  CE  LYS A 131      25.470  23.411  17.733  1.00 26.91     0.338 C 
ATOM      6  NZ  LYS A 131      25.881  23.410  19.157  1.00 27.40     0.618 N 
ENDBRANCH   4   5
ENDBRANCH   3   4
ENDBRANCH   2   3
ENDBRANCH   1   2
END_RES LYS A 131
BEGIN_RES LYS A 135
REMARK  4 active torsions:
REMARK  status: ('A' for Active; 'I' for Inactive)
REMARK    5  A    between atoms: CA   and  CB  
REMARK    6  A    between atoms: CB   and  CG  
REMARK    7  A    between atoms: CG   and  CD  
REMARK    8  A    between atoms: CD   and  CE  
ROOT
ATOM      7  CA  LYS A 135      33.193  34.663   9.290  1.00 25.02     0.186 C 
ENDROOT
BRANCH   7   8
ATOM      8  CB  LYS A 135      32.060  35.360  10.034  1.00 26.63     0.034 C 
BRANCH   8   9
ATOM      9  CG  LYS A 135      30.885  35.705   9.156  1.00 29.45     0.005 C 
BRANCH   9  10
ATOM     10  CD  LYS A 135      30.386  34.472   8.418  1.00 32.00     0.041 C 
BRANCH  10  11
ATOM     11  CE  LYS A 135      28.871  34.472   8.346  1.00 34.25     0.338 C 
ATOM     12  NZ  LYS A 135      28.279  33.759   9.512  1.00 35.99     0.618 N 
ENDBRANCH  10  11
ENDBRANCH   9  10
ENDBRANCH   8   9
ENDBRANCH   7   8
END_RES LYS A 135
