REMARK VINA RESULT:    -4.487      2.728      6.986
REMARK INTER + INTRA:         -21.989
REMARK INTER:                 -10.476
REMARK INTRA:                 -11.513
REMARK UNBOUND:               -10.943
REMARK SMILES CC(=O)N[C@@H]1[C@@H](O)C[C@](OC[C@H]2O[C@@H](O[C@H]3[C@H](O)[C@@H](O)[C@H](OCCN=[N+]=[N-])O[C@@H]3CO)[C@H](O)[C@@H](O)[C@H]2O)(C(=O)O)O[C@H]1C(O)[C@H](O)CNC(=O)OCc1cn([C@@H]2C[C@H]3CC[C@@H](C2)N3C)nn1
REMARK SMILES IDX 9 1 8 2 6 3 5 4 42 5 41 6 10 7 11 8 12 9 14 10 13 11 32 12
REMARK SMILES IDX 34 13 36 14 15 15 16 16 29 17 28 18 21 19 17 20 19 21 30 22
REMARK SMILES IDX 31 23 22 25 23 26 24 27 25 28 26 29 27 30 18 31 20 33 33 35
REMARK SMILES IDX 35 37 37 39 38 41 39 42 40 43 7 45 43 47 44 48 45 50 46 51
REMARK SMILES IDX 47 53 48 54 49 55 50 57 51 58 52 59 53 60 54 61 66 62 55 63
REMARK SMILES IDX 65 64 56 65 62 66 57 67 61 68 58 69 63 70 60 71 59 72 64 73
REMARK SMILES IDX 4 74 2 75 1 77 3 78
REMARK H PARENT 31 24 18 32 20 34 33 36 35 38 37 40 40 44 7 46 44 49 46 52
REMARK H PARENT 48 56 4 76
REMARK Flexibility Score: inf
ROOT
ATOM      1  C   UNL     1      30.788  34.883  18.455  1.00  0.00     0.272 C 
ATOM      2  C   UNL     1      30.385  35.985  17.559  1.00  0.00     0.113 C 
ATOM      3  C   UNL     1      29.787  35.468  16.258  1.00  0.00     0.145 C 
ATOM      4  C   UNL     1      30.772  34.467  15.609  1.00  0.00     0.142 C 
ATOM      5  C   UNL     1      31.368  33.566  16.614  1.00  0.00     0.178 C 
ATOM      6  O   UNL     1      30.623  33.646  17.773  1.00  0.00    -0.332 OA
ENDROOT
BRANCH   1   7
ATOM      7  O   UNL     1      30.288  34.754  19.701  1.00  0.00    -0.338 OA
BRANCH   7   8
ATOM      8  C   UNL     1      29.259  34.109  20.149  1.00  0.00     0.199 C 
BRANCH   8   9
ATOM      9  C   UNL     1      29.419  33.357  21.461  1.00  0.00     0.179 C 
ATOM     10  C   UNL     1      28.467  31.223  21.722  1.00  0.00     0.282 C 
ATOM     11  O   UNL     1      28.270  32.569  21.625  1.00  0.00    -0.341 OA
ATOM     12  C   UNL     1      29.420  30.820  22.796  1.00  0.00     0.202 C 
ATOM     13  C   UNL     1      30.688  31.578  22.610  1.00  0.00     0.179 C 
ATOM     14  C   UNL     1      30.667  32.533  21.468  1.00  0.00     0.177 C 
BRANCH  10  15
ATOM     15  O   UNL     1      28.692  30.605  20.504  1.00  0.00    -0.341 OA
BRANCH  15  16
ATOM     16  C   UNL     1      27.910  29.491  20.276  1.00  0.00     0.184 C 
ATOM     17  C   UNL     1      28.715  28.302  19.930  1.00  0.00     0.178 C 
ATOM     18  O   UNL     1      27.939  27.140  19.862  1.00  0.00    -0.341 OA
ATOM     19  C   UNL     1      26.569  27.395  19.796  1.00  0.00     0.281 C 
ATOM     20  C   UNL     1      27.046  29.753  18.996  1.00  0.00     0.180 C 
ATOM     21  C   UNL     1      26.202  28.527  18.860  1.00  0.00     0.202 C 
BRANCH  17  22
ATOM     22  C   UNL     1      29.941  28.044  20.734  1.00  0.00     0.191 C 
BRANCH  22  23
ATOM     23  O   UNL     1      31.000  28.822  20.274  1.00  0.00    -0.394 OA
ATOM     24  H   UNL     1      30.773  29.175  19.378  1.00  0.00     0.210 HD
ENDBRANCH  22  23
ENDBRANCH  17  22
BRANCH  19  25
ATOM     25  O   UNL     1      25.991  27.469  21.033  1.00  0.00    -0.350 OA
BRANCH  25  26
ATOM     26  C   UNL     1      26.283  26.544  21.972  1.00  0.00     0.169 C 
BRANCH  26  27
ATOM     27  C   UNL     1      26.577  27.075  23.326  1.00  0.00     0.119 C 
BRANCH  27  28
ATOM     28  N   UNL     1      27.955  27.181  23.662  1.00  0.00    -0.092 NA
ATOM     29  N   UNL     1      28.743  26.230  23.644  1.00  0.00     0.001 N 
ATOM     30  N   UNL     1      29.577  25.453  24.120  1.00  0.00    -0.003 NA
ENDBRANCH  27  28
ENDBRANCH  26  27
ENDBRANCH  25  26
ENDBRANCH  19  25
BRANCH  20  31
ATOM     31  O   UNL     1      26.248  30.857  19.157  1.00  0.00    -0.387 OA
ATOM     32  H   UNL     1      26.765  31.606  19.560  1.00  0.00     0.211 HD
ENDBRANCH  20  31
BRANCH  21  33
ATOM     33  O   UNL     1      26.240  28.046  17.547  1.00  0.00    -0.385 OA
ATOM     34  H   UNL     1      25.563  27.361  17.451  1.00  0.00     0.211 HD
ENDBRANCH  21  33
ENDBRANCH  15  16
ENDBRANCH  10  15
BRANCH  12  35
ATOM     35  O   UNL     1      28.860  31.130  24.053  1.00  0.00    -0.385 OA
ATOM     36  H   UNL     1      29.466  31.783  24.493  1.00  0.00     0.211 HD
ENDBRANCH  12  35
BRANCH  13  37
ATOM     37  O   UNL     1      31.779  30.695  22.427  1.00  0.00    -0.387 OA
ATOM     38  H   UNL     1      31.465  29.840  22.047  1.00  0.00     0.211 HD
ENDBRANCH  13  37
BRANCH  14  39
ATOM     39  O   UNL     1      30.905  31.851  20.268  1.00  0.00    -0.387 OA
ATOM     40  H   UNL     1      31.742  31.324  20.419  1.00  0.00     0.211 HD
ENDBRANCH  14  39
ENDBRANCH   8   9
ENDBRANCH   7   8
ENDBRANCH   1   7
BRANCH   1  41
ATOM     41  C   UNL     1      32.280  35.019  18.683  1.00  0.00     0.364 C 
ATOM     42  O   UNL     1      33.049  35.686  17.973  1.00  0.00    -0.246 OA
BRANCH  41  43
ATOM     43  O   UNL     1      32.873  34.359  19.764  1.00  0.00    -0.477 OA
ATOM     44  H   UNL     1      32.516  33.446  20.069  1.00  0.00     0.296 HD
ENDBRANCH  41  43
ENDBRANCH   1  41
BRANCH   3  45
ATOM     45  O   UNL     1      28.522  34.939  16.385  1.00  0.00    -0.391 OA
ATOM     46  H   UNL     1      28.561  34.197  17.062  1.00  0.00     0.211 HD
ENDBRANCH   3  45
BRANCH   5  47
ATOM     47  C   UNL     1      31.141  32.059  16.216  1.00  0.00     0.176 C 
BRANCH  47  48
ATOM     48  O   UNL     1      30.748  32.161  14.812  1.00  0.00    -0.388 OA
ATOM     49  H   UNL     1      29.885  32.675  14.830  1.00  0.00     0.211 HD
ENDBRANCH  47  48
BRANCH  47  50
ATOM     50  C   UNL     1      29.914  31.485  16.841  1.00  0.00     0.165 C 
BRANCH  50  51
ATOM     51  O   UNL     1      30.245  30.636  17.872  1.00  0.00    -0.388 OA
ATOM     52  H   UNL     1      30.933  29.979  17.682  1.00  0.00     0.211 HD
ENDBRANCH  50  51
BRANCH  50  53
ATOM     53  C   UNL     1      28.898  30.950  15.904  1.00  0.00     0.154 C 
BRANCH  53  54
ATOM     54  N   UNL     1      27.758  31.862  15.803  1.00  0.00    -0.319 N 
ATOM     55  C   UNL     1      26.456  31.378  15.639  1.00  0.00     0.407 C 
ATOM     56  H   UNL     1      27.945  32.874  15.859  1.00  0.00     0.167 HD
ATOM     57  O   UNL     1      26.278  30.126  15.579  1.00  0.00    -0.225 OA
BRANCH  55  58
ATOM     58  O   UNL     1      25.346  32.209  15.540  1.00  0.00    -0.443 OA
BRANCH  58  59
ATOM     59  C   UNL     1      25.491  33.623  15.585  1.00  0.00     0.294 C 
BRANCH  59  60
ATOM     60  C   UNL     1      25.874  34.131  14.232  1.00  0.00     0.120 A 
ATOM     61  C   UNL     1      25.048  34.312  13.142  1.00  0.00     0.138 A 
ATOM     62  N   UNL     1      27.085  34.500  13.826  1.00  0.00    -0.132 NA
ATOM     63  N   UNL     1      25.767  34.780  12.113  1.00  0.00    -0.249 N 
ATOM     64  N   UNL     1      27.027  34.882  12.576  1.00  0.00    -0.067 NA
BRANCH  63  65
ATOM     65  C   UNL     1      25.370  35.126  10.769  1.00  0.00     0.112 C 
ATOM     66  C   UNL     1      23.903  35.408  10.626  1.00  0.00     0.046 C 
ATOM     67  C   UNL     1      26.097  36.423  10.386  1.00  0.00     0.046 C 
ATOM     68  C   UNL     1      23.540  36.702  11.305  1.00  0.00     0.058 C 
ATOM     69  C   UNL     1      25.646  37.548  11.297  1.00  0.00     0.058 C 
ATOM     70  N   UNL     1      24.636  37.036  12.205  1.00  0.00    -0.300 NA
ATOM     71  C   UNL     1      23.514  37.861  10.343  1.00  0.00     0.021 C 
ATOM     72  C   UNL     1      24.837  38.556  10.504  1.00  0.00     0.021 C 
ATOM     73  C   UNL     1      24.166  38.030  13.121  1.00  0.00     0.105 C 
ENDBRANCH  63  65
ENDBRANCH  59  60
ENDBRANCH  58  59
ENDBRANCH  55  58
ENDBRANCH  53  54
ENDBRANCH  50  53
ENDBRANCH  47  50
ENDBRANCH   5  47
BRANCH   4  74
ATOM     74  N   UNL     1      31.725  35.261  14.823  1.00  0.00    -0.348 N 
ATOM     75  C   UNL     1      31.689  35.236  13.377  1.00  0.00     0.217 C 
ATOM     76  H   UNL     1      32.460  35.869  15.231  1.00  0.00     0.163 HD
ATOM     77  C   UNL     1      32.603  35.998  12.522  1.00  0.00     0.114 C 
ATOM     78  O   UNL     1      30.814  34.512  12.858  1.00  0.00    -0.275 OA
ENDBRANCH   4  74
TORSDOF 30
BEGIN_RES LYS A 131
REMARK  4 active torsions:
REMARK  status: ('A' for Active; 'I' for Inactive)
REMARK    1  A    between atoms: CA   and  CB  
REMARK    2  A    between atoms: CB   and  CG  
REMARK    3  A    between atoms: CG   and  CD  
REMARK    4  A    between atoms: CD   and  CE  
ROOT
ATOM      1  CA  LYS A 131      29.867  25.555  16.977  1.00 20.52     0.186 C 
ENDROOT
BRANCH   1   2
ATOM      2  CB  LYS A 131      28.345  25.722  17.026  1.00 20.94     0.034 C 
BRANCH   2   3
ATOM      3  CG  LYS A 131      27.601  24.402  16.890  1.00 22.96     0.005 C 
BRANCH   3   4
ATOM      4  CD  LYS A 131      26.642  24.173  18.026  1.00 24.33     0.041 C 
BRANCH   4   5
ATOM      5  CE  LYS A 131      25.568  23.181  17.593  1.00 26.91     0.338 C 
ATOM      6  NZ  LYS A 131      24.458  23.884  16.907  1.00 27.40     0.618 N 
ENDBRANCH   4   5
ENDBRANCH   3   4
ENDBRANCH   2   3
ENDBRANCH   1   2
END_RES LYS A 131
BEGIN_RES LYS A 135
REMARK  4 active torsions:
REMARK  status: ('A' for Active; 'I' for Inactive)
REMARK    5  A    between atoms: CA   and  CB  
REMARK    6  A    between atoms: CB   and  CG  
REMARK    7  A    between atoms: CG   and  CD  
REMARK    8  A    between atoms: CD   and  CE  
ROOT
ATOM      7  CA  LYS A 135      33.193  34.663   9.290  1.00 25.02     0.186 C 
ENDROOT
BRANCH   7   8
ATOM      8  CB  LYS A 135      32.060  35.360  10.034  1.00 26.63     0.034 C 
BRANCH   8   9
ATOM      9  CG  LYS A 135      30.690  34.872   9.639  1.00 29.45     0.005 C 
BRANCH   9  10
ATOM     10  CD  LYS A 135      30.641  34.554   8.153  1.00 32.00     0.041 C 
BRANCH  10  11
ATOM     11  CE  LYS A 135      29.372  35.106   7.532  1.00 34.25     0.338 C 
ATOM     12  NZ  LYS A 135      28.164  34.599   8.239  1.00 35.99     0.618 N 
ENDBRANCH  10  11
ENDBRANCH   9  10
ENDBRANCH   8   9
ENDBRANCH   7   8
END_RES LYS A 135
