REMARK VINA RESULT:    -4.374      3.925      7.895
REMARK INTER + INTRA:         -22.516
REMARK INTER:                  -9.471
REMARK INTRA:                 -13.045
REMARK UNBOUND:               -11.494
REMARK SMILES CC(=O)N[C@@H]1[C@@H](O)C[C@](OC[C@H]2O[C@@H](O[C@H]3[C@H](O)[C@@H](O)[C@H](OCCN=[N+]=[N-])O[C@@H]3CO)[C@H](O)[C@@H](O)[C@H]2O)(C(=O)O)O[C@H]1C(O)[C@H](O)CNC(=O)OCc1cn(-c2ccccc2C(C)=O)nn1
REMARK SMILES IDX 9 1 8 2 6 3 5 4 42 5 41 6 10 7 11 8 12 9 14 10 13 11 32 12
REMARK SMILES IDX 34 13 36 14 15 15 16 16 29 17 28 18 21 19 17 20 19 21 30 22
REMARK SMILES IDX 31 23 22 25 23 26 24 27 25 28 26 29 27 30 18 31 20 33 33 35
REMARK SMILES IDX 35 37 37 39 38 41 39 42 40 43 7 45 43 47 44 48 45 50 46 51
REMARK SMILES IDX 47 53 48 54 49 55 50 57 51 58 52 59 53 60 54 61 66 62 55 63
REMARK SMILES IDX 65 64 56 65 61 66 57 67 60 68 58 69 59 70 62 71 64 72 63 73
REMARK SMILES IDX 4 74 2 75 1 77 3 78
REMARK H PARENT 31 24 18 32 20 34 33 36 35 38 37 40 40 44 7 46 44 49 46 52
REMARK H PARENT 48 56 4 76
REMARK Flexibility Score: inf
ROOT
ATOM      1  C   UNL     1      19.300  39.205  12.028  1.00  0.00     0.272 C 
ATOM      2  C   UNL     1      19.878  39.974  10.876  1.00  0.00     0.113 C 
ATOM      3  C   UNL     1      20.489  41.240  11.418  1.00  0.00     0.145 C 
ATOM      4  C   UNL     1      21.670  40.769  12.250  1.00  0.00     0.142 C 
ATOM      5  C   UNL     1      21.065  40.014  13.403  1.00  0.00     0.178 C 
ATOM      6  O   UNL     1      19.782  39.629  13.288  1.00  0.00    -0.332 OA
ENDROOT
BRANCH   1   7
ATOM      7  O   UNL     1      19.401  37.900  12.012  1.00  0.00    -0.338 OA
BRANCH   7   8
ATOM      8  C   UNL     1      18.863  36.948  11.316  1.00  0.00     0.199 C 
BRANCH   8   9
ATOM      9  C   UNL     1      19.052  36.706   9.866  1.00  0.00     0.179 C 
ATOM     10  C   UNL     1      20.667  36.939   8.225  1.00  0.00     0.282 C 
ATOM     11  O   UNL     1      20.429  36.972   9.588  1.00  0.00    -0.341 OA
ATOM     12  C   UNL     1      19.607  36.334   7.386  1.00  0.00     0.202 C 
ATOM     13  C   UNL     1      18.851  35.193   7.992  1.00  0.00     0.179 C 
ATOM     14  C   UNL     1      18.936  35.208   9.499  1.00  0.00     0.177 C 
BRANCH  10  15
ATOM     15  O   UNL     1      21.879  36.292   7.987  1.00  0.00    -0.341 OA
BRANCH  15  16
ATOM     16  C   UNL     1      22.905  36.804   8.777  1.00  0.00     0.184 C 
ATOM     17  C   UNL     1      23.874  37.523   7.871  1.00  0.00     0.178 C 
ATOM     18  O   UNL     1      25.141  37.000   7.865  1.00  0.00    -0.341 OA
ATOM     19  C   UNL     1      25.736  36.841   9.092  1.00  0.00     0.281 C 
ATOM     20  C   UNL     1      23.644  35.580   9.337  1.00  0.00     0.180 C 
ATOM     21  C   UNL     1      24.848  36.083  10.067  1.00  0.00     0.202 C 
BRANCH  17  22
ATOM     22  C   UNL     1      23.852  38.997   8.232  1.00  0.00     0.191 C 
BRANCH  22  23
ATOM     23  O   UNL     1      22.971  39.164   9.299  1.00  0.00    -0.394 OA
ATOM     24  H   UNL     1      22.094  39.510   9.051  1.00  0.00     0.210 HD
ENDBRANCH  22  23
ENDBRANCH  17  22
BRANCH  19  25
ATOM     25  O   UNL     1      26.229  38.004   9.652  1.00  0.00    -0.350 OA
BRANCH  25  26
ATOM     26  C   UNL     1      27.570  38.134   9.323  1.00  0.00     0.169 C 
BRANCH  26  27
ATOM     27  C   UNL     1      28.330  38.672  10.525  1.00  0.00     0.119 C 
BRANCH  27  28
ATOM     28  N   UNL     1      29.043  37.579  11.199  1.00  0.00    -0.092 NA
ATOM     29  N   UNL     1      28.339  36.735  11.752  1.00  0.00     0.001 N 
ATOM     30  N   UNL     1      27.783  35.894  12.436  1.00  0.00    -0.003 NA
ENDBRANCH  27  28
ENDBRANCH  26  27
ENDBRANCH  25  26
ENDBRANCH  19  25
BRANCH  20  31
ATOM     31  O   UNL     1      22.786  34.848  10.124  1.00  0.00    -0.387 OA
ATOM     32  H   UNL     1      23.055  34.870  11.094  1.00  0.00     0.211 HD
ENDBRANCH  20  31
BRANCH  21  33
ATOM     33  O   UNL     1      25.539  35.059  10.718  1.00  0.00    -0.385 OA
ATOM     34  H   UNL     1      25.867  35.402  11.605  1.00  0.00     0.211 HD
ENDBRANCH  21  33
ENDBRANCH  15  16
ENDBRANCH  10  15
BRANCH  12  35
ATOM     35  O   UNL     1      18.752  37.305   6.841  1.00  0.00    -0.385 OA
ATOM     36  H   UNL     1      19.262  38.043   6.424  1.00  0.00     0.211 HD
ENDBRANCH  12  35
BRANCH  13  37
ATOM     37  O   UNL     1      19.346  33.950   7.563  1.00  0.00    -0.387 OA
ATOM     38  H   UNL     1      18.558  33.349   7.492  1.00  0.00     0.211 HD
ENDBRANCH  13  37
BRANCH  14  39
ATOM     39  O   UNL     1      20.074  34.532   9.953  1.00  0.00    -0.387 OA
ATOM     40  H   UNL     1      19.926  34.078  10.822  1.00  0.00     0.211 HD
ENDBRANCH  14  39
ENDBRANCH   8   9
ENDBRANCH   7   8
ENDBRANCH   1   7
BRANCH   1  41
ATOM     41  C   UNL     1      17.886  39.670  12.111  1.00  0.00     0.364 C 
ATOM     42  O   UNL     1      17.228  39.542  13.201  1.00  0.00    -0.246 OA
BRANCH  41  43
ATOM     43  O   UNL     1      17.169  40.246  11.094  1.00  0.00    -0.477 OA
ATOM     44  H   UNL     1      16.381  40.859  11.257  1.00  0.00     0.296 HD
ENDBRANCH  41  43
ENDBRANCH   1  41
BRANCH   3  45
ATOM     45  O   UNL     1      20.905  41.986  10.318  1.00  0.00    -0.391 OA
ATOM     46  H   UNL     1      21.860  41.811  10.102  1.00  0.00     0.211 HD
ENDBRANCH   3  45
BRANCH   5  47
ATOM     47  C   UNL     1      22.026  38.855  13.824  1.00  0.00     0.176 C 
BRANCH  47  48
ATOM     48  O   UNL     1      22.891  39.494  14.792  1.00  0.00    -0.388 OA
ATOM     49  H   UNL     1      23.005  38.764  15.476  1.00  0.00     0.211 HD
ENDBRANCH  47  48
BRANCH  47  50
ATOM     50  C   UNL     1      22.887  38.438  12.707  1.00  0.00     0.165 C 
BRANCH  50  51
ATOM     51  O   UNL     1      22.268  37.451  11.902  1.00  0.00    -0.388 OA
ATOM     52  H   UNL     1      22.850  36.669  11.787  1.00  0.00     0.211 HD
ENDBRANCH  50  51
BRANCH  50  53
ATOM     53  C   UNL     1      24.343  38.367  12.805  1.00  0.00     0.154 C 
BRANCH  53  54
ATOM     54  N   UNL     1      24.897  37.185  13.357  1.00  0.00    -0.319 N 
ATOM     55  C   UNL     1      25.201  36.905  14.708  1.00  0.00     0.407 C 
ATOM     56  H   UNL     1      25.126  36.374  12.693  1.00  0.00     0.167 HD
ATOM     57  O   UNL     1      24.989  37.794  15.564  1.00  0.00    -0.225 OA
BRANCH  55  58
ATOM     58  O   UNL     1      25.725  35.700  15.153  1.00  0.00    -0.443 OA
BRANCH  58  59
ATOM     59  C   UNL     1      24.885  34.701  15.672  1.00  0.00     0.294 C 
BRANCH  59  60
ATOM     60  C   UNL     1      24.297  33.962  14.503  1.00  0.00     0.121 A 
ATOM     61  C   UNL     1      23.208  33.122  14.513  1.00  0.00     0.144 A 
ATOM     62  N   UNL     1      24.712  33.967  13.228  1.00  0.00    -0.131 NA
ATOM     63  N   UNL     1      23.012  32.653  13.238  1.00  0.00    -0.220 N 
ATOM     64  N   UNL     1      23.950  33.193  12.489  1.00  0.00    -0.062 NA
BRANCH  63  65
ATOM     65  C   UNL     1      21.995  31.725  12.882  1.00  0.00     0.077 A 
ATOM     66  C   UNL     1      22.087  30.381  12.939  1.00  0.00     0.043 A 
ATOM     67  C   UNL     1      20.790  32.306  12.439  1.00  0.00     0.029 A 
ATOM     68  C   UNL     1      20.961  29.626  12.547  1.00  0.00     0.014 A 
ATOM     69  C   UNL     1      19.707  31.544  12.062  1.00  0.00     0.002 A 
ATOM     70  C   UNL     1      19.787  30.174  12.116  1.00  0.00     0.001 A 
BRANCH  66  71
ATOM     71  C   UNL     1      23.283  29.700  13.374  1.00  0.00     0.161 C 
ATOM     72  O   UNL     1      24.055  29.296  12.423  1.00  0.00    -0.294 OA
ATOM     73  C   UNL     1      23.733  29.410  14.737  1.00  0.00     0.093 C 
ENDBRANCH  66  71
ENDBRANCH  63  65
ENDBRANCH  59  60
ENDBRANCH  58  59
ENDBRANCH  55  58
ENDBRANCH  53  54
ENDBRANCH  50  53
ENDBRANCH  47  50
ENDBRANCH   5  47
BRANCH   4  74
ATOM     74  N   UNL     1      22.514  41.850  12.661  1.00  0.00    -0.348 N 
ATOM     75  C   UNL     1      23.703  42.219  11.984  1.00  0.00     0.217 C 
ATOM     76  H   UNL     1      22.215  42.386  13.517  1.00  0.00     0.163 HD
ATOM     77  C   UNL     1      24.515  43.375  12.502  1.00  0.00     0.114 C 
ATOM     78  O   UNL     1      24.026  41.562  10.973  1.00  0.00    -0.275 OA
ENDBRANCH   4  74
TORSDOF 31
BEGIN_RES LYS A 131
REMARK  4 active torsions:
REMARK  status: ('A' for Active; 'I' for Inactive)
REMARK    1  A    between atoms: CA   and  CB  
REMARK    2  A    between atoms: CB   and  CG  
REMARK    3  A    between atoms: CG   and  CD  
REMARK    4  A    between atoms: CD   and  CE  
ROOT
ATOM      1  CA  LYS A 131      29.867  25.555  16.977  1.00 20.52     0.186 C 
ENDROOT
BRANCH   1   2
ATOM      2  CB  LYS A 131      28.345  25.722  17.026  1.00 20.94     0.034 C 
BRANCH   2   3
ATOM      3  CG  LYS A 131      27.601  24.402  16.889  1.00 22.96     0.005 C 
BRANCH   3   4
ATOM      4  CD  LYS A 131      26.203  24.481  17.436  1.00 24.33     0.041 C 
BRANCH   4   5
ATOM      5  CE  LYS A 131      25.626  23.075  17.564  1.00 26.91     0.338 C 
ATOM      6  NZ  LYS A 131      24.171  23.084  17.285  1.00 27.40     0.618 N 
ENDBRANCH   4   5
ENDBRANCH   3   4
ENDBRANCH   2   3
ENDBRANCH   1   2
END_RES LYS A 131
BEGIN_RES LYS A 135
REMARK  4 active torsions:
REMARK  status: ('A' for Active; 'I' for Inactive)
REMARK    5  A    between atoms: CA   and  CB  
REMARK    6  A    between atoms: CB   and  CG  
REMARK    7  A    between atoms: CG   and  CD  
REMARK    8  A    between atoms: CD   and  CE  
ROOT
ATOM      7  CA  LYS A 135      33.193  34.663   9.290  1.00 25.02     0.186 C 
ENDROOT
BRANCH   7   8
ATOM      8  CB  LYS A 135      32.060  35.360  10.034  1.00 26.63     0.034 C 
BRANCH   8   9
ATOM      9  CG  LYS A 135      30.700  34.784   9.737  1.00 29.45     0.005 C 
BRANCH   9  10
ATOM     10  CD  LYS A 135      30.199  35.261   8.383  1.00 32.00     0.041 C 
BRANCH  10  11
ATOM     11  CE  LYS A 135      28.786  34.768   8.133  1.00 34.25     0.338 C 
ATOM     12  NZ  LYS A 135      28.217  35.374   6.897  1.00 35.99     0.618 N 
ENDBRANCH  10  11
ENDBRANCH   9  10
ENDBRANCH   8   9
ENDBRANCH   7   8
END_RES LYS A 135
