REMARK VINA RESULT:    -4.322      3.684      7.435
REMARK INTER + INTRA:         -21.247
REMARK INTER:                 -10.948
REMARK INTRA:                 -10.299
REMARK UNBOUND:               -10.230
REMARK SMILES CC(=O)N[C@@H]1[C@@H](O)C[C@](OC[C@H]2O[C@@H](O[C@H]3[C@H](O)[C@@H](O)[C@H](OCCN=[N+]=[N-])O[C@@H]3CO)[C@H](O)[C@@H](O)[C@H]2O)(C(=O)O)O[C@H]1C(O)[C@H](O)CNC(=O)OCc1cn(C(C)(C)CO)nn1
REMARK SMILES IDX 9 1 8 2 6 3 5 4 42 5 41 6 10 7 11 8 12 9 14 10 13 11 32 12
REMARK SMILES IDX 34 13 36 14 15 15 16 16 29 17 28 18 21 19 17 20 19 21 30 22
REMARK SMILES IDX 31 23 22 25 23 26 24 27 25 28 26 29 27 30 18 31 20 33 33 35
REMARK SMILES IDX 35 37 37 39 38 41 39 42 40 43 7 45 43 47 44 48 45 50 46 51
REMARK SMILES IDX 47 53 48 54 49 55 50 57 51 58 52 59 53 60 54 61 62 62 55 63
REMARK SMILES IDX 61 64 56 65 57 66 58 67 59 68 60 69 4 71 2 72 1 74 3 75
REMARK H PARENT 31 24 18 32 20 34 33 36 35 38 37 40 40 44 7 46 44 49 46 52
REMARK H PARENT 48 56 60 70 4 73
REMARK Flexibility Score: inf
ROOT
ATOM      1  C   UNL     1      29.335  34.067  14.951  1.00  0.00     0.272 C 
ATOM      2  C   UNL     1      30.694  34.460  15.468  1.00  0.00     0.113 C 
ATOM      3  C   UNL     1      31.475  33.192  15.716  1.00  0.00     0.145 C 
ATOM      4  C   UNL     1      30.812  32.549  16.956  1.00  0.00     0.142 C 
ATOM      5  C   UNL     1      29.352  32.420  16.642  1.00  0.00     0.178 C 
ATOM      6  O   UNL     1      29.061  32.695  15.320  1.00  0.00    -0.332 OA
ENDROOT
BRANCH   1   7
ATOM      7  O   UNL     1      29.245  34.024  13.598  1.00  0.00    -0.338 OA
BRANCH   7   8
ATOM      8  C   UNL     1      29.056  35.084  12.831  1.00  0.00     0.199 C 
BRANCH   8   9
ATOM      9  C   UNL     1      28.053  35.198  11.758  1.00  0.00     0.179 C 
ATOM     10  C   UNL     1      25.924  34.478  11.239  1.00  0.00     0.282 C 
ATOM     11  O   UNL     1      26.806  34.697  12.264  1.00  0.00    -0.341 OA
ATOM     12  C   UNL     1      26.192  35.200   9.966  1.00  0.00     0.202 C 
ATOM     13  C   UNL     1      26.847  36.552  10.147  1.00  0.00     0.179 C 
ATOM     14  C   UNL     1      27.682  36.628  11.384  1.00  0.00     0.177 C 
BRANCH  10  15
ATOM     15  O   UNL     1      24.634  34.685  11.736  1.00  0.00    -0.341 OA
BRANCH  15  16
ATOM     16  C   UNL     1      24.435  34.169  12.995  1.00  0.00     0.184 C 
ATOM     17  C   UNL     1      23.452  33.021  13.031  1.00  0.00     0.178 C 
ATOM     18  O   UNL     1      22.523  33.121  14.046  1.00  0.00    -0.341 OA
ATOM     19  C   UNL     1      21.700  34.213  14.000  1.00  0.00     0.281 C 
ATOM     20  C   UNL     1      23.841  35.319  13.831  1.00  0.00     0.180 C 
ATOM     21  C   UNL     1      22.397  35.399  13.373  1.00  0.00     0.202 C 
BRANCH  17  22
ATOM     22  C   UNL     1      24.279  31.775  13.323  1.00  0.00     0.191 C 
BRANCH  22  23
ATOM     23  O   UNL     1      25.238  32.068  14.294  1.00  0.00    -0.394 OA
ATOM     24  H   UNL     1      26.085  31.604  14.162  1.00  0.00     0.210 HD
ENDBRANCH  22  23
ENDBRANCH  17  22
BRANCH  19  25
ATOM     25  O   UNL     1      21.274  34.470  15.291  1.00  0.00    -0.350 OA
BRANCH  25  26
ATOM     26  C   UNL     1      20.903  33.384  16.020  1.00  0.00     0.169 C 
BRANCH  26  27
ATOM     27  C   UNL     1      21.492  33.344  17.422  1.00  0.00     0.119 C 
BRANCH  27  28
ATOM     28  N   UNL     1      22.926  33.129  17.379  1.00  0.00    -0.092 NA
ATOM     29  N   UNL     1      23.322  31.964  17.235  1.00  0.00     0.001 N 
ATOM     30  N   UNL     1      23.810  30.924  16.741  1.00  0.00    -0.003 NA
ENDBRANCH  27  28
ENDBRANCH  26  27
ENDBRANCH  25  26
ENDBRANCH  19  25
BRANCH  20  31
ATOM     31  O   UNL     1      23.949  34.900  15.160  1.00  0.00    -0.387 OA
ATOM     32  H   UNL     1      23.020  34.895  15.513  1.00  0.00     0.211 HD
ENDBRANCH  20  31
BRANCH  21  33
ATOM     33  O   UNL     1      22.393  35.192  11.984  1.00  0.00    -0.385 OA
ATOM     34  H   UNL     1      23.080  35.780  11.548  1.00  0.00     0.211 HD
ENDBRANCH  21  33
ENDBRANCH  15  16
ENDBRANCH  10  15
BRANCH  12  35
ATOM     35  O   UNL     1      26.854  34.442   8.999  1.00  0.00    -0.385 OA
ATOM     36  H   UNL     1      26.491  33.535   9.056  1.00  0.00     0.211 HD
ENDBRANCH  12  35
BRANCH  13  37
ATOM     37  O   UNL     1      25.890  37.581  10.117  1.00  0.00    -0.387 OA
ATOM     38  H   UNL     1      25.103  37.318   9.570  1.00  0.00     0.211 HD
ENDBRANCH  13  37
BRANCH  14  39
ATOM     39  O   UNL     1      26.837  37.105  12.412  1.00  0.00    -0.387 OA
ATOM     40  H   UNL     1      26.046  37.531  12.021  1.00  0.00     0.211 HD
ENDBRANCH  14  39
ENDBRANCH   8   9
ENDBRANCH   7   8
ENDBRANCH   1   7
BRANCH   1  41
ATOM     41  C   UNL     1      28.247  34.793  15.603  1.00  0.00     0.364 C 
ATOM     42  O   UNL     1      28.443  35.766  16.336  1.00  0.00    -0.246 OA
BRANCH  41  43
ATOM     43  O   UNL     1      26.898  34.431  15.440  1.00  0.00    -0.477 OA
ATOM     44  H   UNL     1      26.381  34.903  14.706  1.00  0.00     0.296 HD
ENDBRANCH  41  43
ENDBRANCH   1  41
BRANCH   3  45
ATOM     45  O   UNL     1      31.191  32.314  14.668  1.00  0.00    -0.391 OA
ATOM     46  H   UNL     1      31.816  31.561  14.654  1.00  0.00     0.211 HD
ENDBRANCH   3  45
BRANCH   5  47
ATOM     47  C   UNL     1      29.025  30.922  16.783  1.00  0.00     0.176 C 
BRANCH  47  48
ATOM     48  O   UNL     1      29.954  30.193  16.001  1.00  0.00    -0.388 OA
ATOM     49  H   UNL     1      29.710  30.181  15.061  1.00  0.00     0.211 HD
ENDBRANCH  47  48
BRANCH  47  50
ATOM     50  C   UNL     1      27.678  30.577  16.170  1.00  0.00     0.165 C 
BRANCH  50  51
ATOM     51  O   UNL     1      26.699  31.462  16.485  1.00  0.00    -0.388 OA
ATOM     52  H   UNL     1      25.954  31.115  17.028  1.00  0.00     0.211 HD
ENDBRANCH  50  51
BRANCH  50  53
ATOM     53  C   UNL     1      27.281  29.166  16.556  1.00  0.00     0.154 C 
BRANCH  53  54
ATOM     54  N   UNL     1      27.724  28.720  17.825  1.00  0.00    -0.319 N 
ATOM     55  C   UNL     1      26.964  28.780  18.998  1.00  0.00     0.407 C 
ATOM     56  H   UNL     1      28.713  28.301  17.918  1.00  0.00     0.167 HD
ATOM     57  O   UNL     1      25.808  29.231  19.018  1.00  0.00    -0.225 OA
BRANCH  55  58
ATOM     58  O   UNL     1      27.481  28.325  20.235  1.00  0.00    -0.443 OA
BRANCH  58  59
ATOM     59  C   UNL     1      28.421  27.276  20.295  1.00  0.00     0.294 C 
BRANCH  59  60
ATOM     60  C   UNL     1      29.637  27.613  21.063  1.00  0.00     0.120 A 
ATOM     61  C   UNL     1      29.980  28.839  21.595  1.00  0.00     0.139 A 
ATOM     62  N   UNL     1      30.641  26.786  21.392  1.00  0.00    -0.132 NA
ATOM     63  N   UNL     1      31.173  28.727  22.229  1.00  0.00    -0.244 N 
ATOM     64  N   UNL     1      31.553  27.468  22.090  1.00  0.00    -0.066 NA
BRANCH  63  65
ATOM     65  C   UNL     1      31.863  29.791  22.913  1.00  0.00     0.082 C 
ATOM     66  C   UNL     1      32.308  29.320  24.266  1.00  0.00     0.039 C 
ATOM     67  C   UNL     1      30.909  30.973  23.145  1.00  0.00     0.039 C 
BRANCH  65  68
ATOM     68  C   UNL     1      33.048  30.327  22.163  1.00  0.00     0.186 C 
BRANCH  68  69
ATOM     69  O   UNL     1      33.457  29.519  21.128  1.00  0.00    -0.394 OA
ATOM     70  H   UNL     1      33.892  29.975  20.390  1.00  0.00     0.210 HD
ENDBRANCH  68  69
ENDBRANCH  65  68
ENDBRANCH  63  65
ENDBRANCH  59  60
ENDBRANCH  58  59
ENDBRANCH  55  58
ENDBRANCH  53  54
ENDBRANCH  50  53
ENDBRANCH  47  50
ENDBRANCH   5  47
BRANCH   4  71
ATOM     71  N   UNL     1      31.134  33.406  18.051  1.00  0.00    -0.348 N 
ATOM     72  C   UNL     1      31.167  33.043  19.418  1.00  0.00     0.217 C 
ATOM     73  H   UNL     1      31.375  34.426  17.866  1.00  0.00     0.163 HD
ATOM     74  C   UNL     1      31.513  34.013  20.492  1.00  0.00     0.114 C 
ATOM     75  O   UNL     1      30.898  31.875  19.743  1.00  0.00    -0.275 OA
ENDBRANCH   4  71
TORSDOF 32
BEGIN_RES LYS A 131
REMARK  4 active torsions:
REMARK  status: ('A' for Active; 'I' for Inactive)
REMARK    1  A    between atoms: CA   and  CB  
REMARK    2  A    between atoms: CB   and  CG  
REMARK    3  A    between atoms: CG   and  CD  
REMARK    4  A    between atoms: CD   and  CE  
ROOT
ATOM      1  CA  LYS A 131      29.867  25.555  16.977  1.00 20.52     0.186 C 
ENDROOT
BRANCH   1   2
ATOM      2  CB  LYS A 131      28.345  25.722  17.026  1.00 20.94     0.034 C 
BRANCH   2   3
ATOM      3  CG  LYS A 131      27.601  24.402  16.891  1.00 22.96     0.005 C 
BRANCH   3   4
ATOM      4  CD  LYS A 131      26.149  24.530  17.260  1.00 24.33     0.041 C 
BRANCH   4   5
ATOM      5  CE  LYS A 131      25.947  24.065  18.699  1.00 26.91     0.338 C 
ATOM      6  NZ  LYS A 131      25.521  25.197  19.555  1.00 27.40     0.618 N 
ENDBRANCH   4   5
ENDBRANCH   3   4
ENDBRANCH   2   3
ENDBRANCH   1   2
END_RES LYS A 131
BEGIN_RES LYS A 135
REMARK  4 active torsions:
REMARK  status: ('A' for Active; 'I' for Inactive)
REMARK    5  A    between atoms: CA   and  CB  
REMARK    6  A    between atoms: CB   and  CG  
REMARK    7  A    between atoms: CG   and  CD  
REMARK    8  A    between atoms: CD   and  CE  
ROOT
ATOM      7  CA  LYS A 135      33.193  34.663   9.290  1.00 25.02     0.186 C 
ENDROOT
BRANCH   7   8
ATOM      8  CB  LYS A 135      32.060  35.360  10.034  1.00 26.63     0.034 C 
BRANCH   8   9
ATOM      9  CG  LYS A 135      30.691  35.011   9.510  1.00 29.45     0.005 C 
BRANCH   9  10
ATOM     10  CD  LYS A 135      30.161  36.120   8.614  1.00 32.00     0.041 C 
BRANCH  10  11
ATOM     11  CE  LYS A 135      30.672  37.470   9.079  1.00 34.25     0.338 C 
ATOM     12  NZ  LYS A 135      30.066  38.575   8.285  1.00 35.99     0.618 N 
ENDBRANCH  10  11
ENDBRANCH   9  10
ENDBRANCH   8   9
ENDBRANCH   7   8
END_RES LYS A 135
