REMARK VINA RESULT:    -4.926      4.010      8.689
REMARK INTER + INTRA:         -22.431
REMARK INTER:                 -10.471
REMARK INTRA:                 -11.960
REMARK UNBOUND:               -10.018
REMARK SMILES COc1ccc(-n2cc(COC(=O)NC[C@@H](O)C(O)[C@@H]3O[C@@](OC[C@H]4O[C@@H](O[C@H]5[C@H](O)[C@@H](O)[C@H](OCCN=[N+]=[N-])O[C@@H]5CO)[C@H](O)[C@@H](O)[C@H]4O)(C(=O)O)C[C@H](O)[C@H]3NC(C)=O)nn2)cc1
REMARK SMILES IDX 22 1 54 2 55 3 57 4 20 5 21 6 23 7 24 8 25 9 27 10 26 11
REMARK SMILES IDX 45 12 47 13 49 14 28 15 29 16 42 17 41 18 34 19 30 20 32 21
REMARK SMILES IDX 43 22 44 23 35 25 36 26 37 27 38 28 39 29 40 30 31 31 33 33
REMARK SMILES IDX 46 35 48 37 50 39 51 41 52 42 53 43 56 45 18 47 19 48 16 50
REMARK SMILES IDX 17 51 15 53 14 54 12 55 13 57 11 58 10 59 9 60 8 61 62 62
REMARK SMILES IDX 7 63 63 64 6 65 5 66 64 67 4 68 65 69 3 70 2 71 1 72 58 73
REMARK SMILES IDX 59 74 60 76 61 77
REMARK H PARENT 44 24 31 32 33 34 46 36 48 38 50 40 53 44 56 46 19 49 17 52
REMARK H PARENT 14 56 58 75
REMARK Flexibility Score: inf
ROOT
ATOM      1  C   UNL     1      31.638  35.911  13.873  1.00  0.00     0.272 C 
ATOM      2  C   UNL     1      31.308  37.352  13.985  1.00  0.00     0.113 C 
ATOM      3  C   UNL     1      30.029  37.702  14.637  1.00  0.00     0.145 C 
ATOM      4  C   UNL     1      29.094  36.480  14.539  1.00  0.00     0.142 C 
ATOM      5  C   UNL     1      29.351  35.842  13.220  1.00  0.00     0.178 C 
ATOM      6  O   UNL     1      30.574  35.180  13.314  1.00  0.00    -0.332 OA
ENDROOT
BRANCH   1   7
ATOM      7  O   UNL     1      32.188  35.199  14.806  1.00  0.00    -0.338 OA
BRANCH   7   8
ATOM      8  C   UNL     1      32.204  35.037  16.075  1.00  0.00     0.199 C 
BRANCH   8   9
ATOM      9  C   UNL     1      31.654  33.835  16.788  1.00  0.00     0.179 C 
ATOM     10  C   UNL     1      30.110  33.004  18.253  1.00  0.00     0.282 C 
ATOM     11  O   UNL     1      30.516  34.099  17.472  1.00  0.00    -0.341 OA
ATOM     12  C   UNL     1      29.834  31.765  17.463  1.00  0.00     0.202 C 
ATOM     13  C   UNL     1      30.427  31.721  16.104  1.00  0.00     0.179 C 
ATOM     14  C   UNL     1      31.568  32.630  15.883  1.00  0.00     0.177 C 
BRANCH  10  15
ATOM     15  O   UNL     1      28.950  33.390  18.919  1.00  0.00    -0.341 OA
BRANCH  15  16
ATOM     16  C   UNL     1      28.688  34.728  18.813  1.00  0.00     0.184 C 
ATOM     17  C   UNL     1      28.535  35.393  20.132  1.00  0.00     0.178 C 
ATOM     18  O   UNL     1      28.166  36.755  19.970  1.00  0.00    -0.341 OA
ATOM     19  C   UNL     1      26.826  36.722  19.504  1.00  0.00     0.281 C 
ATOM     20  C   UNL     1      27.390  34.896  18.003  1.00  0.00     0.180 C 
ATOM     21  C   UNL     1      26.967  36.340  18.028  1.00  0.00     0.202 C 
BRANCH  17  22
ATOM     22  C   UNL     1      29.798  35.324  20.951  1.00  0.00     0.191 C 
BRANCH  22  23
ATOM     23  O   UNL     1      30.881  35.605  20.136  1.00  0.00    -0.394 OA
ATOM     24  H   UNL     1      30.620  35.847  19.220  1.00  0.00     0.210 HD
ENDBRANCH  22  23
ENDBRANCH  17  22
BRANCH  19  25
ATOM     25  O   UNL     1      26.214  37.915  19.667  1.00  0.00    -0.350 OA
BRANCH  25  26
ATOM     26  C   UNL     1      26.906  38.971  20.173  1.00  0.00     0.169 C 
BRANCH  26  27
ATOM     27  C   UNL     1      27.309  40.050  19.226  1.00  0.00     0.119 C 
BRANCH  27  28
ATOM     28  N   UNL     1      26.811  39.927  17.890  1.00  0.00    -0.092 NA
ATOM     29  N   UNL     1      27.506  40.213  16.921  1.00  0.00     0.001 N 
ATOM     30  N   UNL     1      28.267  40.647  16.050  1.00  0.00    -0.003 NA
ENDBRANCH  27  28
ENDBRANCH  26  27
ENDBRANCH  25  26
ENDBRANCH  19  25
BRANCH  20  31
ATOM     31  O   UNL     1      27.609  34.438  16.717  1.00  0.00    -0.387 OA
ATOM     32  H   UNL     1      28.083  35.176  16.221  1.00  0.00     0.211 HD
ENDBRANCH  20  31
BRANCH  21  33
ATOM     33  O   UNL     1      25.737  36.493  17.430  1.00  0.00    -0.385 OA
ATOM     34  H   UNL     1      25.673  37.353  16.946  1.00  0.00     0.211 HD
ENDBRANCH  21  33
ENDBRANCH  15  16
ENDBRANCH  10  15
BRANCH  12  35
ATOM     35  O   UNL     1      30.279  30.615  18.136  1.00  0.00    -0.385 OA
ATOM     36  H   UNL     1      31.259  30.599  18.210  1.00  0.00     0.211 HD
ENDBRANCH  12  35
BRANCH  13  37
ATOM     37  O   UNL     1      29.423  31.837  15.136  1.00  0.00    -0.387 OA
ATOM     38  H   UNL     1      29.764  32.087  14.253  1.00  0.00     0.211 HD
ENDBRANCH  13  37
BRANCH  14  39
ATOM     39  O   UNL     1      31.597  32.994  14.534  1.00  0.00    -0.387 OA
ATOM     40  H   UNL     1      31.463  32.165  14.011  1.00  0.00     0.211 HD
ENDBRANCH  14  39
ENDBRANCH   8   9
ENDBRANCH   7   8
ENDBRANCH   1   7
BRANCH   1  41
ATOM     41  C   UNL     1      32.641  35.890  12.676  1.00  0.00     0.364 C 
ATOM     42  O   UNL     1      32.636  36.801  11.844  1.00  0.00    -0.246 OA
BRANCH  41  43
ATOM     43  O   UNL     1      33.498  34.820  12.622  1.00  0.00    -0.477 OA
ATOM     44  H   UNL     1      34.432  34.894  12.195  1.00  0.00     0.296 HD
ENDBRANCH  41  43
ENDBRANCH   1  41
BRANCH   3  45
ATOM     45  O   UNL     1      30.095  38.205  15.904  1.00  0.00    -0.391 OA
ATOM     46  H   UNL     1      30.643  39.013  16.021  1.00  0.00     0.211 HD
ENDBRANCH   3  45
BRANCH   5  47
ATOM     47  C   UNL     1      28.332  34.733  12.867  1.00  0.00     0.176 C 
BRANCH  47  48
ATOM     48  O   UNL     1      27.794  34.190  13.993  1.00  0.00    -0.388 OA
ATOM     49  H   UNL     1      28.458  34.213  14.721  1.00  0.00     0.211 HD
ENDBRANCH  47  48
BRANCH  47  50
ATOM     50  C   UNL     1      27.540  35.054  11.706  1.00  0.00     0.165 C 
BRANCH  50  51
ATOM     51  O   UNL     1      27.824  36.299  11.080  1.00  0.00    -0.388 OA
ATOM     52  H   UNL     1      28.498  36.727  11.645  1.00  0.00     0.211 HD
ENDBRANCH  50  51
BRANCH  50  53
ATOM     53  C   UNL     1      26.075  34.934  11.633  1.00  0.00     0.154 C 
BRANCH  53  54
ATOM     54  N   UNL     1      25.439  33.892  12.303  1.00  0.00    -0.319 N 
ATOM     55  C   UNL     1      24.129  33.890  12.805  1.00  0.00     0.407 C 
ATOM     56  H   UNL     1      25.997  32.984  12.462  1.00  0.00     0.167 HD
ATOM     57  O   UNL     1      23.370  34.863  12.672  1.00  0.00    -0.225 OA
BRANCH  55  58
ATOM     58  O   UNL     1      23.654  32.743  13.483  1.00  0.00    -0.443 OA
BRANCH  58  59
ATOM     59  C   UNL     1      24.412  31.566  13.367  1.00  0.00     0.294 C 
BRANCH  59  60
ATOM     60  C   UNL     1      25.218  31.365  14.594  1.00  0.00     0.121 A 
ATOM     61  C   UNL     1      25.278  30.279  15.447  1.00  0.00     0.144 A 
ATOM     62  N   UNL     1      26.086  32.272  15.082  1.00  0.00    -0.131 NA
ATOM     63  N   UNL     1      26.167  30.567  16.404  1.00  0.00    -0.220 N 
ATOM     64  N   UNL     1      26.646  31.791  16.160  1.00  0.00    -0.062 NA
BRANCH  63  65
ATOM     65  C   UNL     1      26.626  29.823  17.522  1.00  0.00     0.067 A 
ATOM     66  C   UNL     1      26.800  30.347  18.775  1.00  0.00     0.032 A 
ATOM     67  C   UNL     1      26.934  28.476  17.348  1.00  0.00     0.032 A 
ATOM     68  C   UNL     1      27.264  29.565  19.823  1.00  0.00     0.048 A 
ATOM     69  C   UNL     1      27.396  27.697  18.391  1.00  0.00     0.048 A 
ATOM     70  C   UNL     1      27.571  28.227  19.652  1.00  0.00     0.119 A 
BRANCH  70  71
ATOM     71  O   UNL     1      28.042  27.445  20.724  1.00  0.00    -0.497 OA
ATOM     72  C   UNL     1      28.078  28.069  22.016  1.00  0.00     0.278 C 
ENDBRANCH  70  71
ENDBRANCH  63  65
ENDBRANCH  59  60
ENDBRANCH  58  59
ENDBRANCH  55  58
ENDBRANCH  53  54
ENDBRANCH  50  53
ENDBRANCH  47  50
ENDBRANCH   5  47
BRANCH   4  73
ATOM     73  N   UNL     1      27.754  36.904  14.832  1.00  0.00    -0.348 N 
ATOM     74  C   UNL     1      27.105  37.892  14.047  1.00  0.00     0.217 C 
ATOM     75  H   UNL     1      27.239  36.461  15.613  1.00  0.00     0.163 HD
ATOM     76  C   UNL     1      25.718  38.314  14.373  1.00  0.00     0.114 C 
ATOM     77  O   UNL     1      27.657  38.447  13.060  1.00  0.00    -0.275 OA
ENDBRANCH   4  73
TORSDOF 31
BEGIN_RES LYS A 131
REMARK  4 active torsions:
REMARK  status: ('A' for Active; 'I' for Inactive)
REMARK    1  A    between atoms: CA   and  CB  
REMARK    2  A    between atoms: CB   and  CG  
REMARK    3  A    between atoms: CG   and  CD  
REMARK    4  A    between atoms: CD   and  CE  
ROOT
ATOM      1  CA  LYS A 131      29.867  25.555  16.977  1.00 20.52     0.186 C 
ENDROOT
BRANCH   1   2
ATOM      2  CB  LYS A 131      28.345  25.722  17.026  1.00 20.94     0.034 C 
BRANCH   2   3
ATOM      3  CG  LYS A 131      27.601  24.402  16.890  1.00 22.96     0.005 C 
BRANCH   3   4
ATOM      4  CD  LYS A 131      26.158  24.522  17.293  1.00 24.33     0.041 C 
BRANCH   4   5
ATOM      5  CE  LYS A 131      25.949  23.849  18.646  1.00 26.91     0.338 C 
ATOM      6  NZ  LYS A 131      24.834  22.875  18.575  1.00 27.40     0.618 N 
ENDBRANCH   4   5
ENDBRANCH   3   4
ENDBRANCH   2   3
ENDBRANCH   1   2
END_RES LYS A 131
BEGIN_RES LYS A 135
REMARK  4 active torsions:
REMARK  status: ('A' for Active; 'I' for Inactive)
REMARK    5  A    between atoms: CA   and  CB  
REMARK    6  A    between atoms: CB   and  CG  
REMARK    7  A    between atoms: CG   and  CD  
REMARK    8  A    between atoms: CD   and  CE  
ROOT
ATOM      7  CA  LYS A 135      33.193  34.663   9.290  1.00 25.02     0.186 C 
ENDROOT
BRANCH   7   8
ATOM      8  CB  LYS A 135      32.060  35.360  10.034  1.00 26.63     0.034 C 
BRANCH   8   9
ATOM      9  CG  LYS A 135      30.718  34.701   9.842  1.00 29.45     0.005 C 
BRANCH   9  10
ATOM     10  CD  LYS A 135      30.425  34.502   8.363  1.00 32.00     0.041 C 
BRANCH  10  11
ATOM     11  CE  LYS A 135      29.383  35.496   7.889  1.00 34.25     0.338 C 
ATOM     12  NZ  LYS A 135      28.023  34.888   7.884  1.00 35.99     0.618 N 
ENDBRANCH  10  11
ENDBRANCH   9  10
ENDBRANCH   8   9
ENDBRANCH   7   8
END_RES LYS A 135
