REMARK VINA RESULT:    -4.096      5.503     11.468
REMARK INTER + INTRA:         -22.012
REMARK INTER:                  -8.569
REMARK INTRA:                 -13.443
REMARK UNBOUND:               -10.971
REMARK SMILES C=CCCCCn1cc(COC(=O)NC[C@@H](O)C(O)[C@@H]2O[C@@](OC[C@H]3O[C@@H](O[C@H]4[C@H](O)[C@@H](O)[C@H](OCCN=[N+]=[N-])O[C@@H]4CO)[C@H](O)[C@@H](O)[C@H]3O)(C(=O)O)C[C@H](O)[C@H]2NC(C)=O)nn1
REMARK SMILES IDX 18 1 20 2 22 3 54 4 21 5 55 6 57 7 23 8 24 9 25 10 27 11
REMARK SMILES IDX 26 12 45 13 47 14 49 15 28 16 29 17 42 18 41 19 34 20 30 21
REMARK SMILES IDX 32 22 43 23 44 24 35 26 36 27 37 28 38 29 39 30 40 31 31 32
REMARK SMILES IDX 33 34 46 36 48 38 50 40 51 42 52 43 53 44 56 46 58 48 59 49
REMARK SMILES IDX 60 51 61 52 19 53 16 55 17 56 15 58 14 59 12 60 13 62 11 63
REMARK SMILES IDX 10 64 9 65 8 66 62 67 7 68 63 69 6 70 5 71 4 72 3 73 2 74
REMARK SMILES IDX 1 75
REMARK H PARENT 44 25 31 33 33 35 46 37 48 39 50 41 53 45 56 47 58 50 19 54
REMARK H PARENT 17 57 14 61
REMARK Flexibility Score: inf
ROOT
ATOM      1  C   UNL     1      28.650  34.546  12.929  1.00  0.00     0.176 C 
ENDROOT
BRANCH   1   2
ATOM      2  C   UNL     1      29.827  35.292  13.564  1.00  0.00     0.178 C 
ATOM      3  C   UNL     1      31.036  37.239  13.372  1.00  0.00     0.272 C 
ATOM      4  C   UNL     1      32.281  36.511  13.662  1.00  0.00     0.113 C 
ATOM      5  O   UNL     1      30.153  36.294  12.722  1.00  0.00    -0.332 OA
ATOM      6  C   UNL     1      32.139  35.294  14.467  1.00  0.00     0.145 C 
ATOM      7  C   UNL     1      30.859  34.511  14.225  1.00  0.00     0.142 C 
BRANCH   3   8
ATOM      8  O   UNL     1      31.152  38.173  12.354  1.00  0.00    -0.338 OA
BRANCH   8   9
ATOM      9  C   UNL     1      30.964  37.887  11.081  1.00  0.00     0.199 C 
BRANCH   9  10
ATOM     10  C   UNL     1      30.095  38.713  10.212  1.00  0.00     0.179 C 
ATOM     11  C   UNL     1      28.017  38.599   9.136  1.00  0.00     0.282 C 
ATOM     12  O   UNL     1      29.104  37.910   9.597  1.00  0.00    -0.341 OA
ATOM     13  C   UNL     1      28.231  40.055   8.987  1.00  0.00     0.202 C 
ATOM     14  C   UNL     1      28.771  40.739  10.214  1.00  0.00     0.179 C 
ATOM     15  C   UNL     1      29.359  39.696  11.114  1.00  0.00     0.177 C 
BRANCH  11  16
ATOM     16  O   UNL     1      26.921  38.174   9.839  1.00  0.00    -0.341 OA
BRANCH  16  17
ATOM     17  C   UNL     1      25.722  38.743   9.527  1.00  0.00     0.184 C 
ATOM     18  C   UNL     1      24.683  38.279  10.520  1.00  0.00     0.178 C 
ATOM     19  O   UNL     1      23.454  38.034   9.887  1.00  0.00    -0.341 OA
ATOM     20  C   UNL     1      23.567  36.812   9.233  1.00  0.00     0.281 C 
ATOM     21  C   UNL     1      25.216  38.264   8.147  1.00  0.00     0.180 C 
ATOM     22  C   UNL     1      24.703  36.846   8.255  1.00  0.00     0.202 C 
BRANCH  18  23
ATOM     23  C   UNL     1      24.501  39.240  11.682  1.00  0.00     0.191 C 
BRANCH  23  24
ATOM     24  O   UNL     1      25.722  39.581  12.238  1.00  0.00    -0.394 OA
ATOM     25  H   UNL     1      26.274  40.021  11.549  1.00  0.00     0.210 HD
ENDBRANCH  23  24
ENDBRANCH  18  23
BRANCH  20  26
ATOM     26  O   UNL     1      22.356  36.599   8.572  1.00  0.00    -0.350 OA
BRANCH  26  27
ATOM     27  C   UNL     1      21.246  36.814   9.367  1.00  0.00     0.169 C 
BRANCH  27  28
ATOM     28  C   UNL     1      20.153  37.376   8.475  1.00  0.00     0.119 C 
BRANCH  28  29
ATOM     29  N   UNL     1      19.868  38.753   8.780  1.00  0.00    -0.092 NA
ATOM     30  N   UNL     1      20.702  39.634   8.607  1.00  0.00     0.001 N 
ATOM     31  N   UNL     1      21.553  40.435   8.221  1.00  0.00    -0.003 NA
ENDBRANCH  28  29
ENDBRANCH  27  28
ENDBRANCH  26  27
ENDBRANCH  20  26
BRANCH  21  32
ATOM     32  O   UNL     1      24.127  39.078   7.841  1.00  0.00    -0.387 OA
ATOM     33  H   UNL     1      23.274  38.603   7.781  1.00  0.00     0.211 HD
ENDBRANCH  21  32
BRANCH  22  34
ATOM     34  O   UNL     1      25.740  35.974   8.576  1.00  0.00    -0.385 OA
ATOM     35  H   UNL     1      26.162  35.693   7.720  1.00  0.00     0.211 HD
ENDBRANCH  22  34
ENDBRANCH  16  17
ENDBRANCH  11  16
BRANCH  13  36
ATOM     36  O   UNL     1      29.156  40.243   7.951  1.00  0.00    -0.385 OA
ATOM     37  H   UNL     1      29.002  41.069   7.458  1.00  0.00     0.211 HD
ENDBRANCH  13  36
BRANCH  14  38
ATOM     38  O   UNL     1      27.797  41.493  10.871  1.00  0.00    -0.387 OA
ATOM     39  H   UNL     1      27.174  40.860  11.283  1.00  0.00     0.211 HD
ENDBRANCH  14  38
BRANCH  15  40
ATOM     40  O   UNL     1      28.382  39.036  11.870  1.00  0.00    -0.387 OA
ATOM     41  H   UNL     1      27.552  39.542  11.951  1.00  0.00     0.211 HD
ENDBRANCH  15  40
ENDBRANCH   9  10
ENDBRANCH   8   9
ENDBRANCH   3   8
BRANCH   3  42
ATOM     42  C   UNL     1      30.320  37.641  14.575  1.00  0.00     0.364 C 
ATOM     43  O   UNL     1      30.929  37.873  15.643  1.00  0.00    -0.246 OA
BRANCH  42  44
ATOM     44  O   UNL     1      28.964  37.777  14.609  1.00  0.00    -0.477 OA
ATOM     45  H   UNL     1      28.383  37.221  15.212  1.00  0.00     0.296 HD
ENDBRANCH  42  44
ENDBRANCH   3  42
BRANCH   6  46
ATOM     46  O   UNL     1      33.260  34.460  14.231  1.00  0.00    -0.391 OA
ATOM     47  H   UNL     1      33.932  34.904  13.656  1.00  0.00     0.211 HD
ENDBRANCH   6  46
BRANCH   7  48
ATOM     48  N   UNL     1      30.357  34.016  15.522  1.00  0.00    -0.348 N 
ATOM     49  C   UNL     1      30.730  32.768  16.071  1.00  0.00     0.217 C 
ATOM     50  H   UNL     1      29.682  34.581  16.106  1.00  0.00     0.163 HD
ATOM     51  C   UNL     1      30.173  32.313  17.399  1.00  0.00     0.114 C 
ATOM     52  O   UNL     1      31.533  32.041  15.433  1.00  0.00    -0.275 OA
ENDBRANCH   7  48
ENDBRANCH   1   2
BRANCH   1  53
ATOM     53  O   UNL     1      27.610  34.592  14.000  1.00  0.00    -0.388 OA
ATOM     54  H   UNL     1      27.045  33.807  13.710  1.00  0.00     0.211 HD
ENDBRANCH   1  53
BRANCH   1  55
ATOM     55  C   UNL     1      27.961  35.252  11.850  1.00  0.00     0.165 C 
BRANCH  55  56
ATOM     56  O   UNL     1      27.531  36.562  12.156  1.00  0.00    -0.388 OA
ATOM     57  H   UNL     1      27.414  37.004  11.279  1.00  0.00     0.211 HD
ENDBRANCH  55  56
BRANCH  55  58
ATOM     58  C   UNL     1      26.918  34.565  11.074  1.00  0.00     0.154 C 
BRANCH  58  59
ATOM     59  N   UNL     1      25.584  34.826  11.455  1.00  0.00    -0.319 N 
ATOM     60  C   UNL     1      24.719  34.161  12.333  1.00  0.00     0.407 C 
ATOM     61  H   UNL     1      25.140  35.704  10.987  1.00  0.00     0.167 HD
ATOM     62  O   UNL     1      25.078  33.139  12.941  1.00  0.00    -0.225 OA
BRANCH  60  63
ATOM     63  O   UNL     1      23.415  34.623  12.562  1.00  0.00    -0.443 OA
BRANCH  63  64
ATOM     64  C   UNL     1      23.255  35.931  13.112  1.00  0.00     0.294 C 
BRANCH  64  65
ATOM     65  C   UNL     1      24.310  36.209  14.120  1.00  0.00     0.120 A 
ATOM     66  C   UNL     1      24.281  35.764  15.440  1.00  0.00     0.138 A 
ATOM     67  N   UNL     1      25.449  36.907  13.994  1.00  0.00    -0.132 NA
ATOM     68  N   UNL     1      25.391  36.210  16.037  1.00  0.00    -0.252 N 
ATOM     69  N   UNL     1      26.088  36.895  15.168  1.00  0.00    -0.067 NA
BRANCH  68  70
ATOM     70  C   UNL     1      25.719  35.941  17.444  1.00  0.00     0.146 C 
BRANCH  70  71
ATOM     71  C   UNL     1      26.953  36.720  17.813  1.00  0.00     0.024 C 
BRANCH  71  72
ATOM     72  C   UNL     1      27.919  35.783  18.505  1.00  0.00     0.006 C 
BRANCH  72  73
ATOM     73  C   UNL     1      29.341  36.185  18.188  1.00  0.00     0.027 C 
BRANCH  73  74
ATOM     74  C   UNL     1      30.199  36.126  19.392  1.00  0.00    -0.035 C 
ATOM     75  C   UNL     1      31.087  35.162  19.533  1.00  0.00     0.004 C 
ENDBRANCH  73  74
ENDBRANCH  72  73
ENDBRANCH  71  72
ENDBRANCH  70  71
ENDBRANCH  68  70
ENDBRANCH  64  65
ENDBRANCH  63  64
ENDBRANCH  60  63
ENDBRANCH  58  59
ENDBRANCH  55  58
ENDBRANCH   1  55
TORSDOF 34
BEGIN_RES LYS A 131
REMARK  4 active torsions:
REMARK  status: ('A' for Active; 'I' for Inactive)
REMARK    1  A    between atoms: CA   and  CB  
REMARK    2  A    between atoms: CB   and  CG  
REMARK    3  A    between atoms: CG   and  CD  
REMARK    4  A    between atoms: CD   and  CE  
ROOT
ATOM      1  CA  LYS A 131      29.867  25.555  16.977  1.00 20.52     0.186 C 
ENDROOT
BRANCH   1   2
ATOM      2  CB  LYS A 131      28.345  25.722  17.026  1.00 20.94     0.034 C 
BRANCH   2   3
ATOM      3  CG  LYS A 131      27.601  24.401  16.905  1.00 22.96     0.005 C 
BRANCH   3   4
ATOM      4  CD  LYS A 131      26.642  24.185  18.043  1.00 24.33     0.041 C 
BRANCH   4   5
ATOM      5  CE  LYS A 131      25.904  25.486  18.340  1.00 26.91     0.338 C 
ATOM      6  NZ  LYS A 131      25.907  25.764  19.796  1.00 27.40     0.618 N 
ENDBRANCH   4   5
ENDBRANCH   3   4
ENDBRANCH   2   3
ENDBRANCH   1   2
END_RES LYS A 131
BEGIN_RES LYS A 135
REMARK  4 active torsions:
REMARK  status: ('A' for Active; 'I' for Inactive)
REMARK    5  A    between atoms: CA   and  CB  
REMARK    6  A    between atoms: CB   and  CG  
REMARK    7  A    between atoms: CG   and  CD  
REMARK    8  A    between atoms: CD   and  CE  
ROOT
ATOM      7  CA  LYS A 135      33.193  34.663   9.290  1.00 25.02     0.186 C 
ENDROOT
BRANCH   7   8
ATOM      8  CB  LYS A 135      32.060  35.360  10.034  1.00 26.63     0.034 C 
BRANCH   8   9
ATOM      9  CG  LYS A 135      30.709  34.735   9.797  1.00 29.45     0.005 C 
BRANCH   9  10
ATOM     10  CD  LYS A 135      30.466  34.533   8.309  1.00 32.00     0.041 C 
BRANCH  10  11
ATOM     11  CE  LYS A 135      29.013  34.802   7.966  1.00 34.25     0.338 C 
ATOM     12  NZ  LYS A 135      28.895  35.561   6.690  1.00 35.99     0.618 N 
ENDBRANCH  10  11
ENDBRANCH   9  10
ENDBRANCH   8   9
ENDBRANCH   7   8
END_RES LYS A 135
