REMARK VINA RESULT:    -4.146      4.249      9.237
REMARK INTER + INTRA:         -23.146
REMARK INTER:                 -12.337
REMARK INTRA:                 -10.809
REMARK UNBOUND:               -12.699
REMARK SMILES CC(=O)N[C@@H]1[C@@H](O)C[C@](OC[C@H]2O[C@@H](O[C@H]3[C@H](O)[C@@H](O)[C@H](OCCN=[N+]=[N-])O[C@@H]3CO)[C@H](O)[C@@H](O)[C@H]2O)(C(=O)O)O[C@H]1C(O)[C@H](O)CNC(=O)OCc1cn(Cc2ccc(Br)cc2)nn1
REMARK SMILES IDX 9 1 8 2 6 3 5 4 42 5 41 6 10 7 11 8 12 9 14 10 13 11 32 12
REMARK SMILES IDX 34 13 36 14 15 15 16 16 29 17 28 18 21 19 17 20 19 21 30 22
REMARK SMILES IDX 31 23 22 25 23 26 24 27 25 28 26 29 27 30 18 31 20 33 33 35
REMARK SMILES IDX 35 37 37 39 38 41 39 42 40 43 7 45 43 47 44 48 45 50 46 51
REMARK SMILES IDX 47 53 48 54 49 55 50 57 51 58 52 59 53 60 54 61 65 62 55 63
REMARK SMILES IDX 64 64 56 65 57 66 58 67 63 68 59 69 62 70 60 71 61 72 4 73
REMARK SMILES IDX 2 74 1 76 3 77
REMARK H PARENT 31 24 18 32 20 34 33 36 35 38 37 40 40 44 7 46 44 49 46 52
REMARK H PARENT 48 56 4 75
REMARK Flexibility Score: inf
ROOT
ATOM      1  C   UNL     1      21.142  34.186  12.678  1.00  0.00     0.272 C 
ATOM      2  C   UNL     1      21.905  35.337  13.227  1.00  0.00     0.113 C 
ATOM      3  C   UNL     1      23.325  35.492  12.850  1.00  0.00     0.145 C 
ATOM      4  C   UNL     1      23.982  34.188  12.325  1.00  0.00     0.142 C 
ATOM      5  C   UNL     1      23.209  33.124  13.055  1.00  0.00     0.178 C 
ATOM      6  O   UNL     1      21.973  33.100  12.349  1.00  0.00    -0.332 OA
ENDROOT
BRANCH   1   7
ATOM      7  O   UNL     1      20.155  34.375  11.809  1.00  0.00    -0.338 OA
BRANCH   7   8
ATOM      8  C   UNL     1      19.206  35.213  11.630  1.00  0.00     0.199 C 
BRANCH   8   9
ATOM      9  C   UNL     1      19.135  35.875  10.274  1.00  0.00     0.179 C 
ATOM     10  C   UNL     1      20.127  37.341   8.856  1.00  0.00     0.282 C 
ATOM     11  O   UNL     1      20.042  36.891  10.126  1.00  0.00    -0.341 OA
ATOM     12  C   UNL     1      19.037  36.892   7.900  1.00  0.00     0.202 C 
ATOM     13  C   UNL     1      18.828  35.395   7.955  1.00  0.00     0.179 C 
ATOM     14  C   UNL     1      19.482  34.826   9.206  1.00  0.00     0.177 C 
BRANCH  10  15
ATOM     15  O   UNL     1      21.308  37.197   8.207  1.00  0.00    -0.341 OA
BRANCH  15  16
ATOM     16  C   UNL     1      22.436  37.839   8.542  1.00  0.00     0.184 C 
ATOM     17  C   UNL     1      22.652  39.187   7.935  1.00  0.00     0.178 C 
ATOM     18  O   UNL     1      23.731  39.256   7.096  1.00  0.00    -0.341 OA
ATOM     19  C   UNL     1      24.949  38.981   7.701  1.00  0.00     0.281 C 
ATOM     20  C   UNL     1      23.627  36.962   8.219  1.00  0.00     0.180 C 
ATOM     21  C   UNL     1      24.877  37.734   8.559  1.00  0.00     0.202 C 
BRANCH  17  22
ATOM     22  C   UNL     1      22.722  40.223   9.033  1.00  0.00     0.191 C 
BRANCH  22  23
ATOM     23  O   UNL     1      22.820  41.526   8.504  1.00  0.00    -0.394 OA
ATOM     24  H   UNL     1      23.648  41.958   8.779  1.00  0.00     0.210 HD
ENDBRANCH  22  23
ENDBRANCH  17  22
BRANCH  19  25
ATOM     25  O   UNL     1      25.484  40.045   8.407  1.00  0.00    -0.350 OA
BRANCH  25  26
ATOM     26  C   UNL     1      26.700  40.496   7.967  1.00  0.00     0.169 C 
BRANCH  26  27
ATOM     27  C   UNL     1      27.862  40.032   8.795  1.00  0.00     0.119 C 
BRANCH  27  28
ATOM     28  N   UNL     1      28.460  38.846   8.193  1.00  0.00    -0.092 NA
ATOM     29  N   UNL     1      29.111  38.946   7.156  1.00  0.00     0.001 N 
ATOM     30  N   UNL     1      29.601  38.868   6.006  1.00  0.00    -0.003 NA
ENDBRANCH  27  28
ENDBRANCH  26  27
ENDBRANCH  25  26
ENDBRANCH  19  25
BRANCH  20  31
ATOM     31  O   UNL     1      23.568  35.866   9.102  1.00  0.00    -0.387 OA
ATOM     32  H   UNL     1      23.327  36.182  10.017  1.00  0.00     0.211 HD
ENDBRANCH  20  31
BRANCH  21  33
ATOM     33  O   UNL     1      26.024  36.957   8.442  1.00  0.00    -0.385 OA
ATOM     34  H   UNL     1      26.636  37.431   7.823  1.00  0.00     0.211 HD
ENDBRANCH  21  33
ENDBRANCH  15  16
ENDBRANCH  10  15
BRANCH  12  35
ATOM     35  O   UNL     1      17.824  37.529   8.101  1.00  0.00    -0.385 OA
ATOM     36  H   UNL     1      17.243  37.106   8.774  1.00  0.00     0.211 HD
ENDBRANCH  12  35
BRANCH  13  37
ATOM     37  O   UNL     1      19.282  34.738   6.818  1.00  0.00    -0.387 OA
ATOM     38  H   UNL     1      18.658  33.990   6.648  1.00  0.00     0.211 HD
ENDBRANCH  13  37
BRANCH  14  39
ATOM     39  O   UNL     1      20.877  34.828   9.100  1.00  0.00    -0.387 OA
ATOM     40  H   UNL     1      21.182  33.977   8.729  1.00  0.00     0.211 HD
ENDBRANCH  14  39
ENDBRANCH   8   9
ENDBRANCH   7   8
ENDBRANCH   1   7
BRANCH   1  41
ATOM     41  C   UNL     1      20.379  33.615  13.885  1.00  0.00     0.364 C 
ATOM     42  O   UNL     1      19.817  32.530  13.750  1.00  0.00    -0.246 OA
BRANCH  41  43
ATOM     43  O   UNL     1      20.307  34.264  15.088  1.00  0.00    -0.477 OA
ATOM     44  H   UNL     1      20.751  35.190  15.193  1.00  0.00     0.296 HD
ENDBRANCH  41  43
ENDBRANCH   1  41
BRANCH   3  45
ATOM     45  O   UNL     1      23.634  36.565  12.029  1.00  0.00    -0.391 OA
ATOM     46  H   UNL     1      23.801  37.350  12.593  1.00  0.00     0.211 HD
ENDBRANCH   3  45
BRANCH   5  47
ATOM     47  C   UNL     1      23.780  31.757  13.094  1.00  0.00     0.176 C 
BRANCH  47  48
ATOM     48  O   UNL     1      25.041  31.716  13.589  1.00  0.00    -0.388 OA
ATOM     49  H   UNL     1      25.510  30.903  13.370  1.00  0.00     0.211 HD
ENDBRANCH  47  48
BRANCH  47  50
ATOM     50  C   UNL     1      22.931  30.623  13.491  1.00  0.00     0.165 C 
BRANCH  50  51
ATOM     51  O   UNL     1      21.859  30.415  12.608  1.00  0.00    -0.388 OA
ATOM     52  H   UNL     1      22.042  29.800  11.883  1.00  0.00     0.211 HD
ENDBRANCH  50  51
BRANCH  50  53
ATOM     53  C   UNL     1      22.507  30.472  14.896  1.00  0.00     0.154 C 
BRANCH  53  54
ATOM     54  N   UNL     1      23.543  30.704  15.887  1.00  0.00    -0.319 N 
ATOM     55  C   UNL     1      23.595  31.901  16.647  1.00  0.00     0.407 C 
ATOM     56  H   UNL     1      24.299  30.003  16.092  1.00  0.00     0.167 HD
ATOM     57  O   UNL     1      22.710  32.799  16.476  1.00  0.00    -0.225 OA
BRANCH  55  58
ATOM     58  O   UNL     1      24.581  32.168  17.593  1.00  0.00    -0.443 OA
BRANCH  58  59
ATOM     59  C   UNL     1      25.423  31.105  18.076  1.00  0.00     0.294 C 
BRANCH  59  60
ATOM     60  C   UNL     1      26.621  30.916  17.242  1.00  0.00     0.120 A 
ATOM     61  C   UNL     1      27.903  31.292  17.592  1.00  0.00     0.138 A 
ATOM     62  N   UNL     1      26.697  30.371  16.027  1.00  0.00    -0.132 NA
ATOM     63  N   UNL     1      28.718  30.964  16.582  1.00  0.00    -0.248 N 
ATOM     64  N   UNL     1      27.963  30.412  15.654  1.00  0.00    -0.067 NA
BRANCH  63  65
ATOM     65  C   UNL     1      30.153  31.139  16.487  1.00  0.00     0.181 C 
BRANCH  65  66
ATOM     66  C   UNL     1      30.560  32.391  15.810  1.00  0.00    -0.026 A 
ATOM     67  C   UNL     1      31.571  33.155  16.400  1.00  0.00     0.007 A 
ATOM     68  C   UNL     1      30.022  32.843  14.639  1.00  0.00     0.007 A 
ATOM     69  C   UNL     1      31.998  34.328  15.799  1.00  0.00     0.016 A 
ATOM     70  C   UNL     1      30.443  34.023  14.023  1.00  0.00     0.016 A 
ATOM     71  C   UNL     1      31.434  34.760  14.612  1.00  0.00     0.017 A 
ATOM     72  Br  UNL     1      32.056  36.393  13.805  1.00  0.00    -0.051 Br
ENDBRANCH  65  66
ENDBRANCH  63  65
ENDBRANCH  59  60
ENDBRANCH  58  59
ENDBRANCH  55  58
ENDBRANCH  53  54
ENDBRANCH  50  53
ENDBRANCH  47  50
ENDBRANCH   5  47
BRANCH   4  73
ATOM     73  N   UNL     1      25.382  34.238  12.546  1.00  0.00    -0.348 N 
ATOM     74  C   UNL     1      26.263  34.607  11.500  1.00  0.00     0.217 C 
ATOM     75  H   UNL     1      25.773  34.023  13.478  1.00  0.00     0.163 HD
ATOM     76  C   UNL     1      27.720  34.698  11.616  1.00  0.00     0.114 C 
ATOM     77  O   UNL     1      25.754  34.886  10.357  1.00  0.00    -0.275 OA
ENDBRANCH   4  73
TORSDOF 31
BEGIN_RES LYS A 131
REMARK  4 active torsions:
REMARK  status: ('A' for Active; 'I' for Inactive)
REMARK    1  A    between atoms: CA   and  CB  
REMARK    2  A    between atoms: CB   and  CG  
REMARK    3  A    between atoms: CG   and  CD  
REMARK    4  A    between atoms: CD   and  CE  
ROOT
ATOM      1  CA  LYS A 131      29.867  25.555  16.977  1.00 20.52     0.186 C 
ENDROOT
BRANCH   1   2
ATOM      2  CB  LYS A 131      28.345  25.722  17.026  1.00 20.94     0.034 C 
BRANCH   2   3
ATOM      3  CG  LYS A 131      27.602  24.398  16.930  1.00 22.96     0.005 C 
BRANCH   3   4
ATOM      4  CD  LYS A 131      26.511  24.286  17.959  1.00 24.33     0.041 C 
BRANCH   4   5
ATOM      5  CE  LYS A 131      25.189  24.741  17.350  1.00 26.91     0.338 C 
ATOM      6  NZ  LYS A 131      24.358  23.571  16.980  1.00 27.40     0.618 N 
ENDBRANCH   4   5
ENDBRANCH   3   4
ENDBRANCH   2   3
ENDBRANCH   1   2
END_RES LYS A 131
BEGIN_RES LYS A 135
REMARK  4 active torsions:
REMARK  status: ('A' for Active; 'I' for Inactive)
REMARK    5  A    between atoms: CA   and  CB  
REMARK    6  A    between atoms: CB   and  CG  
REMARK    7  A    between atoms: CG   and  CD  
REMARK    8  A    between atoms: CD   and  CE  
ROOT
ATOM      7  CA  LYS A 135      33.193  34.663   9.290  1.00 25.02     0.186 C 
ENDROOT
BRANCH   7   8
ATOM      8  CB  LYS A 135      32.060  35.360  10.034  1.00 26.63     0.034 C 
BRANCH   8   9
ATOM      9  CG  LYS A 135      30.731  34.662   9.900  1.00 29.45     0.005 C 
BRANCH   9  10
ATOM     10  CD  LYS A 135      30.373  34.467   8.434  1.00 32.00     0.041 C 
BRANCH  10  11
ATOM     11  CE  LYS A 135      29.018  35.076   8.132  1.00 34.25     0.338 C 
ATOM     12  NZ  LYS A 135      28.905  35.447   6.694  1.00 35.99     0.618 N 
ENDBRANCH  10  11
ENDBRANCH   9  10
ENDBRANCH   8   9
ENDBRANCH   7   8
END_RES LYS A 135
