REMARK VINA RESULT:    -4.305      3.980      8.611
REMARK INTER + INTRA:         -21.541
REMARK INTER:                 -10.406
REMARK INTRA:                 -11.135
REMARK UNBOUND:               -10.944
REMARK SMILES CC(=O)N[C@@H]1[C@@H](O)C[C@](OC[C@H]2O[C@@H](O[C@H]3[C@H](O)[C@@H](O)[C@H](OCCN=[N+]=[N-])O[C@@H]3CO)[C@H](O)[C@@H](O)[C@H]2O)(C(=O)O)O[C@H]1C(O)[C@H](O)CNC(=O)OCc1cn(-c2cccnc2)nn1
REMARK SMILES IDX 9 1 8 2 6 3 5 4 42 5 41 6 10 7 11 8 12 9 14 10 13 11 32 12
REMARK SMILES IDX 34 13 36 14 15 15 16 16 29 17 28 18 21 19 17 20 19 21 30 22
REMARK SMILES IDX 31 23 22 25 23 26 24 27 25 28 26 29 27 30 18 31 20 33 33 35
REMARK SMILES IDX 35 37 37 39 38 41 39 42 40 43 7 45 43 47 44 48 45 50 46 51
REMARK SMILES IDX 47 53 48 54 49 55 50 57 51 58 52 59 53 60 54 61 63 62 55 63
REMARK SMILES IDX 62 64 56 65 57 66 61 67 58 68 60 69 59 70 4 71 2 72 1 74
REMARK SMILES IDX 3 75
REMARK H PARENT 31 24 18 32 20 34 33 36 35 38 37 40 40 44 7 46 44 49 46 52
REMARK H PARENT 48 56 4 73
REMARK Flexibility Score: inf
ROOT
ATOM      1  C   UNL     1      30.155  33.183  16.763  1.00  0.00     0.272 C 
ATOM      2  C   UNL     1      31.240  33.728  17.600  1.00  0.00     0.113 C 
ATOM      3  C   UNL     1      32.087  34.703  16.860  1.00  0.00     0.145 C 
ATOM      4  C   UNL     1      31.316  35.625  15.949  1.00  0.00     0.142 C 
ATOM      5  C   UNL     1      29.849  35.388  15.970  1.00  0.00     0.178 C 
ATOM      6  O   UNL     1      29.514  34.044  15.890  1.00  0.00    -0.332 OA
ENDROOT
BRANCH   1   7
ATOM      7  O   UNL     1      29.125  32.632  17.522  1.00  0.00    -0.338 OA
BRANCH   7   8
ATOM      8  C   UNL     1      28.022  32.209  16.852  1.00  0.00     0.199 C 
BRANCH   8   9
ATOM      9  C   UNL     1      26.965  31.841  17.912  1.00  0.00     0.179 C 
ATOM     10  C   UNL     1      25.394  30.970  16.408  1.00  0.00     0.282 C 
ATOM     11  O   UNL     1      25.734  31.886  17.379  1.00  0.00    -0.341 OA
ATOM     12  C   UNL     1      25.898  29.616  16.773  1.00  0.00     0.202 C 
ATOM     13  C   UNL     1      26.136  29.603  18.290  1.00  0.00     0.179 C 
ATOM     14  C   UNL     1      27.304  30.528  18.595  1.00  0.00     0.177 C 
BRANCH  10  15
ATOM     15  O   UNL     1      25.894  31.467  15.206  1.00  0.00    -0.341 OA
BRANCH  15  16
ATOM     16  C   UNL     1      25.066  32.326  14.562  1.00  0.00     0.184 C 
ATOM     17  C   UNL     1      24.505  31.847  13.259  1.00  0.00     0.178 C 
ATOM     18  O   UNL     1      23.310  32.534  13.043  1.00  0.00    -0.341 OA
ATOM     19  C   UNL     1      23.392  33.895  13.316  1.00  0.00     0.281 C 
ATOM     20  C   UNL     1      25.722  33.661  14.224  1.00  0.00     0.180 C 
ATOM     21  C   UNL     1      24.805  34.427  13.261  1.00  0.00     0.202 C 
BRANCH  17  22
ATOM     22  C   UNL     1      24.265  30.388  13.135  1.00  0.00     0.191 C 
BRANCH  22  23
ATOM     23  O   UNL     1      23.146  30.094  12.402  1.00  0.00    -0.394 OA
ATOM     24  H   UNL     1      22.509  29.623  12.999  1.00  0.00     0.210 HD
ENDBRANCH  22  23
ENDBRANCH  17  22
BRANCH  19  25
ATOM     25  O   UNL     1      22.828  34.249  14.508  1.00  0.00    -0.350 OA
BRANCH  25  26
ATOM     26  C   UNL     1      22.447  35.525  14.722  1.00  0.00     0.169 C 
BRANCH  26  27
ATOM     27  C   UNL     1      22.747  36.145  16.041  1.00  0.00     0.119 C 
BRANCH  27  28
ATOM     28  N   UNL     1      24.109  36.438  16.322  1.00  0.00    -0.092 NA
ATOM     29  N   UNL     1      24.484  36.925  17.409  1.00  0.00     0.001 N 
ATOM     30  N   UNL     1      24.673  37.849  18.219  1.00  0.00    -0.003 NA
ENDBRANCH  27  28
ENDBRANCH  26  27
ENDBRANCH  25  26
ENDBRANCH  19  25
BRANCH  20  31
ATOM     31  O   UNL     1      25.828  34.426  15.377  1.00  0.00    -0.387 OA
ATOM     32  H   UNL     1      26.502  34.070  16.015  1.00  0.00     0.211 HD
ENDBRANCH  20  31
BRANCH  21  33
ATOM     33  O   UNL     1      25.290  34.396  11.955  1.00  0.00    -0.385 OA
ATOM     34  H   UNL     1      25.892  33.617  11.868  1.00  0.00     0.211 HD
ENDBRANCH  21  33
ENDBRANCH  15  16
ENDBRANCH  10  15
BRANCH  12  35
ATOM     35  O   UNL     1      24.873  28.668  16.588  1.00  0.00    -0.385 OA
ATOM     36  H   UNL     1      24.033  29.162  16.343  1.00  0.00     0.211 HD
ENDBRANCH  12  35
BRANCH  13  37
ATOM     37  O   UNL     1      26.315  28.340  18.791  1.00  0.00    -0.387 OA
ATOM     38  H   UNL     1      26.333  28.369  19.780  1.00  0.00     0.211 HD
ENDBRANCH  13  37
BRANCH  14  39
ATOM     39  O   UNL     1      28.500  29.987  18.167  1.00  0.00    -0.387 OA
ATOM     40  H   UNL     1      28.948  30.665  17.593  1.00  0.00     0.211 HD
ENDBRANCH  14  39
ENDBRANCH   8   9
ENDBRANCH   7   8
ENDBRANCH   1   7
BRANCH   1  41
ATOM     41  C   UNL     1      30.752  32.047  15.956  1.00  0.00     0.364 C 
ATOM     42  O   UNL     1      30.760  30.909  16.452  1.00  0.00    -0.246 OA
BRANCH  41  43
ATOM     43  O   UNL     1      31.284  32.223  14.702  1.00  0.00    -0.477 OA
ATOM     44  H   UNL     1      30.874  31.883  13.841  1.00  0.00     0.296 HD
ENDBRANCH  41  43
ENDBRANCH   1  41
BRANCH   3  45
ATOM     45  O   UNL     1      32.777  35.453  17.841  1.00  0.00    -0.391 OA
ATOM     46  H   UNL     1      33.730  35.246  17.862  1.00  0.00     0.211 HD
ENDBRANCH   3  45
BRANCH   5  47
ATOM     47  C   UNL     1      29.093  36.094  17.045  1.00  0.00     0.176 C 
BRANCH  47  48
ATOM     48  O   UNL     1      27.713  35.831  16.842  1.00  0.00    -0.388 OA
ATOM     49  H   UNL     1      27.202  36.227  17.600  1.00  0.00     0.211 HD
ENDBRANCH  47  48
BRANCH  47  50
ATOM     50  C   UNL     1      29.221  37.583  17.095  1.00  0.00     0.165 C 
BRANCH  50  51
ATOM     51  O   UNL     1      28.742  37.878  18.443  1.00  0.00    -0.388 OA
ATOM     52  H   UNL     1      27.877  37.406  18.506  1.00  0.00     0.211 HD
ENDBRANCH  50  51
BRANCH  50  53
ATOM     53  C   UNL     1      28.258  38.348  16.246  1.00  0.00     0.154 C 
BRANCH  53  54
ATOM     54  N   UNL     1      28.540  38.420  14.849  1.00  0.00    -0.319 N 
ATOM     55  C   UNL     1      27.658  37.716  13.947  1.00  0.00     0.407 C 
ATOM     56  H   UNL     1      29.294  38.934  14.405  1.00  0.00     0.167 HD
ATOM     57  O   UNL     1      26.698  37.087  14.438  1.00  0.00    -0.225 OA
BRANCH  55  58
ATOM     58  O   UNL     1      27.856  37.727  12.589  1.00  0.00    -0.443 OA
BRANCH  58  59
ATOM     59  C   UNL     1      27.126  38.614  11.779  1.00  0.00     0.294 C 
BRANCH  59  60
ATOM     60  C   UNL     1      26.186  37.836  10.945  1.00  0.00     0.121 A 
ATOM     61  C   UNL     1      24.876  38.109  10.622  1.00  0.00     0.144 A 
ATOM     62  N   UNL     1      26.465  36.655  10.318  1.00  0.00    -0.131 NA
ATOM     63  N   UNL     1      24.402  37.129   9.836  1.00  0.00    -0.219 N 
ATOM     64  N   UNL     1      25.387  36.265   9.671  1.00  0.00    -0.062 NA
BRANCH  63  65
ATOM     65  C   UNL     1      23.121  36.950   9.239  1.00  0.00     0.085 A 
ATOM     66  C   UNL     1      22.666  35.722   8.808  1.00  0.00     0.031 A 
ATOM     67  C   UNL     1      22.266  38.021   9.057  1.00  0.00     0.139 A 
ATOM     68  C   UNL     1      21.426  35.575   8.228  1.00  0.00     0.022 A 
ATOM     69  N   UNL     1      21.047  37.863   8.484  1.00  0.00    -0.262 NA
ATOM     70  C   UNL     1      20.604  36.665   8.063  1.00  0.00     0.111 A 
ENDBRANCH  63  65
ENDBRANCH  59  60
ENDBRANCH  58  59
ENDBRANCH  55  58
ENDBRANCH  53  54
ENDBRANCH  50  53
ENDBRANCH  47  50
ENDBRANCH   5  47
BRANCH   4  71
ATOM     71  N   UNL     1      31.814  35.530  14.580  1.00  0.00    -0.348 N 
ATOM     72  C   UNL     1      31.824  36.611  13.665  1.00  0.00     0.217 C 
ATOM     73  H   UNL     1      32.196  34.615  14.215  1.00  0.00     0.163 HD
ATOM     74  C   UNL     1      32.339  36.462  12.267  1.00  0.00     0.114 C 
ATOM     75  O   UNL     1      31.392  37.742  14.015  1.00  0.00    -0.275 OA
ENDBRANCH   4  71
TORSDOF 30
BEGIN_RES LYS A 131
REMARK  4 active torsions:
REMARK  status: ('A' for Active; 'I' for Inactive)
REMARK    1  A    between atoms: CA   and  CB  
REMARK    2  A    between atoms: CB   and  CG  
REMARK    3  A    between atoms: CG   and  CD  
REMARK    4  A    between atoms: CD   and  CE  
ROOT
ATOM      1  CA  LYS A 131      29.867  25.555  16.977  1.00 20.52     0.186 C 
ENDROOT
BRANCH   1   2
ATOM      2  CB  LYS A 131      28.345  25.722  17.026  1.00 20.94     0.034 C 
BRANCH   2   3
ATOM      3  CG  LYS A 131      27.602  24.400  16.912  1.00 22.96     0.005 C 
BRANCH   3   4
ATOM      4  CD  LYS A 131      26.619  24.204  18.033  1.00 24.33     0.041 C 
BRANCH   4   5
ATOM      5  CE  LYS A 131      25.600  23.140  17.637  1.00 26.91     0.338 C 
ATOM      6  NZ  LYS A 131      24.446  23.760  16.944  1.00 27.40     0.618 N 
ENDBRANCH   4   5
ENDBRANCH   3   4
ENDBRANCH   2   3
ENDBRANCH   1   2
END_RES LYS A 131
BEGIN_RES LYS A 135
REMARK  4 active torsions:
REMARK  status: ('A' for Active; 'I' for Inactive)
REMARK    5  A    between atoms: CA   and  CB  
REMARK    6  A    between atoms: CB   and  CG  
REMARK    7  A    between atoms: CG   and  CD  
REMARK    8  A    between atoms: CD   and  CE  
ROOT
ATOM      7  CA  LYS A 135      33.193  34.663   9.290  1.00 25.02     0.186 C 
ENDROOT
BRANCH   7   8
ATOM      8  CB  LYS A 135      32.060  35.360  10.034  1.00 26.63     0.034 C 
BRANCH   8   9
ATOM      9  CG  LYS A 135      30.796  35.487   9.224  1.00 29.45     0.005 C 
BRANCH   9  10
ATOM     10  CD  LYS A 135      30.138  34.128   9.038  1.00 32.00     0.041 C 
BRANCH  10  11
ATOM     11  CE  LYS A 135      28.675  34.290   8.675  1.00 34.25     0.338 C 
ATOM     12  NZ  LYS A 135      27.800  33.567   9.639  1.00 35.99     0.618 N 
ENDBRANCH  10  11
ENDBRANCH   9  10
ENDBRANCH   8   9
ENDBRANCH   7   8
END_RES LYS A 135
