REMARK VINA RESULT:    -4.724      6.542     13.607
REMARK INTER + INTRA:         -24.480
REMARK INTER:                 -10.920
REMARK INTRA:                 -13.560
REMARK UNBOUND:               -11.748
REMARK SMILES CC(=O)N[C@@H]1[C@@H](O)C[C@](OC[C@H]2O[C@@H](O[C@H]3[C@H](O)[C@@H](O)[C@H](OCCN=[N+]=[N-])O[C@@H]3CO)[C@H](O)[C@@H](O)[C@H]2O)(C(=O)O)O[C@H]1C(O)[C@H](O)CNC(=O)OCc1cn([C@@H](C)C(=O)OCc2ccccc2)nn1
REMARK SMILES IDX 43 1 42 2 9 3 8 4 41 5 6 6 5 7 10 8 11 9 12 10 14 11 13 12
REMARK SMILES IDX 32 13 34 14 36 15 15 16 16 17 29 18 28 19 21 20 17 21 19 22
REMARK SMILES IDX 30 23 31 24 22 26 23 27 24 28 25 29 26 30 27 31 18 32 20 34
REMARK SMILES IDX 33 36 35 38 37 40 38 42 39 43 40 44 7 46 4 48 2 49 1 51 3 52
REMARK SMILES IDX 44 53 45 55 46 56 47 58 48 59 49 60 50 62 51 63 52 64 53 65
REMARK SMILES IDX 54 66 69 67 55 68 68 69 56 70 57 71 58 72 59 73 60 74 61 75
REMARK SMILES IDX 62 76 63 77 67 78 64 79 66 80 65 81
REMARK H PARENT 31 25 18 33 20 35 33 37 35 39 37 41 40 45 7 47 4 50 44 54
REMARK H PARENT 46 57 48 61
REMARK Flexibility Score: inf
ROOT
ATOM      1  C   UNL     1      26.585  39.869   6.458  1.00  0.00     0.176 C 
ENDROOT
BRANCH   1   2
ATOM      2  C   UNL     1      26.858  38.917   7.555  1.00  0.00     0.178 C 
ATOM      3  C   UNL     1      29.122  38.431   7.265  1.00  0.00     0.272 C 
ATOM      4  C   UNL     1      28.753  37.041   6.916  1.00  0.00     0.113 C 
ATOM      5  O   UNL     1      28.104  38.983   8.121  1.00  0.00    -0.332 OA
ATOM      6  C   UNL     1      27.392  36.915   6.273  1.00  0.00     0.145 C 
ATOM      7  C   UNL     1      26.385  37.532   7.195  1.00  0.00     0.142 C 
BRANCH   3   8
ATOM      8  O   UNL     1      29.326  39.339   6.345  1.00  0.00    -0.338 OA
BRANCH   8   9
ATOM      9  C   UNL     1      30.369  39.690   5.652  1.00  0.00     0.199 C 
BRANCH   9  10
ATOM     10  C   UNL     1      31.099  40.988   5.855  1.00  0.00     0.179 C 
ATOM     11  C   UNL     1      31.275  42.661   7.463  1.00  0.00     0.282 C 
ATOM     12  O   UNL     1      30.481  41.702   6.838  1.00  0.00    -0.341 OA
ATOM     13  C   UNL     1      32.426  43.089   6.626  1.00  0.00     0.202 C 
ATOM     14  C   UNL     1      33.357  41.938   6.357  1.00  0.00     0.179 C 
ATOM     15  C   UNL     1      32.567  40.685   6.224  1.00  0.00     0.177 C 
BRANCH  11  16
ATOM     16  O   UNL     1      31.556  42.194   8.717  1.00  0.00    -0.341 OA
BRANCH  16  17
ATOM     17  C   UNL     1      31.014  42.903   9.748  1.00  0.00     0.184 C 
ATOM     18  C   UNL     1      31.395  42.253  11.054  1.00  0.00     0.178 C 
ATOM     19  O   UNL     1      30.722  42.877  12.111  1.00  0.00    -0.341 OA
ATOM     20  C   UNL     1      29.449  42.254  12.142  1.00  0.00     0.281 C 
ATOM     21  C   UNL     1      29.496  42.946   9.703  1.00  0.00     0.180 C 
ATOM     22  C   UNL     1      28.814  42.200  10.788  1.00  0.00     0.202 C 
BRANCH  18  23
ATOM     23  C   UNL     1      32.872  42.176  11.301  1.00  0.00     0.191 C 
BRANCH  23  24
ATOM     24  O   UNL     1      33.481  43.001  10.350  1.00  0.00    -0.394 OA
ATOM     25  H   UNL     1      33.477  42.612   9.443  1.00  0.00     0.210 HD
ENDBRANCH  23  24
ENDBRANCH  18  23
BRANCH  20  26
ATOM     26  O   UNL     1      28.707  42.879  13.093  1.00  0.00    -0.350 OA
BRANCH  26  27
ATOM     27  C   UNL     1      28.625  44.232  13.085  1.00  0.00     0.169 C 
BRANCH  27  28
ATOM     28  C   UNL     1      27.295  44.853  13.320  1.00  0.00     0.119 C 
BRANCH  28  29
ATOM     29  N   UNL     1      26.187  44.314  12.617  1.00  0.00    -0.092 NA
ATOM     30  N   UNL     1      26.068  44.414  11.402  1.00  0.00     0.001 N 
ATOM     31  N   UNL     1      25.973  44.331  10.163  1.00  0.00    -0.003 NA
ENDBRANCH  28  29
ENDBRANCH  27  28
ENDBRANCH  26  27
ENDBRANCH  20  26
BRANCH  21  32
ATOM     32  O   UNL     1      29.025  44.263   9.696  1.00  0.00    -0.387 OA
ATOM     33  H   UNL     1      29.715  44.918   9.450  1.00  0.00     0.211 HD
ENDBRANCH  21  32
BRANCH  22  34
ATOM     34  O   UNL     1      28.553  40.894  10.359  1.00  0.00    -0.385 OA
ATOM     35  H   UNL     1      28.144  40.419  11.132  1.00  0.00     0.211 HD
ENDBRANCH  22  34
ENDBRANCH  16  17
ENDBRANCH  11  16
BRANCH  13  36
ATOM     36  O   UNL     1      31.920  43.620   5.415  1.00  0.00    -0.385 OA
ATOM     37  H   UNL     1      32.001  42.863   4.759  1.00  0.00     0.211 HD
ENDBRANCH  13  36
BRANCH  14  38
ATOM     38  O   UNL     1      34.308  41.893   7.356  1.00  0.00    -0.387 OA
ATOM     39  H   UNL     1      34.005  42.348   8.189  1.00  0.00     0.211 HD
ENDBRANCH  14  38
BRANCH  15  40
ATOM     40  O   UNL     1      32.651  39.875   7.348  1.00  0.00    -0.387 OA
ATOM     41  H   UNL     1      33.203  39.063   7.127  1.00  0.00     0.211 HD
ENDBRANCH  15  40
ENDBRANCH   9  10
ENDBRANCH   8   9
ENDBRANCH   3   8
BRANCH   3  42
ATOM     42  C   UNL     1      30.251  38.358   8.275  1.00  0.00     0.364 C 
ATOM     43  O   UNL     1      30.384  39.212   9.162  1.00  0.00    -0.246 OA
BRANCH  42  44
ATOM     44  O   UNL     1      31.177  37.317   8.232  1.00  0.00    -0.477 OA
ATOM     45  H   UNL     1      31.848  37.190   7.481  1.00  0.00     0.296 HD
ENDBRANCH  42  44
ENDBRANCH   3  42
BRANCH   6  46
ATOM     46  O   UNL     1      27.346  37.451   4.989  1.00  0.00    -0.391 OA
ATOM     47  H   UNL     1      26.521  37.986   4.935  1.00  0.00     0.211 HD
ENDBRANCH   6  46
BRANCH   7  48
ATOM     48  N   UNL     1      26.256  36.689   8.376  1.00  0.00    -0.348 N 
ATOM     49  C   UNL     1      24.942  36.357   8.835  1.00  0.00     0.217 C 
ATOM     50  H   UNL     1      27.065  36.312   8.909  1.00  0.00     0.163 HD
ATOM     51  C   UNL     1      24.810  35.493  10.046  1.00  0.00     0.114 C 
ATOM     52  O   UNL     1      23.928  36.789   8.224  1.00  0.00    -0.275 OA
ENDBRANCH   7  48
ENDBRANCH   1   2
BRANCH   1  53
ATOM     53  O   UNL     1      25.227  39.739   6.077  1.00  0.00    -0.388 OA
ATOM     54  H   UNL     1      25.047  40.277   5.257  1.00  0.00     0.211 HD
ENDBRANCH   1  53
BRANCH   1  55
ATOM     55  C   UNL     1      26.700  41.343   6.879  1.00  0.00     0.165 C 
BRANCH  55  56
ATOM     56  O   UNL     1      27.883  41.620   7.489  1.00  0.00    -0.388 OA
ATOM     57  H   UNL     1      28.119  40.922   8.145  1.00  0.00     0.211 HD
ENDBRANCH  55  56
BRANCH  55  58
ATOM     58  C   UNL     1      25.470  41.789   7.602  1.00  0.00     0.154 C 
BRANCH  58  59
ATOM     59  N   UNL     1      25.549  41.456   8.997  1.00  0.00    -0.319 N 
ATOM     60  C   UNL     1      24.751  40.501   9.671  1.00  0.00     0.407 C 
ATOM     61  H   UNL     1      26.260  41.946   9.627  1.00  0.00     0.167 HD
ATOM     62  O   UNL     1      23.874  39.869   9.078  1.00  0.00    -0.225 OA
BRANCH  60  63
ATOM     63  O   UNL     1      24.931  40.243  11.039  1.00  0.00    -0.443 OA
BRANCH  63  64
ATOM     64  C   UNL     1      25.020  38.936  11.547  1.00  0.00     0.294 C 
BRANCH  64  65
ATOM     65  C   UNL     1      26.440  38.679  11.880  1.00  0.00     0.120 A 
ATOM     66  C   UNL     1      27.130  39.053  13.011  1.00  0.00     0.139 A 
ATOM     67  N   UNL     1      27.310  38.023  11.104  1.00  0.00    -0.132 NA
ATOM     68  N   UNL     1      28.414  38.615  12.896  1.00  0.00    -0.238 N 
ATOM     69  N   UNL     1      28.493  37.995  11.734  1.00  0.00    -0.066 NA
BRANCH  68  70
ATOM     70  C   UNL     1      29.403  38.858  13.917  1.00  0.00     0.215 C 
ATOM     71  C   UNL     1      29.135  38.019  15.153  1.00  0.00     0.046 C 
BRANCH  70  72
ATOM     72  C   UNL     1      30.784  38.554  13.395  1.00  0.00     0.331 C 
ATOM     73  O   UNL     1      31.225  39.215  12.440  1.00  0.00    -0.250 OA
BRANCH  72  74
ATOM     74  O   UNL     1      31.560  37.566  13.955  1.00  0.00    -0.459 OA
BRANCH  74  75
ATOM     75  C   UNL     1      31.991  36.404  13.291  1.00  0.00     0.268 C 
BRANCH  75  76
ATOM     76  C   UNL     1      31.548  35.151  13.938  1.00  0.00    -0.011 A 
ATOM     77  C   UNL     1      32.355  34.437  14.785  1.00  0.00     0.007 A 
ATOM     78  C   UNL     1      30.288  34.663  13.697  1.00  0.00     0.007 A 
ATOM     79  C   UNL     1      31.947  33.268  15.387  1.00  0.00     0.000 A 
ATOM     80  C   UNL     1      29.836  33.500  14.277  1.00  0.00     0.000 A 
ATOM     81  C   UNL     1      30.683  32.802  15.130  1.00  0.00     0.000 A 
ENDBRANCH  75  76
ENDBRANCH  74  75
ENDBRANCH  72  74
ENDBRANCH  70  72
ENDBRANCH  68  70
ENDBRANCH  64  65
ENDBRANCH  63  64
ENDBRANCH  60  63
ENDBRANCH  58  59
ENDBRANCH  55  58
ENDBRANCH   1  55
TORSDOF 34
BEGIN_RES LYS A 131
REMARK  4 active torsions:
REMARK  status: ('A' for Active; 'I' for Inactive)
REMARK    1  A    between atoms: CA   and  CB  
REMARK    2  A    between atoms: CB   and  CG  
REMARK    3  A    between atoms: CG   and  CD  
REMARK    4  A    between atoms: CD   and  CE  
ROOT
ATOM      1  CA  LYS A 131      29.867  25.555  16.977  1.00 20.52     0.186 C 
ENDROOT
BRANCH   1   2
ATOM      2  CB  LYS A 131      28.345  25.722  17.026  1.00 20.94     0.034 C 
BRANCH   2   3
ATOM      3  CG  LYS A 131      27.599  24.418  16.785  1.00 22.96     0.005 C 
BRANCH   3   4
ATOM      4  CD  LYS A 131      26.905  23.926  18.024  1.00 24.33     0.041 C 
BRANCH   4   5
ATOM      5  CE  LYS A 131      25.989  25.020  18.564  1.00 26.91     0.338 C 
ATOM      6  NZ  LYS A 131      24.795  25.170  17.700  1.00 27.40     0.618 N 
ENDBRANCH   4   5
ENDBRANCH   3   4
ENDBRANCH   2   3
ENDBRANCH   1   2
END_RES LYS A 131
BEGIN_RES LYS A 135
REMARK  4 active torsions:
REMARK  status: ('A' for Active; 'I' for Inactive)
REMARK    5  A    between atoms: CA   and  CB  
REMARK    6  A    between atoms: CB   and  CG  
REMARK    7  A    between atoms: CG   and  CD  
REMARK    8  A    between atoms: CD   and  CE  
ROOT
ATOM      7  CA  LYS A 135      33.193  34.663   9.290  1.00 25.02     0.186 C 
ENDROOT
BRANCH   7   8
ATOM      8  CB  LYS A 135      32.060  35.360  10.034  1.00 26.63     0.034 C 
BRANCH   8   9
ATOM      9  CG  LYS A 135      30.860  34.479  10.267  1.00 29.45     0.005 C 
BRANCH   9  10
ATOM     10  CD  LYS A 135      30.202  34.108   8.946  1.00 32.00     0.041 C 
BRANCH  10  11
ATOM     11  CE  LYS A 135      28.693  34.083   9.092  1.00 34.25     0.338 C 
ATOM     12  NZ  LYS A 135      28.281  34.453  10.475  1.00 35.99     0.618 N 
ENDBRANCH  10  11
ENDBRANCH   9  10
ENDBRANCH   8   9
ENDBRANCH   7   8
END_RES LYS A 135
