REMARK VINA RESULT:    -5.244      4.588      9.275
REMARK INTER + INTRA:         -22.031
REMARK INTER:                 -10.223
REMARK INTRA:                 -11.807
REMARK UNBOUND:                -9.122
REMARK SMILES CC(=O)N[C@@H]1[C@@H](O)C[C@](OC[C@H]2O[C@@H](O[C@H]3[C@H](O)[C@@H](O)[C@H](OCCN=[N+]=[N-])O[C@@H]3CO)[C@H](O)[C@@H](O)[C@H]2O)(C(=O)O)O[C@H]1C(O)[C@H](O)CNC(=O)OCc1cn(-c2ccc(Cl)cc2)nn1
REMARK SMILES IDX 9 1 8 2 6 3 5 4 42 5 41 6 10 7 11 8 12 9 14 10 13 11 32 12
REMARK SMILES IDX 34 13 36 14 15 15 16 16 29 17 28 18 21 19 17 20 19 21 30 22
REMARK SMILES IDX 31 23 22 25 23 26 24 27 25 28 26 29 27 30 18 31 20 33 33 35
REMARK SMILES IDX 35 37 37 39 38 41 39 42 40 43 7 45 43 47 44 48 45 50 46 51
REMARK SMILES IDX 47 53 48 54 49 55 50 57 51 58 52 59 53 60 54 61 64 62 55 63
REMARK SMILES IDX 63 64 56 65 57 66 62 67 58 68 61 69 59 70 60 71 4 72 2 73
REMARK SMILES IDX 1 75 3 76
REMARK H PARENT 31 24 18 32 20 34 33 36 35 38 37 40 40 44 7 46 44 49 46 52
REMARK H PARENT 48 56 4 74
REMARK Flexibility Score: inf
ROOT
ATOM      1  C   UNL     1      29.106  32.143  17.958  1.00  0.00     0.272 C 
ATOM      2  C   UNL     1      30.194  32.392  18.920  1.00  0.00     0.113 C 
ATOM      3  C   UNL     1      30.888  33.692  18.921  1.00  0.00     0.145 C 
ATOM      4  C   UNL     1      30.189  34.663  17.994  1.00  0.00     0.142 C 
ATOM      5  C   UNL     1      29.934  33.853  16.704  1.00  0.00     0.178 C 
ATOM      6  O   UNL     1      28.757  33.138  17.083  1.00  0.00    -0.332 OA
ENDROOT
BRANCH   1   7
ATOM      7  O   UNL     1      27.955  31.787  18.715  1.00  0.00    -0.338 OA
BRANCH   7   8
ATOM      8  C   UNL     1      28.182  31.742  20.063  1.00  0.00     0.199 C 
BRANCH   8   9
ATOM      9  C   UNL     1      27.444  30.582  20.725  1.00  0.00     0.179 C 
ATOM     10  C   UNL     1      26.737  28.518  19.844  1.00  0.00     0.282 C 
ATOM     11  O   UNL     1      26.650  29.911  19.851  1.00  0.00    -0.341 OA
ATOM     12  C   UNL     1      28.122  28.146  19.520  1.00  0.00     0.202 C 
ATOM     13  C   UNL     1      29.057  28.691  20.591  1.00  0.00     0.179 C 
ATOM     14  C   UNL     1      28.393  29.685  21.489  1.00  0.00     0.177 C 
BRANCH  10  15
ATOM     15  O   UNL     1      25.747  28.141  18.938  1.00  0.00    -0.341 OA
BRANCH  15  16
ATOM     16  C   UNL     1      24.913  29.081  18.508  1.00  0.00     0.184 C 
ATOM     17  C   UNL     1      23.480  28.810  18.798  1.00  0.00     0.178 C 
ATOM     18  O   UNL     1      22.703  29.949  18.612  1.00  0.00    -0.341 OA
ATOM     19  C   UNL     1      22.729  30.482  17.363  1.00  0.00     0.281 C 
ATOM     20  C   UNL     1      24.981  29.355  16.991  1.00  0.00     0.180 C 
ATOM     21  C   UNL     1      23.655  29.758  16.454  1.00  0.00     0.202 C 
BRANCH  17  22
ATOM     22  C   UNL     1      23.156  28.225  20.136  1.00  0.00     0.191 C 
BRANCH  22  23
ATOM     23  O   UNL     1      23.791  28.901  21.178  1.00  0.00    -0.394 OA
ATOM     24  H   UNL     1      23.112  29.227  21.814  1.00  0.00     0.210 HD
ENDBRANCH  22  23
ENDBRANCH  17  22
BRANCH  19  25
ATOM     25  O   UNL     1      23.138  31.819  17.414  1.00  0.00    -0.350 OA
BRANCH  25  26
ATOM     26  C   UNL     1      23.184  32.290  18.717  1.00  0.00     0.169 C 
BRANCH  26  27
ATOM     27  C   UNL     1      24.507  32.878  19.103  1.00  0.00     0.119 C 
BRANCH  27  28
ATOM     28  N   UNL     1      25.202  33.214  17.862  1.00  0.00    -0.092 NA
ATOM     29  N   UNL     1      25.642  34.376  17.797  1.00  0.00     0.001 N 
ATOM     30  N   UNL     1      26.387  35.379  17.833  1.00  0.00    -0.003 NA
ENDBRANCH  27  28
ENDBRANCH  26  27
ENDBRANCH  25  26
ENDBRANCH  19  25
BRANCH  20  31
ATOM     31  O   UNL     1      25.887  30.387  16.820  1.00  0.00    -0.387 OA
ATOM     32  H   UNL     1      25.914  30.576  15.828  1.00  0.00     0.211 HD
ENDBRANCH  20  31
BRANCH  21  33
ATOM     33  O   UNL     1      22.972  28.687  15.843  1.00  0.00    -0.385 OA
ATOM     34  H   UNL     1      22.523  29.080  15.062  1.00  0.00     0.211 HD
ENDBRANCH  21  33
ENDBRANCH  15  16
ENDBRANCH  10  15
BRANCH  12  35
ATOM     35  O   UNL     1      28.365  26.776  19.399  1.00  0.00    -0.385 OA
ATOM     36  H   UNL     1      29.339  26.562  19.566  1.00  0.00     0.211 HD
ENDBRANCH  12  35
BRANCH  13  37
ATOM     37  O   UNL     1      30.197  29.184  19.959  1.00  0.00    -0.387 OA
ATOM     38  H   UNL     1      30.063  30.001  19.455  1.00  0.00     0.211 HD
ENDBRANCH  13  37
BRANCH  14  39
ATOM     39  O   UNL     1      29.368  30.558  22.031  1.00  0.00    -0.387 OA
ATOM     40  H   UNL     1      30.158  30.474  21.469  1.00  0.00     0.211 HD
ENDBRANCH  14  39
ENDBRANCH   8   9
ENDBRANCH   7   8
ENDBRANCH   1   7
BRANCH   1  41
ATOM     41  C   UNL     1      29.444  30.909  17.161  1.00  0.00     0.364 C 
ATOM     42  O   UNL     1      28.590  30.320  16.462  1.00  0.00    -0.246 OA
BRANCH  41  43
ATOM     43  O   UNL     1      30.724  30.415  17.202  1.00  0.00    -0.477 OA
ATOM     44  H   UNL     1      30.959  29.474  17.510  1.00  0.00     0.296 HD
ENDBRANCH  41  43
ENDBRANCH   1  41
BRANCH   3  45
ATOM     45  O   UNL     1      30.879  34.272  20.189  1.00  0.00    -0.391 OA
ATOM     46  H   UNL     1      31.421  33.716  20.780  1.00  0.00     0.211 HD
ENDBRANCH   3  45
BRANCH   5  47
ATOM     47  C   UNL     1      29.607  34.707  15.533  1.00  0.00     0.176 C 
BRANCH  47  48
ATOM     48  O   UNL     1      28.762  35.719  15.966  1.00  0.00    -0.388 OA
ATOM     49  H   UNL     1      29.135  36.630  15.878  1.00  0.00     0.211 HD
ENDBRANCH  47  48
BRANCH  47  50
ATOM     50  C   UNL     1      30.687  35.230  14.685  1.00  0.00     0.165 C 
BRANCH  50  51
ATOM     51  O   UNL     1      30.597  36.664  14.819  1.00  0.00    -0.388 OA
ATOM     52  H   UNL     1      31.465  37.074  14.595  1.00  0.00     0.211 HD
ENDBRANCH  50  51
BRANCH  50  53
ATOM     53  C   UNL     1      30.437  35.038  13.197  1.00  0.00     0.154 C 
BRANCH  53  54
ATOM     54  N   UNL     1      29.073  34.733  12.862  1.00  0.00    -0.319 N 
ATOM     55  C   UNL     1      28.216  35.788  12.456  1.00  0.00     0.407 C 
ATOM     56  H   UNL     1      28.672  33.766  12.906  1.00  0.00     0.167 HD
ATOM     57  O   UNL     1      28.615  36.990  12.395  1.00  0.00    -0.225 OA
BRANCH  55  58
ATOM     58  O   UNL     1      26.902  35.538  12.108  1.00  0.00    -0.443 OA
BRANCH  58  59
ATOM     59  C   UNL     1      25.838  35.607  13.061  1.00  0.00     0.294 C 
BRANCH  59  60
ATOM     60  C   UNL     1      25.380  34.234  13.421  1.00  0.00     0.121 A 
ATOM     61  C   UNL     1      24.341  33.550  12.806  1.00  0.00     0.144 A 
ATOM     62  N   UNL     1      25.865  33.425  14.373  1.00  0.00    -0.131 NA
ATOM     63  N   UNL     1      24.228  32.355  13.401  1.00  0.00    -0.220 N 
ATOM     64  N   UNL     1      25.144  32.308  14.326  1.00  0.00    -0.062 NA
BRANCH  63  65
ATOM     65  C   UNL     1      23.249  31.390  13.011  1.00  0.00     0.066 A 
ATOM     66  C   UNL     1      23.587  30.077  12.799  1.00  0.00     0.030 A 
ATOM     67  C   UNL     1      21.943  31.759  12.841  1.00  0.00     0.030 A 
ATOM     68  C   UNL     1      22.653  29.111  12.418  1.00  0.00     0.023 A 
ATOM     69  C   UNL     1      20.995  30.820  12.462  1.00  0.00     0.023 A 
ATOM     70  C   UNL     1      21.348  29.487  12.248  1.00  0.00     0.041 A 
ATOM     71  Cl  UNL     1      20.130  28.302  11.766  1.00  0.00    -0.084 Cl
ENDBRANCH  63  65
ENDBRANCH  59  60
ENDBRANCH  58  59
ENDBRANCH  55  58
ENDBRANCH  53  54
ENDBRANCH  50  53
ENDBRANCH  47  50
ENDBRANCH   5  47
BRANCH   4  72
ATOM     72  N   UNL     1      30.941  35.846  17.813  1.00  0.00    -0.348 N 
ATOM     73  C   UNL     1      30.570  37.042  18.522  1.00  0.00     0.217 C 
ATOM     74  H   UNL     1      31.773  35.935  17.207  1.00  0.00     0.163 HD
ATOM     75  C   UNL     1      31.342  38.306  18.355  1.00  0.00     0.114 C 
ATOM     76  O   UNL     1      29.575  36.994  19.290  1.00  0.00    -0.275 OA
ENDBRANCH   4  72
TORSDOF 30
BEGIN_RES LYS A 131
REMARK  4 active torsions:
REMARK  status: ('A' for Active; 'I' for Inactive)
REMARK    1  A    between atoms: CA   and  CB  
REMARK    2  A    between atoms: CB   and  CG  
REMARK    3  A    between atoms: CG   and  CD  
REMARK    4  A    between atoms: CD   and  CE  
ROOT
ATOM      1  CA  LYS A 131      29.867  25.555  16.977  1.00 20.52     0.186 C 
ENDROOT
BRANCH   1   2
ATOM      2  CB  LYS A 131      28.345  25.722  17.026  1.00 20.94     0.034 C 
BRANCH   2   3
ATOM      3  CG  LYS A 131      27.599  24.479  16.566  1.00 22.96     0.005 C 
BRANCH   3   4
ATOM      4  CD  LYS A 131      26.987  23.728  17.716  1.00 24.33     0.041 C 
BRANCH   4   5
ATOM      5  CE  LYS A 131      25.475  23.657  17.530  1.00 26.91     0.338 C 
ATOM      6  NZ  LYS A 131      24.875  22.722  18.511  1.00 27.40     0.618 N 
ENDBRANCH   4   5
ENDBRANCH   3   4
ENDBRANCH   2   3
ENDBRANCH   1   2
END_RES LYS A 131
BEGIN_RES LYS A 135
REMARK  4 active torsions:
REMARK  status: ('A' for Active; 'I' for Inactive)
REMARK    5  A    between atoms: CA   and  CB  
REMARK    6  A    between atoms: CB   and  CG  
REMARK    7  A    between atoms: CG   and  CD  
REMARK    8  A    between atoms: CD   and  CE  
ROOT
ATOM      7  CA  LYS A 135      33.193  34.663   9.290  1.00 25.02     0.186 C 
ENDROOT
BRANCH   7   8
ATOM      8  CB  LYS A 135      32.060  35.360  10.034  1.00 26.63     0.034 C 
BRANCH   8   9
ATOM      9  CG  LYS A 135      30.694  34.825   9.690  1.00 29.45     0.005 C 
BRANCH   9  10
ATOM     10  CD  LYS A 135      30.604  34.497   8.207  1.00 32.00     0.041 C 
BRANCH  10  11
ATOM     11  CE  LYS A 135      29.301  35.013   7.627  1.00 34.25     0.338 C 
ATOM     12  NZ  LYS A 135      28.136  34.557   8.435  1.00 35.99     0.618 N 
ENDBRANCH  10  11
ENDBRANCH   9  10
ENDBRANCH   8   9
ENDBRANCH   7   8
END_RES LYS A 135
