REMARK VINA RESULT:    -4.969      2.801      7.797
REMARK INTER + INTRA:         -22.252
REMARK INTER:                 -10.553
REMARK INTRA:                 -11.699
REMARK UNBOUND:                -9.729
REMARK SMILES CC(=O)N[C@@H]1[C@@H](O)C[C@](OC[C@H]2O[C@@H](O[C@H]3[C@H](O)[C@@H](O)[C@H](OCCN=[N+]=[N-])O[C@@H]3CO)[C@H](O)[C@@H](O)[C@H]2O)(C(=O)O)O[C@H]1C(O)[C@H](O)CNC(=O)OCc1cn(-c2ncccc2C#N)nn1
REMARK SMILES IDX 9 1 8 2 6 3 5 4 42 5 41 6 10 7 11 8 12 9 14 10 13 11 32 12
REMARK SMILES IDX 34 13 36 14 15 15 16 16 29 17 28 18 21 19 17 20 19 21 30 22
REMARK SMILES IDX 31 23 22 25 23 26 24 27 25 28 26 29 27 30 18 31 20 33 33 35
REMARK SMILES IDX 35 37 37 39 38 41 39 42 40 43 7 45 43 47 44 48 45 50 46 51
REMARK SMILES IDX 47 53 48 54 49 55 50 57 51 58 52 59 53 60 54 61 65 62 55 63
REMARK SMILES IDX 64 64 56 65 57 66 61 67 58 68 60 69 59 70 62 71 63 72 4 73
REMARK SMILES IDX 2 74 1 76 3 77
REMARK H PARENT 31 24 18 32 20 34 33 36 35 38 37 40 40 44 7 46 44 49 46 52
REMARK H PARENT 48 56 4 75
REMARK Flexibility Score: inf
ROOT
ATOM      1  C   UNL     1      29.709  31.501  17.283  1.00  0.00     0.272 C 
ATOM      2  C   UNL     1      30.734  31.595  16.234  1.00  0.00     0.113 C 
ATOM      3  C   UNL     1      30.498  32.688  15.268  1.00  0.00     0.145 C 
ATOM      4  C   UNL     1      29.763  33.885  15.777  1.00  0.00     0.142 C 
ATOM      5  C   UNL     1      29.422  33.885  17.240  1.00  0.00     0.178 C 
ATOM      6  O   UNL     1      29.262  32.701  17.785  1.00  0.00    -0.332 OA
ENDROOT
BRANCH   1   7
ATOM      7  O   UNL     1      29.896  30.745  18.369  1.00  0.00    -0.338 OA
BRANCH   7   8
ATOM      8  C   UNL     1      30.756  30.711  19.339  1.00  0.00     0.199 C 
BRANCH   8   9
ATOM      9  C   UNL     1      30.038  30.133  20.563  1.00  0.00     0.179 C 
ATOM     10  C   UNL     1      28.440  28.680  21.253  1.00  0.00     0.282 C 
ATOM     11  O   UNL     1      28.840  29.582  20.200  1.00  0.00    -0.341 OA
ATOM     12  C   UNL     1      29.294  27.465  21.215  1.00  0.00     0.202 C 
ATOM     13  C   UNL     1      30.779  27.838  21.225  1.00  0.00     0.179 C 
ATOM     14  C   UNL     1      30.891  29.299  21.446  1.00  0.00     0.177 C 
BRANCH  10  15
ATOM     15  O   UNL     1      27.123  28.394  21.157  1.00  0.00    -0.341 OA
BRANCH  15  16
ATOM     16  C   UNL     1      26.565  28.571  19.922  1.00  0.00     0.184 C 
ATOM     17  C   UNL     1      25.166  29.238  20.069  1.00  0.00     0.178 C 
ATOM     18  O   UNL     1      24.201  28.292  19.728  1.00  0.00    -0.341 OA
ATOM     19  C   UNL     1      24.364  27.123  20.486  1.00  0.00     0.281 C 
ATOM     20  C   UNL     1      26.389  27.306  19.122  1.00  0.00     0.180 C 
ATOM     21  C   UNL     1      25.498  26.330  19.899  1.00  0.00     0.202 C 
BRANCH  17  22
ATOM     22  C   UNL     1      25.121  30.447  19.191  1.00  0.00     0.191 C 
BRANCH  22  23
ATOM     23  O   UNL     1      26.322  31.179  19.243  1.00  0.00    -0.394 OA
ATOM     24  H   UNL     1      26.159  32.151  19.288  1.00  0.00     0.210 HD
ENDBRANCH  22  23
ENDBRANCH  17  22
BRANCH  19  25
ATOM     25  O   UNL     1      23.162  26.455  20.446  1.00  0.00    -0.350 OA
BRANCH  25  26
ATOM     26  C   UNL     1      22.394  26.842  19.333  1.00  0.00     0.169 C 
BRANCH  26  27
ATOM     27  C   UNL     1      22.186  25.666  18.401  1.00  0.00     0.119 C 
BRANCH  27  28
ATOM     28  N   UNL     1      22.032  24.485  19.260  1.00  0.00    -0.092 NA
ATOM     29  N   UNL     1      21.974  23.383  18.653  1.00  0.00     0.001 N 
ATOM     30  N   UNL     1      21.557  22.335  18.138  1.00  0.00    -0.003 NA
ENDBRANCH  27  28
ENDBRANCH  26  27
ENDBRANCH  25  26
ENDBRANCH  19  25
BRANCH  20  31
ATOM     31  O   UNL     1      25.854  27.527  17.874  1.00  0.00    -0.387 OA
ATOM     32  H   UNL     1      25.047  27.043  17.639  1.00  0.00     0.211 HD
ENDBRANCH  20  31
BRANCH  21  33
ATOM     33  O   UNL     1      26.249  25.683  20.875  1.00  0.00    -0.385 OA
ATOM     34  H   UNL     1      26.896  26.351  21.232  1.00  0.00     0.211 HD
ENDBRANCH  21  33
ENDBRANCH  15  16
ENDBRANCH  10  15
BRANCH  12  35
ATOM     35  O   UNL     1      29.032  26.642  22.297  1.00  0.00    -0.385 OA
ATOM     36  H   UNL     1      28.128  26.213  22.135  1.00  0.00     0.211 HD
ENDBRANCH  12  35
BRANCH  13  37
ATOM     37  O   UNL     1      31.358  27.450  19.993  1.00  0.00    -0.387 OA
ATOM     38  H   UNL     1      30.812  27.802  19.235  1.00  0.00     0.211 HD
ENDBRANCH  13  37
BRANCH  14  39
ATOM     39  O   UNL     1      32.206  29.772  21.419  1.00  0.00    -0.387 OA
ATOM     40  H   UNL     1      32.680  29.427  20.595  1.00  0.00     0.211 HD
ENDBRANCH  14  39
ENDBRANCH   8   9
ENDBRANCH   7   8
ENDBRANCH   1   7
BRANCH   1  41
ATOM     41  C   UNL     1      28.487  30.895  16.593  1.00  0.00     0.364 C 
ATOM     42  O   UNL     1      28.479  29.827  16.005  1.00  0.00    -0.246 OA
BRANCH  41  43
ATOM     43  O   UNL     1      27.270  31.604  16.627  1.00  0.00    -0.477 OA
ATOM     44  H   UNL     1      27.218  32.581  16.873  1.00  0.00     0.296 HD
ENDBRANCH  41  43
ENDBRANCH   1  41
BRANCH   3  45
ATOM     45  O   UNL     1      31.698  33.055  14.631  1.00  0.00    -0.391 OA
ATOM     46  H   UNL     1      31.402  33.450  13.747  1.00  0.00     0.211 HD
ENDBRANCH   3  45
BRANCH   5  47
ATOM     47  C   UNL     1      30.390  34.803  18.039  1.00  0.00     0.176 C 
BRANCH  47  48
ATOM     48  O   UNL     1      31.657  34.150  18.005  1.00  0.00    -0.388 OA
ATOM     49  H   UNL     1      32.213  34.507  17.292  1.00  0.00     0.211 HD
ENDBRANCH  47  48
BRANCH  47  50
ATOM     50  C   UNL     1      30.071  35.017  19.428  1.00  0.00     0.165 C 
BRANCH  50  51
ATOM     51  O   UNL     1      30.000  33.872  20.260  1.00  0.00    -0.388 OA
ATOM     52  H   UNL     1      29.794  33.070  19.684  1.00  0.00     0.211 HD
ENDBRANCH  50  51
BRANCH  50  53
ATOM     53  C   UNL     1      28.769  35.707  19.680  1.00  0.00     0.154 C 
BRANCH  53  54
ATOM     54  N   UNL     1      27.550  35.064  19.386  1.00  0.00    -0.319 N 
ATOM     55  C   UNL     1      26.578  34.555  20.246  1.00  0.00     0.407 C 
ATOM     56  H   UNL     1      27.314  34.926  18.329  1.00  0.00     0.167 HD
ATOM     57  O   UNL     1      26.766  34.675  21.481  1.00  0.00    -0.225 OA
BRANCH  55  58
ATOM     58  O   UNL     1      25.427  33.939  19.713  1.00  0.00    -0.443 OA
BRANCH  58  59
ATOM     59  C   UNL     1      24.646  34.652  18.800  1.00  0.00     0.294 C 
BRANCH  59  60
ATOM     60  C   UNL     1      24.757  34.143  17.446  1.00  0.00     0.121 A 
ATOM     61  C   UNL     1      23.825  33.440  16.781  1.00  0.00     0.146 A 
ATOM     62  N   UNL     1      25.879  34.235  16.609  1.00  0.00    -0.131 NA
ATOM     63  N   UNL     1      24.287  33.085  15.590  1.00  0.00    -0.201 N 
ATOM     64  N   UNL     1      25.487  33.582  15.555  1.00  0.00    -0.060 NA
BRANCH  63  65
ATOM     65  C   UNL     1      23.668  32.397  14.523  1.00  0.00     0.173 A 
ATOM     66  N   UNL     1      22.939  33.167  13.673  1.00  0.00    -0.236 NA
ATOM     67  C   UNL     1      23.679  31.000  14.430  1.00  0.00     0.097 A 
ATOM     68  C   UNL     1      22.155  32.492  12.664  1.00  0.00     0.113 A 
ATOM     69  C   UNL     1      22.901  30.427  13.448  1.00  0.00     0.025 A 
ATOM     70  C   UNL     1      22.182  31.182  12.620  1.00  0.00     0.022 A 
BRANCH  67  71
ATOM     71  C   UNL     1      24.501  30.136  15.216  1.00  0.00     0.103 C 
ATOM     72  N   UNL     1      25.180  29.396  15.891  1.00  0.00    -0.192 NA
ENDBRANCH  67  71
ENDBRANCH  63  65
ENDBRANCH  59  60
ENDBRANCH  58  59
ENDBRANCH  55  58
ENDBRANCH  53  54
ENDBRANCH  50  53
ENDBRANCH  47  50
ENDBRANCH   5  47
BRANCH   4  73
ATOM     73  N   UNL     1      28.676  34.105  14.848  1.00  0.00    -0.348 N 
ATOM     74  C   UNL     1      28.726  34.720  13.594  1.00  0.00     0.217 C 
ATOM     75  H   UNL     1      27.688  33.773  15.146  1.00  0.00     0.163 HD
ATOM     76  C   UNL     1      27.482  34.817  12.731  1.00  0.00     0.114 C 
ATOM     77  O   UNL     1      29.750  35.222  13.080  1.00  0.00    -0.275 OA
ENDBRANCH   4  73
TORSDOF 31
BEGIN_RES LYS A 131
REMARK  4 active torsions:
REMARK  status: ('A' for Active; 'I' for Inactive)
REMARK    1  A    between atoms: CA   and  CB  
REMARK    2  A    between atoms: CB   and  CG  
REMARK    3  A    between atoms: CG   and  CD  
REMARK    4  A    between atoms: CD   and  CE  
ROOT
ATOM      1  CA  LYS A 131      29.867  25.555  16.977  1.00 20.52     0.186 C 
ENDROOT
BRANCH   1   2
ATOM      2  CB  LYS A 131      28.345  25.722  17.026  1.00 20.94     0.034 C 
BRANCH   2   3
ATOM      3  CG  LYS A 131      27.599  24.484  16.552  1.00 22.96     0.005 C 
BRANCH   3   4
ATOM      4  CD  LYS A 131      26.983  23.722  17.693  1.00 24.33     0.041 C 
BRANCH   4   5
ATOM      5  CE  LYS A 131      25.484  23.575  17.456  1.00 26.91     0.338 C 
ATOM      6  NZ  LYS A 131      25.068  22.163  17.627  1.00 27.40     0.618 N 
ENDBRANCH   4   5
ENDBRANCH   3   4
ENDBRANCH   2   3
ENDBRANCH   1   2
END_RES LYS A 131
BEGIN_RES LYS A 135
REMARK  4 active torsions:
REMARK  status: ('A' for Active; 'I' for Inactive)
REMARK    5  A    between atoms: CA   and  CB  
REMARK    6  A    between atoms: CB   and  CG  
REMARK    7  A    between atoms: CG   and  CD  
REMARK    8  A    between atoms: CD   and  CE  
ROOT
ATOM      7  CA  LYS A 135      33.193  34.663   9.290  1.00 25.02     0.186 C 
ENDROOT
BRANCH   7   8
ATOM      8  CB  LYS A 135      32.060  35.360  10.034  1.00 26.63     0.034 C 
BRANCH   8   9
ATOM      9  CG  LYS A 135      30.710  34.733   9.800  1.00 29.45     0.005 C 
BRANCH   9  10
ATOM     10  CD  LYS A 135      30.480  34.492   8.316  1.00 32.00     0.041 C 
BRANCH  10  11
ATOM     11  CE  LYS A 135      29.055  34.844   7.935  1.00 34.25     0.338 C 
ATOM     12  NZ  LYS A 135      28.084  34.297   8.923  1.00 35.99     0.618 N 
ENDBRANCH  10  11
ENDBRANCH   9  10
ENDBRANCH   8   9
ENDBRANCH   7   8
END_RES LYS A 135
