REMARK VINA RESULT:    -4.633      1.913      2.287
REMARK INTER + INTRA:         -25.026
REMARK INTER:                 -14.173
REMARK INTRA:                 -10.853
REMARK UNBOUND:               -12.132
REMARK SMILES CCOCCc1c(-c2ccccc2)nc(N)nc1-n1cc(COC(=O)NC[C@@H](O)C(O)[C@@H]2O[C@@](OC[C@H]3O[C@@H](O[C@H]4[C@H](O)[C@@H](O)[C@H](OCCN=[N+]=[N-])O[C@@H]4CO)[C@H](O)[C@@H](O)[C@H]3O)(C(=O)O)C[C@H](O)[C@H]2NC(C)=O)nn1
REMARK SMILES IDX 30 1 32 2 34 3 66 4 33 5 67 6 69 7 35 8 36 9 37 10 39 11
REMARK SMILES IDX 38 12 57 13 59 14 61 15 40 16 41 17 54 18 53 19 46 20 42 21
REMARK SMILES IDX 44 22 55 23 56 24 47 26 48 27 49 28 50 29 51 30 52 31 43 32
REMARK SMILES IDX 45 34 58 36 60 38 62 40 63 42 64 43 65 44 68 46 70 48 71 49
REMARK SMILES IDX 72 51 73 52 31 53 28 55 29 56 27 58 26 59 24 60 25 62 23 63
REMARK SMILES IDX 22 64 21 65 20 66 74 67 19 68 75 69 18 70 17 71 6 72 15 73
REMARK SMILES IDX 7 74 14 75 5 76 4 77 3 78 2 79 1 80 16 81 8 84 9 85 13 86
REMARK SMILES IDX 10 87 12 88 11 89
REMARK H PARENT 56 25 43 33 45 35 58 37 60 39 62 41 65 45 68 47 70 50 31 54
REMARK H PARENT 29 57 26 61 16 82 16 83
REMARK Flexibility Score: inf
ROOT
ATOM      1  C   UNL     1      28.863  28.108  21.311  1.00  0.00     0.176 C 
ENDROOT
BRANCH   1   2
ATOM      2  C   UNL     1      29.106  29.350  22.114  1.00  0.00     0.178 C 
ATOM      3  C   UNL     1      29.206  31.647  21.674  1.00  0.00     0.272 C 
ATOM      4  C   UNL     1      29.438  31.690  23.186  1.00  0.00     0.113 C 
ATOM      5  O   UNL     1      28.808  30.436  21.236  1.00  0.00    -0.332 OA
ATOM      6  C   UNL     1      30.451  30.684  23.639  1.00  0.00     0.145 C 
ATOM      7  C   UNL     1      30.495  29.577  22.601  1.00  0.00     0.142 C 
BRANCH   3   8
ATOM      8  O   UNL     1      30.346  32.140  21.078  1.00  0.00    -0.338 OA
BRANCH   8   9
ATOM      9  C   UNL     1      30.712  31.549  19.898  1.00  0.00     0.199 C 
BRANCH   9  10
ATOM     10  C   UNL     1      30.145  32.274  18.687  1.00  0.00     0.179 C 
ATOM     11  C   UNL     1      31.103  33.318  16.833  1.00  0.00     0.282 C 
ATOM     12  O   UNL     1      31.124  33.077  18.178  1.00  0.00    -0.341 OA
ATOM     13  C   UNL     1      31.195  31.947  16.150  1.00  0.00     0.202 C 
ATOM     14  C   UNL     1      29.809  31.339  16.354  1.00  0.00     0.179 C 
ATOM     15  C   UNL     1      29.350  31.441  17.766  1.00  0.00     0.177 C 
BRANCH  11  16
ATOM     16  O   UNL     1      32.141  34.150  16.484  1.00  0.00    -0.341 OA
BRANCH  16  17
ATOM     17  C   UNL     1      32.053  35.390  17.094  1.00  0.00     0.184 C 
ATOM     18  C   UNL     1      31.947  36.486  16.088  1.00  0.00     0.178 C 
ATOM     19  O   UNL     1      33.016  37.316  15.971  1.00  0.00    -0.341 OA
ATOM     20  C   UNL     1      33.625  37.770  17.099  1.00  0.00     0.281 C 
ATOM     21  C   UNL     1      33.149  35.591  18.097  1.00  0.00     0.180 C 
ATOM     22  C   UNL     1      33.309  37.063  18.374  1.00  0.00     0.202 C 
BRANCH  18  23
ATOM     23  C   UNL     1      30.628  37.248  16.220  1.00  0.00     0.191 C 
BRANCH  23  24
ATOM     24  O   UNL     1      29.593  36.408  16.590  1.00  0.00    -0.394 OA
ATOM     25  H   UNL     1      28.861  36.977  16.940  1.00  0.00     0.210 HD
ENDBRANCH  23  24
ENDBRANCH  18  23
BRANCH  20  26
ATOM     26  O   UNL     1      33.310  39.118  17.237  1.00  0.00    -0.350 OA
BRANCH  26  27
ATOM     27  C   UNL     1      34.400  39.953  17.264  1.00  0.00     0.169 C 
BRANCH  27  28
ATOM     28  C   UNL     1      34.572  40.703  18.563  1.00  0.00     0.119 C 
BRANCH  28  29
ATOM     29  N   UNL     1      34.439  42.135  18.300  1.00  0.00    -0.092 NA
ATOM     30  N   UNL     1      35.194  42.719  17.513  1.00  0.00     0.001 N 
ATOM     31  N   UNL     1      36.093  43.178  16.810  1.00  0.00    -0.003 NA
ENDBRANCH  28  29
ENDBRANCH  27  28
ENDBRANCH  26  27
ENDBRANCH  20  26
BRANCH  21  32
ATOM     32  O   UNL     1      32.885  34.949  19.311  1.00  0.00    -0.387 OA
ATOM     33  H   UNL     1      32.089  34.356  19.247  1.00  0.00     0.211 HD
ENDBRANCH  21  32
BRANCH  22  34
ATOM     34  O   UNL     1      34.391  37.212  19.241  1.00  0.00    -0.385 OA
ATOM     35  H   UNL     1      34.678  36.350  19.636  1.00  0.00     0.211 HD
ENDBRANCH  22  34
ENDBRANCH  16  17
ENDBRANCH  11  16
BRANCH  13  36
ATOM     36  O   UNL     1      31.472  32.041  14.808  1.00  0.00    -0.385 OA
ATOM     37  H   UNL     1      31.488  32.987  14.498  1.00  0.00     0.211 HD
ENDBRANCH  13  36
BRANCH  14  38
ATOM     38  O   UNL     1      29.673  30.095  15.782  1.00  0.00    -0.387 OA
ATOM     39  H   UNL     1      29.308  29.422  16.434  1.00  0.00     0.211 HD
ENDBRANCH  14  38
BRANCH  15  40
ATOM     40  O   UNL     1      29.284  30.129  18.284  1.00  0.00    -0.387 OA
ATOM     41  H   UNL     1      30.139  29.917  18.738  1.00  0.00     0.211 HD
ENDBRANCH  15  40
ENDBRANCH   9  10
ENDBRANCH   8   9
ENDBRANCH   3   8
BRANCH   3  42
ATOM     42  C   UNL     1      28.087  32.620  21.471  1.00  0.00     0.364 C 
ATOM     43  O   UNL     1      28.041  33.570  22.331  1.00  0.00    -0.246 OA
BRANCH  42  44
ATOM     44  O   UNL     1      27.156  32.567  20.473  1.00  0.00    -0.477 OA
ATOM     45  H   UNL     1      26.881  31.665  20.095  1.00  0.00     0.296 HD
ENDBRANCH  42  44
ENDBRANCH   3  42
BRANCH   6  46
ATOM     46  O   UNL     1      31.681  31.355  23.732  1.00  0.00    -0.391 OA
ATOM     47  H   UNL     1      31.621  32.272  23.401  1.00  0.00     0.211 HD
ENDBRANCH   6  46
BRANCH   7  48
ATOM     48  N   UNL     1      31.210  28.434  23.080  1.00  0.00    -0.348 N 
ATOM     49  C   UNL     1      32.601  28.232  22.884  1.00  0.00     0.217 C 
ATOM     50  H   UNL     1      30.661  27.729  23.618  1.00  0.00     0.163 HD
ATOM     51  C   UNL     1      33.236  27.015  23.426  1.00  0.00     0.114 C 
ATOM     52  O   UNL     1      33.273  29.081  22.260  1.00  0.00    -0.275 OA
ENDBRANCH   7  48
ENDBRANCH   1   2
BRANCH   1  53
ATOM     53  O   UNL     1      29.713  28.234  20.159  1.00  0.00    -0.388 OA
ATOM     54  H   UNL     1      29.314  28.947  19.618  1.00  0.00     0.211 HD
ENDBRANCH   1  53
BRANCH   1  55
ATOM     55  C   UNL     1      27.503  27.841  20.805  1.00  0.00     0.165 C 
BRANCH  55  56
ATOM     56  O   UNL     1      27.112  26.617  21.421  1.00  0.00    -0.388 OA
ATOM     57  H   UNL     1      27.051  26.770  22.385  1.00  0.00     0.211 HD
ENDBRANCH  55  56
BRANCH  55  58
ATOM     58  C   UNL     1      27.318  27.708  19.351  1.00  0.00     0.154 C 
BRANCH  58  59
ATOM     59  N   UNL     1      26.588  28.735  18.716  1.00  0.00    -0.319 N 
ATOM     60  C   UNL     1      26.652  29.076  17.352  1.00  0.00     0.407 C 
ATOM     61  H   UNL     1      25.894  29.360  19.273  1.00  0.00     0.167 HD
ATOM     62  O   UNL     1      27.396  28.477  16.545  1.00  0.00    -0.225 OA
BRANCH  60  63
ATOM     63  O   UNL     1      25.885  30.109  16.802  1.00  0.00    -0.443 OA
BRANCH  63  64
ATOM     64  C   UNL     1      25.526  31.254  17.547  1.00  0.00     0.294 C 
BRANCH  64  65
ATOM     65  C   UNL     1      26.140  32.482  16.989  1.00  0.00     0.121 A 
ATOM     66  C   UNL     1      26.718  32.633  15.756  1.00  0.00     0.146 A 
ATOM     67  N   UNL     1      26.273  33.687  17.590  1.00  0.00    -0.131 NA
ATOM     68  N   UNL     1      27.196  33.928  15.629  1.00  0.00    -0.202 N 
ATOM     69  N   UNL     1      26.897  34.499  16.757  1.00  0.00    -0.060 NA
BRANCH  68  70
ATOM     70  C   UNL     1      27.851  34.298  14.442  1.00  0.00     0.164 A 
ATOM     71  N   UNL     1      29.206  34.251  14.408  1.00  0.00    -0.193 NA
ATOM     72  C   UNL     1      27.196  34.642  13.250  1.00  0.00     0.026 A 
ATOM     73  C   UNL     1      29.926  34.508  13.315  1.00  0.00     0.222 A 
ATOM     74  C   UNL     1      27.911  34.904  12.121  1.00  0.00     0.081 A 
ATOM     75  N   UNL     1      29.282  34.829  12.191  1.00  0.00    -0.213 NA
BRANCH  72  76
ATOM     76  C   UNL     1      25.741  34.806  13.348  1.00  0.00     0.070 C 
BRANCH  76  77
ATOM     77  C   UNL     1      24.945  33.649  12.786  1.00  0.00     0.165 C 
BRANCH  77  78
ATOM     78  O   UNL     1      24.168  33.902  11.697  1.00  0.00    -0.381 OA
BRANCH  78  79
ATOM     79  C   UNL     1      23.025  34.622  11.875  1.00  0.00     0.156 C 
ATOM     80  C   UNL     1      23.021  35.888  11.002  1.00  0.00     0.035 C 
ENDBRANCH  78  79
ENDBRANCH  77  78
ENDBRANCH  76  77
ENDBRANCH  72  76
BRANCH  73  81
ATOM     81  N   UNL     1      31.356  34.447  13.331  1.00  0.00    -0.368 N 
ATOM     82  H   UNL     1      31.915  35.309  13.494  1.00  0.00     0.159 HD
ATOM     83  H   UNL     1      31.881  33.569  13.187  1.00  0.00     0.159 HD
ENDBRANCH  73  81
BRANCH  74  84
ATOM     84  C   UNL     1      27.312  35.241  10.848  1.00  0.00     0.001 A 
ATOM     85  C   UNL     1      27.220  34.238   9.885  1.00  0.00     0.010 A 
ATOM     86  C   UNL     1      26.811  36.500  10.571  1.00  0.00     0.010 A 
ATOM     87  C   UNL     1      26.633  34.476   8.649  1.00  0.00     0.001 A 
ATOM     88  C   UNL     1      26.234  36.714   9.342  1.00  0.00     0.001 A 
ATOM     89  C   UNL     1      26.138  35.733   8.387  1.00  0.00     0.000 A 
ENDBRANCH  74  84
ENDBRANCH  68  70
ENDBRANCH  64  65
ENDBRANCH  63  64
ENDBRANCH  60  63
ENDBRANCH  58  59
ENDBRANCH  55  58
ENDBRANCH   1  55
TORSDOF 36
BEGIN_RES LYS A 131
REMARK  4 active torsions:
REMARK  status: ('A' for Active; 'I' for Inactive)
REMARK    1  A    between atoms: CA   and  CB  
REMARK    2  A    between atoms: CB   and  CG  
REMARK    3  A    between atoms: CG   and  CD  
REMARK    4  A    between atoms: CD   and  CE  
ROOT
ATOM      1  CA  LYS A 131      29.867  25.555  16.977  1.00 20.52     0.186 C 
ENDROOT
BRANCH   1   2
ATOM      2  CB  LYS A 131      28.345  25.722  17.026  1.00 20.94     0.034 C 
BRANCH   2   3
ATOM      3  CG  LYS A 131      27.602  24.399  16.927  1.00 22.96     0.005 C 
BRANCH   3   4
ATOM      4  CD  LYS A 131      26.150  24.535  17.294  1.00 24.33     0.041 C 
BRANCH   4   5
ATOM      5  CE  LYS A 131      25.941  24.061  18.728  1.00 26.91     0.338 C 
ATOM      6  NZ  LYS A 131      24.998  24.957  19.439  1.00 27.40     0.618 N 
ENDBRANCH   4   5
ENDBRANCH   3   4
ENDBRANCH   2   3
ENDBRANCH   1   2
END_RES LYS A 131
BEGIN_RES LYS A 135
REMARK  4 active torsions:
REMARK  status: ('A' for Active; 'I' for Inactive)
REMARK    5  A    between atoms: CA   and  CB  
REMARK    6  A    between atoms: CB   and  CG  
REMARK    7  A    between atoms: CG   and  CD  
REMARK    8  A    between atoms: CD   and  CE  
ROOT
ATOM      7  CA  LYS A 135      33.193  34.663   9.290  1.00 25.02     0.186 C 
ENDROOT
BRANCH   7   8
ATOM      8  CB  LYS A 135      32.060  35.360  10.034  1.00 26.63     0.034 C 
BRANCH   8   9
ATOM      9  CG  LYS A 135      30.751  35.347   9.287  1.00 29.45     0.005 C 
BRANCH   9  10
ATOM     10  CD  LYS A 135      30.255  36.765   9.048  1.00 32.00     0.041 C 
BRANCH  10  11
ATOM     11  CE  LYS A 135      31.107  37.762   9.810  1.00 34.25     0.338 C 
ATOM     12  NZ  LYS A 135      31.244  39.038   9.054  1.00 35.99     0.618 N 
ENDBRANCH  10  11
ENDBRANCH   9  10
ENDBRANCH   8   9
ENDBRANCH   7   8
END_RES LYS A 135
