REMARK VINA RESULT:    -4.848      3.269      7.361
REMARK INTER + INTRA:         -24.670
REMARK INTER:                 -14.910
REMARK INTRA:                  -9.760
REMARK UNBOUND:                -9.760
REMARK SMILES CC(=O)N[C@@H]1[C@@H](O)C[C@](OC[C@H]2O[C@@H](O[C@H]3[C@H](O)[C@@H](O)[C@H](OCCN=[N+]=[N-])O[C@@H]3CO)[C@H](O)[C@@H](O)[C@H]2O)(C(=O)O)O[C@H]1C(O)[C@H](O)CNC(=O)OCc1cn(CCCCCCCCCCC(=O)O)nn1
REMARK SMILES IDX 51 1 49 2 48 3 50 5 47 6 45 7 43 8 42 9 9 10 8 11 41 12 6 13
REMARK SMILES IDX 5 14 10 15 11 16 12 17 14 18 13 19 32 20 34 21 36 22 15 23
REMARK SMILES IDX 16 24 29 25 28 26 21 27 17 28 19 29 30 30 31 31 22 33 23 34
REMARK SMILES IDX 24 35 25 36 26 37 27 38 18 39 20 41 33 43 35 45 37 47 38 49
REMARK SMILES IDX 39 50 40 51 7 53 4 55 2 56 1 58 3 59 44 60 46 62 52 64 53 65
REMARK SMILES IDX 54 66 70 67 55 68 69 69 56 70 57 71 58 72 59 73 60 74 61 75
REMARK SMILES IDX 62 76 63 77 64 78 65 79 66 80 67 81 68 82
REMARK H PARENT 48 4 31 32 18 40 20 42 33 44 35 46 37 48 40 52 7 54 4 57 44 61
REMARK H PARENT 46 63 68 83
REMARK Flexibility Score: inf
ROOT
ATOM      1  O   UNL     1      25.748  37.253  13.365  1.00  0.00    -0.443 OA
ENDROOT
BRANCH   1   2
ATOM      2  C   UNL     1      25.413  38.503  12.798  1.00  0.00     0.407 C 
ATOM      3  N   UNL     1      25.997  38.926  11.578  1.00  0.00    -0.319 N 
ATOM      4  H   UNL     1      26.693  38.289  11.108  1.00  0.00     0.167 HD
ATOM      5  O   UNL     1      24.592  39.265  13.357  1.00  0.00    -0.225 OA
BRANCH   3   6
ATOM      6  C   UNL     1      25.680  40.180  10.964  1.00  0.00     0.154 C 
BRANCH   6   7
ATOM      7  C   UNL     1      24.863  40.063   9.681  1.00  0.00     0.165 C 
BRANCH   7   8
ATOM      8  C   UNL     1      23.453  39.851  10.110  1.00  0.00     0.176 C 
BRANCH   8   9
ATOM      9  C   UNL     1      22.847  38.511   9.764  1.00  0.00     0.178 C 
ATOM     10  C   UNL     1      23.361  36.247   9.888  1.00  0.00     0.272 C 
ATOM     11  C   UNL     1      22.628  36.099   8.571  1.00  0.00     0.113 C 
ATOM     12  O   UNL     1      23.801  37.554   9.971  1.00  0.00    -0.332 OA
ATOM     13  C   UNL     1      22.741  37.295   7.681  1.00  0.00     0.145 C 
ATOM     14  C   UNL     1      22.193  38.500   8.418  1.00  0.00     0.142 C 
BRANCH  10  15
ATOM     15  O   UNL     1      24.449  35.361   9.950  1.00  0.00    -0.338 OA
BRANCH  15  16
ATOM     16  C   UNL     1      25.685  35.906   9.861  1.00  0.00     0.199 C 
BRANCH  16  17
ATOM     17  C   UNL     1      26.313  35.347   8.566  1.00  0.00     0.179 C 
ATOM     18  C   UNL     1      28.060  36.809   7.926  1.00  0.00     0.282 C 
ATOM     19  O   UNL     1      26.818  36.294   7.765  1.00  0.00    -0.341 OA
ATOM     20  C   UNL     1      28.938  36.012   8.814  1.00  0.00     0.202 C 
ATOM     21  C   UNL     1      28.670  34.531   8.572  1.00  0.00     0.179 C 
ATOM     22  C   UNL     1      27.230  34.191   8.896  1.00  0.00     0.177 C 
BRANCH  18  23
ATOM     23  O   UNL     1      27.888  38.152   8.350  1.00  0.00    -0.341 OA
BRANCH  23  24
ATOM     24  C   UNL     1      28.566  38.959   7.446  1.00  0.00     0.184 C 
ATOM     25  C   UNL     1      29.348  40.076   8.053  1.00  0.00     0.178 C 
ATOM     26  O   UNL     1      29.831  40.910   7.088  1.00  0.00    -0.341 OA
ATOM     27  C   UNL     1      29.743  40.590   5.785  1.00  0.00     0.281 C 
ATOM     28  C   UNL     1      27.559  39.615   6.487  1.00  0.00     0.180 C 
ATOM     29  C   UNL     1      28.373  40.144   5.328  1.00  0.00     0.202 C 
BRANCH  25  30
ATOM     30  C   UNL     1      30.484  39.609   8.945  1.00  0.00     0.191 C 
BRANCH  30  31
ATOM     31  O   UNL     1      31.427  40.573   9.190  1.00  0.00    -0.394 OA
ATOM     32  H   UNL     1      31.035  41.247   9.803  1.00  0.00     0.210 HD
ENDBRANCH  30  31
ENDBRANCH  25  30
BRANCH  27  33
ATOM     33  O   UNL     1      30.648  39.584   5.474  1.00  0.00    -0.350 OA
BRANCH  33  34
ATOM     34  C   UNL     1      31.862  40.093   5.013  1.00  0.00     0.169 C 
BRANCH  34  35
ATOM     35  C   UNL     1      32.950  39.982   6.044  1.00  0.00     0.119 C 
BRANCH  35  36
ATOM     36  N   UNL     1      33.273  41.326   6.528  1.00  0.00    -0.092 NA
ATOM     37  N   UNL     1      33.921  41.485   7.586  1.00  0.00     0.001 N 
ATOM     38  N   UNL     1      34.550  41.345   8.657  1.00  0.00    -0.003 NA
ENDBRANCH  35  36
ENDBRANCH  34  35
ENDBRANCH  33  34
ENDBRANCH  27  33
BRANCH  28  39
ATOM     39  O   UNL     1      26.610  38.728   6.026  1.00  0.00    -0.387 OA
ATOM     40  H   UNL     1      26.979  38.025   5.434  1.00  0.00     0.211 HD
ENDBRANCH  28  39
BRANCH  29  41
ATOM     41  O   UNL     1      27.712  41.262   4.831  1.00  0.00    -0.385 OA
ATOM     42  H   UNL     1      28.409  41.865   4.424  1.00  0.00     0.211 HD
ENDBRANCH  29  41
ENDBRANCH  23  24
ENDBRANCH  18  23
BRANCH  20  43
ATOM     43  O   UNL     1      30.299  36.180   8.522  1.00  0.00    -0.385 OA
ATOM     44  H   UNL     1      30.718  36.497   9.376  1.00  0.00     0.211 HD
ENDBRANCH  20  43
BRANCH  21  45
ATOM     45  O   UNL     1      29.520  33.745   9.347  1.00  0.00    -0.387 OA
ATOM     46  H   UNL     1      30.365  34.254   9.439  1.00  0.00     0.211 HD
ENDBRANCH  21  45
BRANCH  22  47
ATOM     47  O   UNL     1      27.159  33.890  10.235  1.00  0.00    -0.387 OA
ATOM     48  H   UNL     1      26.674  34.622  10.696  1.00  0.00     0.211 HD
ENDBRANCH  22  47
ENDBRANCH  16  17
ENDBRANCH  15  16
ENDBRANCH  10  15
BRANCH  10  49
ATOM     49  C   UNL     1      22.518  35.887  11.031  1.00  0.00     0.364 C 
ATOM     50  O   UNL     1      21.351  35.483  10.909  1.00  0.00    -0.246 OA
BRANCH  49  51
ATOM     51  O   UNL     1      23.007  35.989  12.323  1.00  0.00    -0.477 OA
ATOM     52  H   UNL     1      23.874  35.532  12.617  1.00  0.00     0.296 HD
ENDBRANCH  49  51
ENDBRANCH  10  49
BRANCH  13  53
ATOM     53  O   UNL     1      23.988  37.525   7.143  1.00  0.00    -0.391 OA
ATOM     54  H   UNL     1      24.628  37.956   7.779  1.00  0.00     0.211 HD
ENDBRANCH  13  53
BRANCH  14  55
ATOM     55  N   UNL     1      20.773  38.382   8.433  1.00  0.00    -0.348 N 
ATOM     56  C   UNL     1      19.874  39.486   8.389  1.00  0.00     0.217 C 
ATOM     57  H   UNL     1      20.318  37.439   8.479  1.00  0.00     0.163 HD
ATOM     58  C   UNL     1      18.414  39.284   8.408  1.00  0.00     0.114 C 
ATOM     59  O   UNL     1      20.364  40.628   8.335  1.00  0.00    -0.275 OA
ENDBRANCH  14  55
ENDBRANCH   8   9
BRANCH   8  60
ATOM     60  O   UNL     1      22.702  40.930   9.727  1.00  0.00    -0.388 OA
ATOM     61  H   UNL     1      22.097  40.775   8.986  1.00  0.00     0.211 HD
ENDBRANCH   8  60
ENDBRANCH   7   8
BRANCH   7  62
ATOM     62  O   UNL     1      25.411  39.018   8.946  1.00  0.00    -0.388 OA
ATOM     63  H   UNL     1      26.397  39.066   8.909  1.00  0.00     0.211 HD
ENDBRANCH   7  62
ENDBRANCH   6   7
ENDBRANCH   3   6
ENDBRANCH   1   2
BRANCH   1  64
ATOM     64  C   UNL     1      26.889  37.233  14.235  1.00  0.00     0.294 C 
BRANCH  64  65
ATOM     65  C   UNL     1      27.796  36.178  13.737  1.00  0.00     0.120 A 
ATOM     66  C   UNL     1      28.574  35.359  14.536  1.00  0.00     0.138 A 
ATOM     67  N   UNL     1      28.027  35.817  12.467  1.00  0.00    -0.132 NA
ATOM     68  N   UNL     1      29.240  34.538  13.703  1.00  0.00    -0.252 N 
ATOM     69  N   UNL     1      28.888  34.839  12.438  1.00  0.00    -0.067 NA
BRANCH  68  70
ATOM     70  C   UNL     1      30.172  33.500  14.020  1.00  0.00     0.146 C 
BRANCH  70  71
ATOM     71  C   UNL     1      31.314  33.893  14.888  1.00  0.00     0.024 C 
BRANCH  71  72
ATOM     72  C   UNL     1      31.591  33.010  16.053  1.00  0.00     0.002 C 
BRANCH  72  73
ATOM     73  C   UNL     1      31.002  33.442  17.351  1.00  0.00     0.000 C 
BRANCH  73  74
ATOM     74  C   UNL     1      29.670  32.863  17.681  1.00  0.00     0.000 C 
BRANCH  74  75
ATOM     75  C   UNL     1      29.617  32.474  19.132  1.00  0.00     0.000 C 
BRANCH  75  76
ATOM     76  C   UNL     1      30.487  31.280  19.460  1.00  0.00     0.000 C 
BRANCH  76  77
ATOM     77  C   UNL     1      31.293  31.456  20.705  1.00  0.00     0.001 C 
BRANCH  77  78
ATOM     78  C   UNL     1      31.394  30.235  21.566  1.00  0.00     0.012 C 
BRANCH  78  79
ATOM     79  C   UNL     1      32.349  29.260  20.899  1.00  0.00     0.122 C 
BRANCH  79  80
ATOM     80  C   UNL     1      31.665  27.968  20.718  1.00  0.00     0.303 C 
ATOM     81  O   UNL     1      30.660  27.678  21.400  1.00  0.00    -0.252 OA
BRANCH  80  82
ATOM     82  O   UNL     1      32.112  27.036  19.792  1.00  0.00    -0.481 OA
ATOM     83  H   UNL     1      32.517  27.306  18.913  1.00  0.00     0.296 HD
ENDBRANCH  80  82
ENDBRANCH  79  80
ENDBRANCH  78  79
ENDBRANCH  77  78
ENDBRANCH  76  77
ENDBRANCH  75  76
ENDBRANCH  74  75
ENDBRANCH  73  74
ENDBRANCH  72  73
ENDBRANCH  71  72
ENDBRANCH  70  71
ENDBRANCH  68  70
ENDBRANCH  64  65
ENDBRANCH   1  64
TORSDOF 41
BEGIN_RES LYS A 131
REMARK  4 active torsions:
REMARK  status: ('A' for Active; 'I' for Inactive)
REMARK    1  A    between atoms: CA   and  CB  
REMARK    2  A    between atoms: CB   and  CG  
REMARK    3  A    between atoms: CG   and  CD  
REMARK    4  A    between atoms: CD   and  CE  
ROOT
ATOM      1  CA  LYS A 131      29.867  25.555  16.977  1.00 20.52     0.186 C 
ENDROOT
BRANCH   1   2
ATOM      2  CB  LYS A 131      28.345  25.722  17.026  1.00 20.94     0.034 C 
BRANCH   2   3
ATOM      3  CG  LYS A 131      27.599  24.456  16.633  1.00 22.96     0.005 C 
BRANCH   3   4
ATOM      4  CD  LYS A 131      27.025  23.744  17.827  1.00 24.33     0.041 C 
BRANCH   4   5
ATOM      5  CE  LYS A 131      25.687  24.372  18.200  1.00 26.91     0.338 C 
ATOM      6  NZ  LYS A 131      24.759  24.342  17.045  1.00 27.40     0.618 N 
ENDBRANCH   4   5
ENDBRANCH   3   4
ENDBRANCH   2   3
ENDBRANCH   1   2
END_RES LYS A 131
BEGIN_RES LYS A 135
REMARK  4 active torsions:
REMARK  status: ('A' for Active; 'I' for Inactive)
REMARK    5  A    between atoms: CA   and  CB  
REMARK    6  A    between atoms: CB   and  CG  
REMARK    7  A    between atoms: CG   and  CD  
REMARK    8  A    between atoms: CD   and  CE  
ROOT
ATOM      7  CA  LYS A 135      33.193  34.663   9.290  1.00 25.02     0.186 C 
ENDROOT
BRANCH   7   8
ATOM      8  CB  LYS A 135      32.060  35.360  10.034  1.00 26.63     0.034 C 
BRANCH   8   9
ATOM      9  CG  LYS A 135      32.249  35.389  11.529  1.00 29.45     0.005 C 
BRANCH   9  10
ATOM     10  CD  LYS A 135      32.563  36.800  12.002  1.00 32.00     0.041 C 
BRANCH  10  11
ATOM     11  CE  LYS A 135      31.284  37.566  12.281  1.00 34.25     0.338 C 
ATOM     12  NZ  LYS A 135      31.086  37.764  13.744  1.00 35.99     0.618 N 
ENDBRANCH  10  11
ENDBRANCH   9  10
ENDBRANCH   8   9
ENDBRANCH   7   8
END_RES LYS A 135
