REMARK VINA RESULT:    -4.657      3.819      6.640
REMARK INTER + INTRA:         -21.754
REMARK INTER:                 -12.401
REMARK INTRA:                  -9.354
REMARK UNBOUND:               -10.018
REMARK SMILES COc1ccc(-n2cc(COC(=O)NC[C@@H](O)C(O)[C@@H]3O[C@@](OC[C@H]4O[C@@H](O[C@H]5[C@H](O)[C@@H](O)[C@H](OCCN=[N+]=[N-])O[C@@H]5CO)[C@H](O)[C@@H](O)[C@H]4O)(C(=O)O)C[C@H](O)[C@H]3NC(C)=O)nn2)cc1
REMARK SMILES IDX 22 1 54 2 55 3 57 4 20 5 21 6 23 7 24 8 25 9 27 10 26 11
REMARK SMILES IDX 45 12 47 13 49 14 28 15 29 16 42 17 41 18 34 19 30 20 32 21
REMARK SMILES IDX 43 22 44 23 35 25 36 26 37 27 38 28 39 29 40 30 31 31 33 33
REMARK SMILES IDX 46 35 48 37 50 39 51 41 52 42 53 43 56 45 18 47 19 48 16 50
REMARK SMILES IDX 17 51 15 53 14 54 12 55 13 57 11 58 10 59 9 60 8 61 62 62
REMARK SMILES IDX 7 63 63 64 6 65 5 66 64 67 4 68 65 69 3 70 2 71 1 72 58 73
REMARK SMILES IDX 59 74 60 76 61 77
REMARK H PARENT 44 24 31 32 33 34 46 36 48 38 50 40 53 44 56 46 19 49 17 52
REMARK H PARENT 14 56 58 75
REMARK Flexibility Score: inf
ROOT
ATOM      1  C   UNL     1      26.816  37.600   7.771  1.00  0.00     0.272 C 
ATOM      2  C   UNL     1      26.016  36.359   7.906  1.00  0.00     0.113 C 
ATOM      3  C   UNL     1      25.244  36.188   9.155  1.00  0.00     0.145 C 
ATOM      4  C   UNL     1      25.896  37.065  10.242  1.00  0.00     0.142 C 
ATOM      5  C   UNL     1      27.365  37.021  10.012  1.00  0.00     0.178 C 
ATOM      6  O   UNL     1      27.632  37.813   8.897  1.00  0.00    -0.332 OA
ENDROOT
BRANCH   1   7
ATOM      7  O   UNL     1      26.357  38.743   7.369  1.00  0.00    -0.338 OA
BRANCH   7   8
ATOM      8  C   UNL     1      26.559  40.003   7.466  1.00  0.00     0.199 C 
BRANCH   8   9
ATOM      9  C   UNL     1      27.357  40.816   6.487  1.00  0.00     0.179 C 
ATOM     10  C   UNL     1      29.290  41.031   5.287  1.00  0.00     0.282 C 
ATOM     11  O   UNL     1      28.485  40.192   6.076  1.00  0.00    -0.341 OA
ATOM     12  C   UNL     1      28.617  41.522   4.045  1.00  0.00     0.202 C 
ATOM     13  C   UNL     1      27.136  41.440   4.037  1.00  0.00     0.179 C 
ATOM     14  C   UNL     1      26.501  41.353   5.366  1.00  0.00     0.177 C 
BRANCH  10  15
ATOM     15  O   UNL     1      30.419  40.298   4.936  1.00  0.00    -0.341 OA
BRANCH  15  16
ATOM     16  C   UNL     1      31.558  40.735   5.556  1.00  0.00     0.184 C 
ATOM     17  C   UNL     1      32.745  40.712   4.665  1.00  0.00     0.178 C 
ATOM     18  O   UNL     1      33.918  41.076   5.380  1.00  0.00    -0.341 OA
ATOM     19  C   UNL     1      34.181  39.980   6.243  1.00  0.00     0.281 C 
ATOM     20  C   UNL     1      31.814  39.827   6.772  1.00  0.00     0.180 C 
ATOM     21  C   UNL     1      33.157  40.154   7.368  1.00  0.00     0.202 C 
BRANCH  17  22
ATOM     22  C   UNL     1      32.587  41.636   3.486  1.00  0.00     0.191 C 
BRANCH  22  23
ATOM     23  O   UNL     1      31.952  42.794   3.901  1.00  0.00    -0.394 OA
ATOM     24  H   UNL     1      32.245  43.591   3.405  1.00  0.00     0.210 HD
ENDBRANCH  22  23
ENDBRANCH  17  22
BRANCH  19  25
ATOM     25  O   UNL     1      35.452  40.002   6.700  1.00  0.00    -0.350 OA
BRANCH  25  26
ATOM     26  C   UNL     1      36.388  39.185   6.145  1.00  0.00     0.169 C 
BRANCH  26  27
ATOM     27  C   UNL     1      35.903  37.997   5.385  1.00  0.00     0.119 C 
BRANCH  27  28
ATOM     28  N   UNL     1      36.496  37.794   4.098  1.00  0.00    -0.092 NA
ATOM     29  N   UNL     1      37.644  37.377   3.983  1.00  0.00     0.001 N 
ATOM     30  N   UNL     1      38.839  37.069   4.015  1.00  0.00    -0.003 NA
ENDBRANCH  27  28
ENDBRANCH  26  27
ENDBRANCH  25  26
ENDBRANCH  19  25
BRANCH  20  31
ATOM     31  O   UNL     1      30.785  40.000   7.679  1.00  0.00    -0.387 OA
ATOM     32  H   UNL     1      30.986  39.405   8.467  1.00  0.00     0.211 HD
ENDBRANCH  20  31
BRANCH  21  33
ATOM     33  O   UNL     1      33.471  39.263   8.369  1.00  0.00    -0.385 OA
ATOM     34  H   UNL     1      33.720  38.379   8.002  1.00  0.00     0.211 HD
ENDBRANCH  21  33
ENDBRANCH  15  16
ENDBRANCH  10  15
BRANCH  12  35
ATOM     35  O   UNL     1      28.949  42.861   3.775  1.00  0.00    -0.385 OA
ATOM     36  H   UNL     1      28.571  43.468   4.450  1.00  0.00     0.211 HD
ENDBRANCH  12  35
BRANCH  13  37
ATOM     37  O   UNL     1      26.714  40.444   3.149  1.00  0.00    -0.387 OA
ATOM     38  H   UNL     1      27.138  40.506   2.269  1.00  0.00     0.211 HD
ENDBRANCH  13  37
BRANCH  14  39
ATOM     39  O   UNL     1      25.303  40.644   5.246  1.00  0.00    -0.387 OA
ATOM     40  H   UNL     1      24.877  40.649   6.140  1.00  0.00     0.211 HD
ENDBRANCH  14  39
ENDBRANCH   8   9
ENDBRANCH   7   8
ENDBRANCH   1   7
BRANCH   1  41
ATOM     41  C   UNL     1      27.900  37.186   6.725  1.00  0.00     0.364 C 
ATOM     42  O   UNL     1      27.578  36.577   5.702  1.00  0.00    -0.246 OA
BRANCH  41  43
ATOM     43  O   UNL     1      29.193  37.539   7.021  1.00  0.00    -0.477 OA
ATOM     44  H   UNL     1      29.539  38.499   6.875  1.00  0.00     0.296 HD
ENDBRANCH  41  43
ENDBRANCH   1  41
BRANCH   3  45
ATOM     45  O   UNL     1      23.894  36.370   9.080  1.00  0.00    -0.391 OA
ATOM     46  H   UNL     1      23.488  36.241   8.194  1.00  0.00     0.211 HD
ENDBRANCH   3  45
BRANCH   5  47
ATOM     47  C   UNL     1      28.184  37.665  11.155  1.00  0.00     0.176 C 
BRANCH  47  48
ATOM     48  O   UNL     1      28.750  36.713  11.945  1.00  0.00    -0.388 OA
ATOM     49  H   UNL     1      29.568  37.072  12.362  1.00  0.00     0.211 HD
ENDBRANCH  47  48
BRANCH  47  50
ATOM     50  C   UNL     1      28.895  38.846  10.733  1.00  0.00     0.165 C 
BRANCH  50  51
ATOM     51  O   UNL     1      30.010  38.632   9.877  1.00  0.00    -0.388 OA
ATOM     52  H   UNL     1      30.161  37.666   9.882  1.00  0.00     0.211 HD
ENDBRANCH  50  51
BRANCH  50  53
ATOM     53  C   UNL     1      29.326  39.930  11.631  1.00  0.00     0.154 C 
BRANCH  53  54
ATOM     54  N   UNL     1      29.490  39.669  12.989  1.00  0.00    -0.319 N 
ATOM     55  C   UNL     1      30.367  40.318  13.871  1.00  0.00     0.407 C 
ATOM     56  H   UNL     1      28.888  38.890  13.426  1.00  0.00     0.167 HD
ATOM     57  O   UNL     1      31.103  41.248  13.504  1.00  0.00    -0.225 OA
BRANCH  55  58
ATOM     58  O   UNL     1      30.416  39.904  15.223  1.00  0.00    -0.443 OA
BRANCH  58  59
ATOM     59  C   UNL     1      31.481  39.069  15.602  1.00  0.00     0.294 C 
BRANCH  59  60
ATOM     60  C   UNL     1      31.204  37.677  15.175  1.00  0.00     0.121 A 
ATOM     61  C   UNL     1      30.751  36.599  15.911  1.00  0.00     0.144 A 
ATOM     62  N   UNL     1      31.350  37.233  13.912  1.00  0.00    -0.131 NA
ATOM     63  N   UNL     1      30.641  35.559  15.076  1.00  0.00    -0.220 N 
ATOM     64  N   UNL     1      31.014  35.971  13.860  1.00  0.00    -0.062 NA
BRANCH  63  65
ATOM     65  C   UNL     1      30.219  34.220  15.284  1.00  0.00     0.067 A 
ATOM     66  C   UNL     1      28.916  33.805  15.217  1.00  0.00     0.032 A 
ATOM     67  C   UNL     1      31.179  33.256  15.588  1.00  0.00     0.032 A 
ATOM     68  C   UNL     1      28.571  32.480  15.443  1.00  0.00     0.048 A 
ATOM     69  C   UNL     1      30.835  31.937  15.814  1.00  0.00     0.048 A 
ATOM     70  C   UNL     1      29.522  31.522  15.745  1.00  0.00     0.119 A 
BRANCH  70  71
ATOM     71  O   UNL     1      29.157  30.181  15.974  1.00  0.00    -0.497 OA
ATOM     72  C   UNL     1      27.775  29.925  16.262  1.00  0.00     0.278 C 
ENDBRANCH  70  71
ENDBRANCH  63  65
ENDBRANCH  59  60
ENDBRANCH  58  59
ENDBRANCH  55  58
ENDBRANCH  53  54
ENDBRANCH  50  53
ENDBRANCH  47  50
ENDBRANCH   5  47
BRANCH   4  73
ATOM     73  N   UNL     1      25.401  36.648  11.524  1.00  0.00    -0.348 N 
ATOM     74  C   UNL     1      24.301  37.301  12.137  1.00  0.00     0.217 C 
ATOM     75  H   UNL     1      25.835  35.836  11.997  1.00  0.00     0.163 HD
ATOM     76  C   UNL     1      23.810  36.850  13.465  1.00  0.00     0.114 C 
ATOM     77  O   UNL     1      23.702  38.271  11.602  1.00  0.00    -0.275 OA
ENDBRANCH   4  73
TORSDOF 31
BEGIN_RES LYS A 131
REMARK  4 active torsions:
REMARK  status: ('A' for Active; 'I' for Inactive)
REMARK    1  A    between atoms: CA   and  CB  
REMARK    2  A    between atoms: CB   and  CG  
REMARK    3  A    between atoms: CG   and  CD  
REMARK    4  A    between atoms: CD   and  CE  
ROOT
ATOM      1  CA  LYS A 131      29.867  25.555  16.977  1.00 20.52     0.186 C 
ENDROOT
BRANCH   1   2
ATOM      2  CB  LYS A 131      28.345  25.722  17.026  1.00 20.94     0.034 C 
BRANCH   2   3
ATOM      3  CG  LYS A 131      27.601  24.402  16.889  1.00 22.96     0.005 C 
BRANCH   3   4
ATOM      4  CD  LYS A 131      26.490  24.272  17.894  1.00 24.33     0.041 C 
BRANCH   4   5
ATOM      5  CE  LYS A 131      25.686  23.009  17.603  1.00 26.91     0.338 C 
ATOM      6  NZ  LYS A 131      24.449  22.981  18.418  1.00 27.40     0.618 N 
ENDBRANCH   4   5
ENDBRANCH   3   4
ENDBRANCH   2   3
ENDBRANCH   1   2
END_RES LYS A 131
BEGIN_RES LYS A 135
REMARK  4 active torsions:
REMARK  status: ('A' for Active; 'I' for Inactive)
REMARK    5  A    between atoms: CA   and  CB  
REMARK    6  A    between atoms: CB   and  CG  
REMARK    7  A    between atoms: CG   and  CD  
REMARK    8  A    between atoms: CD   and  CE  
ROOT
ATOM      7  CA  LYS A 135      33.193  34.663   9.290  1.00 25.02     0.186 C 
ENDROOT
BRANCH   7   8
ATOM      8  CB  LYS A 135      32.060  35.360  10.034  1.00 26.63     0.034 C 
BRANCH   8   9
ATOM      9  CG  LYS A 135      30.777  35.433   9.246  1.00 29.45     0.005 C 
BRANCH   9  10
ATOM     10  CD  LYS A 135      30.176  34.047   9.070  1.00 32.00     0.041 C 
BRANCH  10  11
ATOM     11  CE  LYS A 135      28.732  34.147   8.618  1.00 34.25     0.338 C 
ATOM     12  NZ  LYS A 135      27.808  33.601   9.651  1.00 35.99     0.618 N 
ENDBRANCH  10  11
ENDBRANCH   9  10
ENDBRANCH   8   9
ENDBRANCH   7   8
END_RES LYS A 135
