REMARK VINA RESULT:    -4.402      2.534      6.651
REMARK INTER + INTRA:         -22.728
REMARK INTER:                  -8.864
REMARK INTRA:                 -13.863
REMARK UNBOUND:               -11.119
REMARK SMILES CC(=O)N[C@@H]1[C@@H](O)C[C@](OC[C@H]2O[C@@H](O[C@H]3[C@H](O)[C@@H](O)[C@H](OCCN=[N+]=[N-])O[C@@H]3CO)[C@H](O)[C@@H](O)[C@H]2O)(C(=O)O)O[C@H]1C(O)[C@H](O)CNC(=O)OCc1cn(CC(O)CO)nn1
REMARK SMILES IDX 43 1 42 2 9 3 8 4 41 5 6 6 5 7 10 8 11 9 12 10 14 11 13 12
REMARK SMILES IDX 32 13 34 14 36 15 15 16 16 17 29 18 28 19 21 20 17 21 19 22
REMARK SMILES IDX 30 23 31 24 22 26 23 27 24 28 25 29 26 30 27 31 18 32 20 34
REMARK SMILES IDX 33 36 35 38 37 40 38 42 39 43 40 44 7 46 4 48 2 49 1 51 3 52
REMARK SMILES IDX 44 53 45 55 46 56 47 58 48 59 49 60 50 62 51 63 52 64 53 65
REMARK SMILES IDX 54 66 62 67 55 68 61 69 56 70 57 71 58 72 59 74 60 75
REMARK H PARENT 31 25 18 33 20 35 33 37 35 39 37 41 40 45 7 47 4 50 44 54
REMARK H PARENT 46 57 48 61 58 73 60 76
REMARK Flexibility Score: inf
ROOT
ATOM      1  C   UNL     1      30.083  38.232   8.502  1.00  0.00     0.176 C 
ENDROOT
BRANCH   1   2
ATOM      2  C   UNL     1      28.610  38.683   8.480  1.00  0.00     0.178 C 
ATOM      3  C   UNL     1      26.425  37.978   9.034  1.00  0.00     0.272 C 
ATOM      4  C   UNL     1      25.934  38.360   7.666  1.00  0.00     0.113 C 
ATOM      5  O   UNL     1      27.807  37.745   8.974  1.00  0.00    -0.332 OA
ATOM      6  C   UNL     1      26.958  38.630   6.629  1.00  0.00     0.145 C 
ATOM      7  C   UNL     1      28.272  39.126   7.106  1.00  0.00     0.142 C 
BRANCH   3   8
ATOM      8  O   UNL     1      25.850  36.867   9.448  1.00  0.00    -0.338 OA
BRANCH   8   9
ATOM      9  C   UNL     1      24.747  36.298   9.695  1.00  0.00     0.199 C 
BRANCH   9  10
ATOM     10  C   UNL     1      24.390  35.633  10.984  1.00  0.00     0.179 C 
ATOM     11  C   UNL     1      25.178  34.071  12.459  1.00  0.00     0.282 C 
ATOM     12  O   UNL     1      25.585  35.034  11.541  1.00  0.00    -0.341 OA
ATOM     13  C   UNL     1      23.835  34.296  13.064  1.00  0.00     0.202 C 
ATOM     14  C   UNL     1      23.419  35.729  13.200  1.00  0.00     0.179 C 
ATOM     15  C   UNL     1      24.017  36.600  12.108  1.00  0.00     0.177 C 
BRANCH  11  16
ATOM     16  O   UNL     1      26.092  33.810  13.459  1.00  0.00    -0.341 OA
BRANCH  16  17
ATOM     17  C   UNL     1      27.055  34.804  13.619  1.00  0.00     0.184 C 
ATOM     18  C   UNL     1      28.348  34.348  13.015  1.00  0.00     0.178 C 
ATOM     19  O   UNL     1      29.369  34.204  13.941  1.00  0.00    -0.341 OA
ATOM     20  C   UNL     1      28.905  33.574  15.108  1.00  0.00     0.281 C 
ATOM     21  C   UNL     1      27.116  35.233  15.026  1.00  0.00     0.180 C 
ATOM     22  C   UNL     1      28.187  34.653  15.883  1.00  0.00     0.202 C 
BRANCH  18  23
ATOM     23  C   UNL     1      28.839  35.293  11.937  1.00  0.00     0.191 C 
BRANCH  23  24
ATOM     24  O   UNL     1      27.954  36.342  11.729  1.00  0.00    -0.394 OA
ATOM     25  H   UNL     1      27.062  35.925  11.500  1.00  0.00     0.210 HD
ENDBRANCH  23  24
ENDBRANCH  18  23
BRANCH  20  26
ATOM     26  O   UNL     1      30.031  33.135  15.785  1.00  0.00    -0.350 OA
BRANCH  26  27
ATOM     27  C   UNL     1      30.093  31.761  15.959  1.00  0.00     0.169 C 
BRANCH  27  28
ATOM     28  C   UNL     1      29.826  31.335  17.386  1.00  0.00     0.119 C 
BRANCH  28  29
ATOM     29  N   UNL     1      28.433  31.087  17.636  1.00  0.00    -0.092 NA
ATOM     30  N   UNL     1      27.616  30.711  16.803  1.00  0.00     0.001 N 
ATOM     31  N   UNL     1      26.887  30.429  15.853  1.00  0.00    -0.003 NA
ENDBRANCH  28  29
ENDBRANCH  27  28
ENDBRANCH  26  27
ENDBRANCH  20  26
BRANCH  21  32
ATOM     32  O   UNL     1      27.189  36.643  15.144  1.00  0.00    -0.387 OA
ATOM     33  H   UNL     1      26.290  36.898  15.531  1.00  0.00     0.211 HD
ENDBRANCH  21  32
BRANCH  22  34
ATOM     34  O   UNL     1      27.733  34.193  17.117  1.00  0.00    -0.385 OA
ATOM     35  H   UNL     1      27.731  33.225  17.190  1.00  0.00     0.211 HD
ENDBRANCH  22  34
ENDBRANCH  16  17
ENDBRANCH  11  16
BRANCH  13  36
ATOM     36  O   UNL     1      22.839  33.492  12.461  1.00  0.00    -0.385 OA
ATOM     37  H   UNL     1      22.818  32.583  12.814  1.00  0.00     0.211 HD
ENDBRANCH  13  36
BRANCH  14  38
ATOM     38  O   UNL     1      23.675  36.265  14.460  1.00  0.00    -0.387 OA
ATOM     39  H   UNL     1      23.511  35.573  15.145  1.00  0.00     0.211 HD
ENDBRANCH  14  38
BRANCH  15  40
ATOM     40  O   UNL     1      25.247  37.093  12.621  1.00  0.00    -0.387 OA
ATOM     41  H   UNL     1      25.877  36.349  12.783  1.00  0.00     0.211 HD
ENDBRANCH  15  40
ENDBRANCH   9  10
ENDBRANCH   8   9
ENDBRANCH   3   8
BRANCH   3  42
ATOM     42  C   UNL     1      26.210  39.092  10.014  1.00  0.00     0.364 C 
ATOM     43  O   UNL     1      25.441  40.031   9.638  1.00  0.00    -0.246 OA
BRANCH  42  44
ATOM     44  O   UNL     1      26.790  39.139  11.255  1.00  0.00    -0.477 OA
ATOM     45  H   UNL     1      27.663  39.651  11.427  1.00  0.00     0.296 HD
ENDBRANCH  42  44
ENDBRANCH   3  42
BRANCH   6  46
ATOM     46  O   UNL     1      27.171  37.418   5.931  1.00  0.00    -0.391 OA
ATOM     47  H   UNL     1      26.589  37.387   5.147  1.00  0.00     0.211 HD
ENDBRANCH   6  46
BRANCH   7  48
ATOM     48  N   UNL     1      28.332  40.574   6.929  1.00  0.00    -0.348 N 
ATOM     49  C   UNL     1      29.122  41.177   5.918  1.00  0.00     0.217 C 
ATOM     50  H   UNL     1      27.795  41.219   7.543  1.00  0.00     0.163 HD
ATOM     51  C   UNL     1      29.186  42.650   5.735  1.00  0.00     0.114 C 
ATOM     52  O   UNL     1      29.780  40.417   5.165  1.00  0.00    -0.275 OA
ENDBRANCH   7  48
ENDBRANCH   1   2
BRANCH   1  53
ATOM     53  O   UNL     1      30.698  38.637   7.333  1.00  0.00    -0.388 OA
ATOM     54  H   UNL     1      30.144  39.306   6.860  1.00  0.00     0.211 HD
ENDBRANCH   1  53
BRANCH   1  55
ATOM     55  C   UNL     1      30.795  38.848   9.696  1.00  0.00     0.165 C 
BRANCH  55  56
ATOM     56  O   UNL     1      30.281  38.151  10.817  1.00  0.00    -0.388 OA
ATOM     57  H   UNL     1      29.370  38.477  11.017  1.00  0.00     0.211 HD
ENDBRANCH  55  56
BRANCH  55  58
ATOM     58  C   UNL     1      30.523  40.301   9.881  1.00  0.00     0.154 C 
BRANCH  58  59
ATOM     59  N   UNL     1      29.592  40.552  10.961  1.00  0.00    -0.319 N 
ATOM     60  C   UNL     1      29.789  41.635  11.848  1.00  0.00     0.407 C 
ATOM     61  H   UNL     1      28.742  39.943  11.121  1.00  0.00     0.167 HD
ATOM     62  O   UNL     1      30.771  42.406  11.748  1.00  0.00    -0.225 OA
BRANCH  60  63
ATOM     63  O   UNL     1      28.895  41.893  12.868  1.00  0.00    -0.443 OA
BRANCH  63  64
ATOM     64  C   UNL     1      28.723  41.185  14.045  1.00  0.00     0.294 C 
BRANCH  64  65
ATOM     65  C   UNL     1      29.322  39.832  14.073  1.00  0.00     0.120 A 
ATOM     66  C   UNL     1      30.527  39.521  14.638  1.00  0.00     0.138 A 
ATOM     67  N   UNL     1      28.782  38.696  13.537  1.00  0.00    -0.132 NA
ATOM     68  N   UNL     1      30.698  38.201  14.436  1.00  0.00    -0.249 N 
ATOM     69  N   UNL     1      29.660  37.734  13.786  1.00  0.00    -0.067 NA
BRANCH  68  70
ATOM     70  C   UNL     1      31.835  37.405  14.846  1.00  0.00     0.180 C 
BRANCH  70  71
ATOM     71  C   UNL     1      31.910  36.210  13.885  1.00  0.00     0.161 C 
BRANCH  71  72
ATOM     72  O   UNL     1      32.256  36.702  12.650  1.00  0.00    -0.389 OA
ATOM     73  H   UNL     1      32.999  36.198  12.237  1.00  0.00     0.211 HD
ENDBRANCH  71  72
BRANCH  71  74
ATOM     74  C   UNL     1      32.922  35.212  14.396  1.00  0.00     0.189 C 
BRANCH  74  75
ATOM     75  O   UNL     1      32.433  33.932  14.267  1.00  0.00    -0.394 OA
ATOM     76  H   UNL     1      31.659  33.934  13.646  1.00  0.00     0.210 HD
ENDBRANCH  74  75
ENDBRANCH  71  74
ENDBRANCH  70  71
ENDBRANCH  68  70
ENDBRANCH  64  65
ENDBRANCH  63  64
ENDBRANCH  60  63
ENDBRANCH  58  59
ENDBRANCH  55  58
ENDBRANCH   1  55
TORSDOF 34
BEGIN_RES LYS A 131
REMARK  4 active torsions:
REMARK  status: ('A' for Active; 'I' for Inactive)
REMARK    1  A    between atoms: CA   and  CB  
REMARK    2  A    between atoms: CB   and  CG  
REMARK    3  A    between atoms: CG   and  CD  
REMARK    4  A    between atoms: CD   and  CE  
ROOT
ATOM      1  CA  LYS A 131      29.867  25.555  16.977  1.00 20.52     0.186 C 
ENDROOT
BRANCH   1   2
ATOM      2  CB  LYS A 131      28.345  25.722  17.026  1.00 20.94     0.034 C 
BRANCH   2   3
ATOM      3  CG  LYS A 131      27.602  24.400  16.913  1.00 22.96     0.005 C 
BRANCH   3   4
ATOM      4  CD  LYS A 131      26.161  24.523  17.327  1.00 24.33     0.041 C 
BRANCH   4   5
ATOM      5  CE  LYS A 131      25.890  23.595  18.507  1.00 26.91     0.338 C 
ATOM      6  NZ  LYS A 131      24.884  22.570  18.141  1.00 27.40     0.618 N 
ENDBRANCH   4   5
ENDBRANCH   3   4
ENDBRANCH   2   3
ENDBRANCH   1   2
END_RES LYS A 131
BEGIN_RES LYS A 135
REMARK  4 active torsions:
REMARK  status: ('A' for Active; 'I' for Inactive)
REMARK    5  A    between atoms: CA   and  CB  
REMARK    6  A    between atoms: CB   and  CG  
REMARK    7  A    between atoms: CG   and  CD  
REMARK    8  A    between atoms: CD   and  CE  
ROOT
ATOM      7  CA  LYS A 135      33.193  34.663   9.290  1.00 25.02     0.186 C 
ENDROOT
BRANCH   7   8
ATOM      8  CB  LYS A 135      32.060  35.360  10.034  1.00 26.63     0.034 C 
BRANCH   8   9
ATOM      9  CG  LYS A 135      30.699  34.786   9.734  1.00 29.45     0.005 C 
BRANCH   9  10
ATOM     10  CD  LYS A 135      30.555  34.494   8.249  1.00 32.00     0.041 C 
BRANCH  10  11
ATOM     11  CE  LYS A 135      29.166  34.862   7.766  1.00 34.25     0.338 C 
ATOM     12  NZ  LYS A 135      28.119  34.287   8.655  1.00 35.99     0.618 N 
ENDBRANCH  10  11
ENDBRANCH   9  10
ENDBRANCH   8   9
ENDBRANCH   7   8
END_RES LYS A 135
