REMARK VINA RESULT:    -5.022      4.001      8.581
REMARK INTER + INTRA:         -22.840
REMARK INTER:                 -11.775
REMARK INTRA:                 -11.065
REMARK UNBOUND:                -9.598
REMARK SMILES CC(=O)N[C@@H]1[C@@H](O)C[C@](OC[C@H]2O[C@@H](O[C@H]3[C@H](O)[C@@H](O)[C@H](OCCN=[N+]=[N-])O[C@@H]3CO)[C@H](O)[C@@H](O)[C@H]2O)(C(=O)O)O[C@H]1C(O)[C@H](O)CNC(=O)OCc1cn(Cc2ccccc2OC(C)=O)nn1
REMARK SMILES IDX 43 1 42 2 9 3 8 4 41 5 6 6 5 7 10 8 11 9 12 10 14 11 13 12
REMARK SMILES IDX 32 13 34 14 36 15 15 16 16 17 29 18 28 19 21 20 17 21 19 22
REMARK SMILES IDX 30 23 31 24 22 26 23 27 24 28 25 29 26 30 27 31 18 32 20 34
REMARK SMILES IDX 33 36 35 38 37 40 38 42 39 43 40 44 7 46 4 48 2 49 1 51 3 52
REMARK SMILES IDX 44 53 45 55 46 56 47 58 48 59 49 60 50 62 51 63 52 64 53 65
REMARK SMILES IDX 54 66 68 67 55 68 67 69 56 70 57 71 62 72 58 73 61 74 59 75
REMARK SMILES IDX 60 76 63 77 64 78 66 79 65 80
REMARK H PARENT 31 25 18 33 20 35 33 37 35 39 37 41 40 45 7 47 4 50 44 54
REMARK H PARENT 46 57 48 61
REMARK Flexibility Score: inf
ROOT
ATOM      1  C   UNL     1      31.334  33.395  15.303  1.00  0.00     0.176 C 
ENDROOT
BRANCH   1   2
ATOM      2  C   UNL     1      30.518  33.169  16.566  1.00  0.00     0.178 C 
ATOM      3  C   UNL     1      28.455  32.337  17.265  1.00  0.00     0.272 C 
ATOM      4  C   UNL     1      28.896  33.120  18.497  1.00  0.00     0.113 C 
ATOM      5  O   UNL     1      29.276  32.720  16.178  1.00  0.00    -0.332 OA
ATOM      6  C   UNL     1      29.155  34.541  18.025  1.00  0.00     0.145 C 
ATOM      7  C   UNL     1      30.413  34.535  17.245  1.00  0.00     0.142 C 
BRANCH   3   8
ATOM      8  O   UNL     1      27.177  32.612  16.881  1.00  0.00    -0.338 OA
BRANCH   8   9
ATOM      9  C   UNL     1      26.166  31.851  17.374  1.00  0.00     0.199 C 
BRANCH   9  10
ATOM     10  C   UNL     1      25.087  31.741  16.283  1.00  0.00     0.179 C 
ATOM     11  C   UNL     1      24.756  32.105  14.037  1.00  0.00     0.282 C 
ATOM     12  O   UNL     1      25.736  32.067  15.088  1.00  0.00    -0.341 OA
ATOM     13  C   UNL     1      24.432  30.679  13.764  1.00  0.00     0.202 C 
ATOM     14  C   UNL     1      23.707  30.156  15.016  1.00  0.00     0.179 C 
ATOM     15  C   UNL     1      24.517  30.360  16.252  1.00  0.00     0.177 C 
BRANCH  11  16
ATOM     16  O   UNL     1      25.367  32.827  13.041  1.00  0.00    -0.341 OA
BRANCH  16  17
ATOM     17  C   UNL     1      25.071  34.198  13.148  1.00  0.00     0.184 C 
ATOM     18  C   UNL     1      24.557  34.805  11.895  1.00  0.00     0.178 C 
ATOM     19  O   UNL     1      25.160  36.030  11.593  1.00  0.00    -0.341 OA
ATOM     20  C   UNL     1      25.241  36.904  12.669  1.00  0.00     0.281 C 
ATOM     21  C   UNL     1      26.453  34.915  13.379  1.00  0.00     0.180 C 
ATOM     22  C   UNL     1      26.093  36.316  13.793  1.00  0.00     0.202 C 
BRANCH  18  23
ATOM     23  C   UNL     1      23.069  34.864  11.752  1.00  0.00     0.191 C 
BRANCH  23  24
ATOM     24  O   UNL     1      22.480  34.564  12.971  1.00  0.00    -0.394 OA
ATOM     25  H   UNL     1      22.156  35.381  13.405  1.00  0.00     0.210 HD
ENDBRANCH  23  24
ENDBRANCH  18  23
BRANCH  20  26
ATOM     26  O   UNL     1      24.023  37.181  13.179  1.00  0.00    -0.350 OA
BRANCH  26  27
ATOM     27  C   UNL     1      23.843  38.170  14.073  1.00  0.00     0.169 C 
BRANCH  27  28
ATOM     28  C   UNL     1      22.900  37.955  15.202  1.00  0.00     0.119 C 
BRANCH  28  29
ATOM     29  N   UNL     1      23.432  37.038  16.151  1.00  0.00    -0.092 NA
ATOM     30  N   UNL     1      23.116  35.869  16.190  1.00  0.00     0.001 N 
ATOM     31  N   UNL     1      22.924  34.671  15.964  1.00  0.00    -0.003 NA
ENDBRANCH  28  29
ENDBRANCH  27  28
ENDBRANCH  26  27
ENDBRANCH  20  26
BRANCH  21  32
ATOM     32  O   UNL     1      27.176  34.219  14.316  1.00  0.00    -0.387 OA
ATOM     33  H   UNL     1      26.995  33.230  14.225  1.00  0.00     0.211 HD
ENDBRANCH  21  32
BRANCH  22  34
ATOM     34  O   UNL     1      27.198  37.081  14.094  1.00  0.00    -0.385 OA
ATOM     35  H   UNL     1      27.173  37.259  15.077  1.00  0.00     0.211 HD
ENDBRANCH  22  34
ENDBRANCH  16  17
ENDBRANCH  11  16
BRANCH  13  36
ATOM     36  O   UNL     1      23.527  30.501  12.729  1.00  0.00    -0.385 OA
ATOM     37  H   UNL     1      23.933  30.433  11.840  1.00  0.00     0.211 HD
ENDBRANCH  13  36
BRANCH  14  38
ATOM     38  O   UNL     1      23.345  28.820  14.834  1.00  0.00    -0.387 OA
ATOM     39  H   UNL     1      22.349  28.813  14.742  1.00  0.00     0.211 HD
ENDBRANCH  14  38
BRANCH  15  40
ATOM     40  O   UNL     1      25.496  29.370  16.299  1.00  0.00    -0.387 OA
ATOM     41  H   UNL     1      26.405  29.716  16.223  1.00  0.00     0.211 HD
ENDBRANCH  15  40
ENDBRANCH   9  10
ENDBRANCH   8   9
ENDBRANCH   3   8
BRANCH   3  42
ATOM     42  C   UNL     1      28.712  30.913  17.576  1.00  0.00     0.364 C 
ATOM     43  O   UNL     1      28.810  30.495  18.727  1.00  0.00    -0.246 OA
BRANCH  42  44
ATOM     44  O   UNL     1      28.848  30.014  16.516  1.00  0.00    -0.477 OA
ATOM     45  H   UNL     1      29.671  30.034  15.896  1.00  0.00     0.296 HD
ENDBRANCH  42  44
ENDBRANCH   3  42
BRANCH   6  46
ATOM     46  O   UNL     1      28.103  34.848  17.156  1.00  0.00    -0.391 OA
ATOM     47  H   UNL     1      27.590  35.647  17.423  1.00  0.00     0.211 HD
ENDBRANCH   6  46
BRANCH   7  48
ATOM     48  N   UNL     1      31.605  34.849  17.916  1.00  0.00    -0.348 N 
ATOM     49  C   UNL     1      32.397  36.000  17.644  1.00  0.00     0.217 C 
ATOM     50  H   UNL     1      31.934  34.184  18.672  1.00  0.00     0.163 HD
ATOM     51  C   UNL     1      33.643  36.295  18.369  1.00  0.00     0.114 C 
ATOM     52  O   UNL     1      31.987  36.759  16.756  1.00  0.00    -0.275 OA
ENDBRANCH   7  48
ENDBRANCH   1   2
BRANCH   1  53
ATOM     53  O   UNL     1      31.532  32.151  14.733  1.00  0.00    -0.388 OA
ATOM     54  H   UNL     1      30.952  31.953  13.968  1.00  0.00     0.211 HD
ENDBRANCH   1  53
BRANCH   1  55
ATOM     55  C   UNL     1      30.757  34.426  14.391  1.00  0.00     0.165 C 
BRANCH  55  56
ATOM     56  O   UNL     1      29.865  33.781  13.530  1.00  0.00    -0.388 OA
ATOM     57  H   UNL     1      30.290  33.074  13.021  1.00  0.00     0.211 HD
ENDBRANCH  55  56
BRANCH  55  58
ATOM     58  C   UNL     1      31.807  35.184  13.615  1.00  0.00     0.154 C 
BRANCH  58  59
ATOM     59  N   UNL     1      31.642  36.600  13.619  1.00  0.00    -0.319 N 
ATOM     60  C   UNL     1      30.540  37.279  13.040  1.00  0.00     0.407 C 
ATOM     61  H   UNL     1      32.378  37.201  14.080  1.00  0.00     0.167 HD
ATOM     62  O   UNL     1      29.652  36.587  12.483  1.00  0.00    -0.225 OA
BRANCH  60  63
ATOM     63  O   UNL     1      30.393  38.646  13.053  1.00  0.00    -0.443 OA
BRANCH  63  64
ATOM     64  C   UNL     1      31.201  39.513  12.258  1.00  0.00     0.294 C 
BRANCH  64  65
ATOM     65  C   UNL     1      30.948  39.318  10.823  1.00  0.00     0.120 A 
ATOM     66  C   UNL     1      29.793  39.707  10.186  1.00  0.00     0.138 A 
ATOM     67  N   UNL     1      31.720  38.768   9.877  1.00  0.00    -0.132 NA
ATOM     68  N   UNL     1      29.885  39.390   8.893  1.00  0.00    -0.248 N 
ATOM     69  N   UNL     1      31.090  38.810   8.737  1.00  0.00    -0.067 NA
BRANCH  68  70
ATOM     70  C   UNL     1      28.935  39.578   7.813  1.00  0.00     0.185 C 
BRANCH  70  71
ATOM     71  C   UNL     1      28.418  38.301   7.312  1.00  0.00     0.016 A 
ATOM     72  C   UNL     1      27.305  37.725   7.820  1.00  0.00     0.135 A 
ATOM     73  C   UNL     1      29.124  37.701   6.265  1.00  0.00     0.009 A 
ATOM     74  C   UNL     1      26.865  36.515   7.281  1.00  0.00     0.047 A 
ATOM     75  C   UNL     1      28.683  36.512   5.744  1.00  0.00     0.001 A 
ATOM     76  C   UNL     1      27.552  35.910   6.246  1.00  0.00     0.004 A 
BRANCH  72  77
ATOM     77  O   UNL     1      26.577  38.277   8.854  1.00  0.00    -0.426 OA
BRANCH  77  78
ATOM     78  C   UNL     1      25.309  38.791   8.560  1.00  0.00     0.308 C 
ATOM     79  O   UNL     1      25.221  39.759   7.773  1.00  0.00    -0.252 OA
ATOM     80  C   UNL     1      24.119  38.193   9.170  1.00  0.00     0.139 C 
ENDBRANCH  77  78
ENDBRANCH  72  77
ENDBRANCH  70  71
ENDBRANCH  68  70
ENDBRANCH  64  65
ENDBRANCH  63  64
ENDBRANCH  60  63
ENDBRANCH  58  59
ENDBRANCH  55  58
ENDBRANCH   1  55
TORSDOF 33
BEGIN_RES LYS A 131
REMARK  4 active torsions:
REMARK  status: ('A' for Active; 'I' for Inactive)
REMARK    1  A    between atoms: CA   and  CB  
REMARK    2  A    between atoms: CB   and  CG  
REMARK    3  A    between atoms: CG   and  CD  
REMARK    4  A    between atoms: CD   and  CE  
ROOT
ATOM      1  CA  LYS A 131      29.867  25.555  16.977  1.00 20.52     0.186 C 
ENDROOT
BRANCH   1   2
ATOM      2  CB  LYS A 131      28.345  25.722  17.026  1.00 20.94     0.034 C 
BRANCH   2   3
ATOM      3  CG  LYS A 131      27.601  24.401  16.900  1.00 22.96     0.005 C 
BRANCH   3   4
ATOM      4  CD  LYS A 131      26.147  24.534  17.257  1.00 24.33     0.041 C 
BRANCH   4   5
ATOM      5  CE  LYS A 131      25.942  24.130  18.714  1.00 26.91     0.338 C 
ATOM      6  NZ  LYS A 131      25.733  25.328  19.560  1.00 27.40     0.618 N 
ENDBRANCH   4   5
ENDBRANCH   3   4
ENDBRANCH   2   3
ENDBRANCH   1   2
END_RES LYS A 131
BEGIN_RES LYS A 135
REMARK  4 active torsions:
REMARK  status: ('A' for Active; 'I' for Inactive)
REMARK    5  A    between atoms: CA   and  CB  
REMARK    6  A    between atoms: CB   and  CG  
REMARK    7  A    between atoms: CG   and  CD  
REMARK    8  A    between atoms: CD   and  CE  
ROOT
ATOM      7  CA  LYS A 135      33.193  34.663   9.290  1.00 25.02     0.186 C 
ENDROOT
BRANCH   7   8
ATOM      8  CB  LYS A 135      32.060  35.360  10.034  1.00 26.63     0.034 C 
BRANCH   8   9
ATOM      9  CG  LYS A 135      30.735  35.285   9.320  1.00 29.45     0.005 C 
BRANCH   9  10
ATOM     10  CD  LYS A 135      29.860  34.198   9.925  1.00 32.00     0.041 C 
BRANCH  10  11
ATOM     11  CE  LYS A 135      28.643  33.948   9.055  1.00 34.25     0.338 C 
ATOM     12  NZ  LYS A 135      27.392  33.977   9.861  1.00 35.99     0.618 N 
ENDBRANCH  10  11
ENDBRANCH   9  10
ENDBRANCH   8   9
ENDBRANCH   7   8
END_RES LYS A 135
