REMARK VINA RESULT:    -5.650      0.000      0.000
REMARK INTER + INTRA:         -25.907
REMARK INTER:                 -13.961
REMARK INTRA:                 -11.947
REMARK UNBOUND:               -11.174
REMARK SMILES CC(=O)N[C@@H]1[C@@H](O)C[C@](OC[C@H]2O[C@@H](O[C@H]3[C@H](O)[C@@H](O)[C@H](OCCN=[N+]=[N-])O[C@@H]3CO)[C@H](O)[C@@H](O)[C@H]2O)(C(=O)O)O[C@H]1C(O)[C@H](O)CNC(=O)OCc1cn(-c2cc(C(=O)O)nc(-c3ccccc3)c2)nn1
REMARK SMILES IDX 9 1 8 2 6 3 5 4 42 5 41 6 10 7 11 8 12 9 14 10 13 11 32 12
REMARK SMILES IDX 34 13 36 14 15 15 16 16 29 17 28 18 21 19 17 20 19 21 30 22
REMARK SMILES IDX 31 23 22 25 23 26 24 27 25 28 26 29 27 30 18 31 20 33 33 35
REMARK SMILES IDX 35 37 37 39 38 41 39 42 40 43 7 45 43 47 44 48 45 50 46 51
REMARK SMILES IDX 47 53 48 54 49 55 50 57 51 58 52 59 53 60 54 61 72 62 55 63
REMARK SMILES IDX 71 64 56 65 57 66 70 67 58 68 63 69 62 70 59 71 60 72 61 73
REMARK SMILES IDX 64 75 65 76 69 77 66 78 68 79 67 80 4 81 2 82 1 84 3 85
REMARK H PARENT 31 24 18 32 20 34 33 36 35 38 37 40 40 44 7 46 44 49 46 52
REMARK H PARENT 48 56 61 74 4 83
REMARK Flexibility Score: inf
ROOT
ATOM      1  C   UNL     1      31.416  34.376  14.817  1.00  0.00     0.272 C 
ATOM      2  C   UNL     1      31.787  32.897  15.046  1.00  0.00     0.113 C 
ATOM      3  C   UNL     1      31.004  32.233  16.119  1.00  0.00     0.145 C 
ATOM      4  C   UNL     1      30.781  33.119  17.339  1.00  0.00     0.142 C 
ATOM      5  C   UNL     1      31.634  34.361  17.064  1.00  0.00     0.178 C 
ATOM      6  O   UNL     1      31.028  34.996  16.003  1.00  0.00    -0.332 OA
ENDROOT
BRANCH   1   7
ATOM      7  O   UNL     1      30.367  34.351  13.955  1.00  0.00    -0.338 OA
BRANCH   7   8
ATOM      8  C   UNL     1      29.517  35.407  13.899  1.00  0.00     0.199 C 
BRANCH   8   9
ATOM      9  C   UNL     1      28.060  34.946  14.157  1.00  0.00     0.179 C 
ATOM     10  C   UNL     1      26.924  33.085  15.003  1.00  0.00     0.282 C 
ATOM     11  O   UNL     1      28.107  33.677  14.641  1.00  0.00    -0.341 OA
ATOM     12  C   UNL     1      25.842  34.147  15.058  1.00  0.00     0.202 C 
ATOM     13  C   UNL     1      26.265  35.389  15.803  1.00  0.00     0.179 C 
ATOM     14  C   UNL     1      27.553  35.879  15.245  1.00  0.00     0.177 C 
BRANCH  10  15
ATOM     15  O   UNL     1      27.110  32.488  16.236  1.00  0.00    -0.341 OA
BRANCH  15  16
ATOM     16  C   UNL     1      26.121  31.593  16.608  1.00  0.00     0.184 C 
ATOM     17  C   UNL     1      25.983  31.434  18.077  1.00  0.00     0.178 C 
ATOM     18  O   UNL     1      26.241  30.136  18.486  1.00  0.00    -0.341 OA
ATOM     19  C   UNL     1      27.460  29.662  18.006  1.00  0.00     0.281 C 
ATOM     20  C   UNL     1      26.370  30.313  15.864  1.00  0.00     0.180 C 
ATOM     21  C   UNL     1      27.244  29.323  16.548  1.00  0.00     0.202 C 
BRANCH  17  22
ATOM     22  C   UNL     1      24.560  31.748  18.488  1.00  0.00     0.191 C 
BRANCH  22  23
ATOM     23  O   UNL     1      23.675  30.750  18.122  1.00  0.00    -0.394 OA
ATOM     24  H   UNL     1      23.433  30.860  17.165  1.00  0.00     0.210 HD
ENDBRANCH  22  23
ENDBRANCH  17  22
BRANCH  19  25
ATOM     25  O   UNL     1      27.744  28.499  18.706  1.00  0.00    -0.350 OA
BRANCH  25  26
ATOM     26  C   UNL     1      28.419  28.760  19.900  1.00  0.00     0.169 C 
BRANCH  26  27
ATOM     27  C   UNL     1      28.053  27.740  20.948  1.00  0.00     0.119 C 
BRANCH  27  28
ATOM     28  N   UNL     1      29.223  27.425  21.737  1.00  0.00    -0.092 NA
ATOM     29  N   UNL     1      30.264  27.153  21.157  1.00  0.00     0.001 N 
ATOM     30  N   UNL     1      31.474  27.101  20.876  1.00  0.00    -0.003 NA
ENDBRANCH  27  28
ENDBRANCH  26  27
ENDBRANCH  25  26
ENDBRANCH  19  25
BRANCH  20  31
ATOM     31  O   UNL     1      25.111  29.692  15.686  1.00  0.00    -0.387 OA
ATOM     32  H   UNL     1      24.586  29.730  16.524  1.00  0.00     0.211 HD
ENDBRANCH  20  31
BRANCH  21  33
ATOM     33  O   UNL     1      28.468  29.256  15.849  1.00  0.00    -0.385 OA
ATOM     34  H   UNL     1      28.710  30.138  15.454  1.00  0.00     0.211 HD
ENDBRANCH  21  33
ENDBRANCH  15  16
ENDBRANCH  10  15
BRANCH  12  35
ATOM     35  O   UNL     1      25.382  34.529  13.804  1.00  0.00    -0.385 OA
ATOM     36  H   UNL     1      24.436  34.816  13.950  1.00  0.00     0.211 HD
ENDBRANCH  12  35
BRANCH  13  37
ATOM     37  O   UNL     1      26.353  35.039  17.151  1.00  0.00    -0.387 OA
ATOM     38  H   UNL     1      27.115  35.546  17.531  1.00  0.00     0.211 HD
ENDBRANCH  13  37
BRANCH  14  39
ATOM     39  O   UNL     1      28.488  35.863  16.300  1.00  0.00    -0.387 OA
ATOM     40  H   UNL     1      29.301  36.349  16.088  1.00  0.00     0.211 HD
ENDBRANCH  14  39
ENDBRANCH   8   9
ENDBRANCH   7   8
ENDBRANCH   1   7
BRANCH   1  41
ATOM     41  C   UNL     1      32.625  35.089  14.334  1.00  0.00     0.364 C 
ATOM     42  O   UNL     1      33.749  34.525  14.242  1.00  0.00    -0.246 OA
BRANCH  41  43
ATOM     43  O   UNL     1      32.552  36.413  13.962  1.00  0.00    -0.477 OA
ATOM     44  H   UNL     1      32.740  37.195  14.601  1.00  0.00     0.296 HD
ENDBRANCH  41  43
ENDBRANCH   1  41
BRANCH   3  45
ATOM     45  O   UNL     1      29.843  31.640  15.673  1.00  0.00    -0.391 OA
ATOM     46  H   UNL     1      29.996  30.681  15.556  1.00  0.00     0.211 HD
ENDBRANCH   3  45
BRANCH   5  47
ATOM     47  C   UNL     1      31.900  35.185  18.266  1.00  0.00     0.176 C 
BRANCH  47  48
ATOM     48  O   UNL     1      30.726  35.905  18.587  1.00  0.00    -0.388 OA
ATOM     49  H   UNL     1      30.435  35.674  19.525  1.00  0.00     0.211 HD
ENDBRANCH  47  48
BRANCH  47  50
ATOM     50  C   UNL     1      33.071  36.124  18.178  1.00  0.00     0.165 C 
BRANCH  50  51
ATOM     51  O   UNL     1      33.851  36.002  19.311  1.00  0.00    -0.388 OA
ATOM     52  H   UNL     1      34.710  35.535  19.134  1.00  0.00     0.211 HD
ENDBRANCH  50  51
BRANCH  50  53
ATOM     53  C   UNL     1      32.504  37.514  18.025  1.00  0.00     0.154 C 
BRANCH  53  54
ATOM     54  N   UNL     1      32.383  38.000  16.698  1.00  0.00    -0.319 N 
ATOM     55  C   UNL     1      31.131  38.382  16.151  1.00  0.00     0.407 C 
ATOM     56  H   UNL     1      33.225  38.092  16.079  1.00  0.00     0.167 HD
ATOM     57  O   UNL     1      30.102  38.271  16.844  1.00  0.00    -0.225 OA
BRANCH  55  58
ATOM     58  O   UNL     1      31.037  38.885  14.839  1.00  0.00    -0.443 OA
BRANCH  58  59
ATOM     59  C   UNL     1      29.761  39.067  14.278  1.00  0.00     0.294 C 
BRANCH  59  60
ATOM     60  C   UNL     1      29.741  38.681  12.848  1.00  0.00     0.121 A 
ATOM     61  C   UNL     1      28.685  38.578  11.973  1.00  0.00     0.144 A 
ATOM     62  N   UNL     1      30.818  38.308  12.097  1.00  0.00    -0.131 NA
ATOM     63  N   UNL     1      29.107  38.162  10.759  1.00  0.00    -0.220 N 
ATOM     64  N   UNL     1      30.426  38.007  10.877  1.00  0.00    -0.062 NA
BRANCH  63  65
ATOM     65  C   UNL     1      28.304  37.914   9.619  1.00  0.00     0.071 A 
ATOM     66  C   UNL     1      28.887  38.097   8.375  1.00  0.00     0.064 A 
ATOM     67  C   UNL     1      26.992  37.490   9.645  1.00  0.00     0.057 A 
ATOM     68  C   UNL     1      28.142  37.850   7.237  1.00  0.00     0.151 A 
ATOM     69  C   UNL     1      26.266  37.248   8.521  1.00  0.00     0.073 A 
ATOM     70  N   UNL     1      26.862  37.436   7.327  1.00  0.00    -0.241 NA
BRANCH  68  71
ATOM     71  C   UNL     1      28.728  38.030   5.915  1.00  0.00     0.354 C 
ATOM     72  O   UNL     1      27.999  37.821   4.913  1.00  0.00    -0.245 OA
BRANCH  71  73
ATOM     73  O   UNL     1      30.030  38.414   5.699  1.00  0.00    -0.477 OA
ATOM     74  H   UNL     1      30.282  39.301   5.245  1.00  0.00     0.297 HD
ENDBRANCH  71  73
ENDBRANCH  68  71
BRANCH  69  75
ATOM     75  C   UNL     1      24.881  36.793   8.572  1.00  0.00     0.000 A 
ATOM     76  C   UNL     1      23.941  37.478   7.805  1.00  0.00     0.010 A 
ATOM     77  C   UNL     1      24.453  35.740   9.326  1.00  0.00     0.010 A 
ATOM     78  C   UNL     1      22.620  37.120   7.789  1.00  0.00     0.001 A 
ATOM     79  C   UNL     1      23.114  35.387   9.303  1.00  0.00     0.001 A 
ATOM     80  C   UNL     1      22.188  36.051   8.554  1.00  0.00     0.000 A 
ENDBRANCH  69  75
ENDBRANCH  63  65
ENDBRANCH  59  60
ENDBRANCH  58  59
ENDBRANCH  55  58
ENDBRANCH  53  54
ENDBRANCH  50  53
ENDBRANCH  47  50
ENDBRANCH   5  47
BRANCH   4  81
ATOM     81  N   UNL     1      31.119  32.457  18.556  1.00  0.00    -0.348 N 
ATOM     82  C   UNL     1      30.134  32.261  19.557  1.00  0.00     0.217 C 
ATOM     83  H   UNL     1      32.100  32.122  18.694  1.00  0.00     0.163 HD
ATOM     84  C   UNL     1      30.427  31.577  20.844  1.00  0.00     0.114 C 
ATOM     85  O   UNL     1      28.937  32.672  19.381  1.00  0.00    -0.275 OA
ENDBRANCH   4  81
TORSDOF 33
BEGIN_RES LYS A 131
REMARK  4 active torsions:
REMARK  status: ('A' for Active; 'I' for Inactive)
REMARK    1  A    between atoms: CA   and  CB  
REMARK    2  A    between atoms: CB   and  CG  
REMARK    3  A    between atoms: CG   and  CD  
REMARK    4  A    between atoms: CD   and  CE  
ROOT
ATOM      1  CA  LYS A 131      29.867  25.555  16.977  1.00 20.52     0.186 C 
ENDROOT
BRANCH   1   2
ATOM      2  CB  LYS A 131      28.345  25.722  17.026  1.00 20.94     0.034 C 
BRANCH   2   3
ATOM      3  CG  LYS A 131      27.600  24.418  16.789  1.00 22.96     0.005 C 
BRANCH   3   4
ATOM      4  CD  LYS A 131      26.899  23.932  18.028  1.00 24.33     0.041 C 
BRANCH   4   5
ATOM      5  CE  LYS A 131      26.005  25.040  18.574  1.00 26.91     0.338 C 
ATOM      6  NZ  LYS A 131      24.837  25.250  17.686  1.00 27.40     0.618 N 
ENDBRANCH   4   5
ENDBRANCH   3   4
ENDBRANCH   2   3
ENDBRANCH   1   2
END_RES LYS A 131
BEGIN_RES LYS A 135
REMARK  4 active torsions:
REMARK  status: ('A' for Active; 'I' for Inactive)
REMARK    5  A    between atoms: CA   and  CB  
REMARK    6  A    between atoms: CB   and  CG  
REMARK    7  A    between atoms: CG   and  CD  
REMARK    8  A    between atoms: CD   and  CE  
ROOT
ATOM      7  CA  LYS A 135      33.193  34.663   9.290  1.00 25.02     0.186 C 
ENDROOT
BRANCH   7   8
ATOM      8  CB  LYS A 135      32.060  35.360  10.034  1.00 26.63     0.034 C 
BRANCH   8   9
ATOM      9  CG  LYS A 135      30.735  34.651   9.915  1.00 29.45     0.005 C 
BRANCH   9  10
ATOM     10  CD  LYS A 135      30.299  34.570   8.460  1.00 32.00     0.041 C 
BRANCH  10  11
ATOM     11  CE  LYS A 135      28.797  34.385   8.365  1.00 34.25     0.338 C 
ATOM     12  NZ  LYS A 135      28.228  33.931   9.664  1.00 35.99     0.618 N 
ENDBRANCH  10  11
ENDBRANCH   9  10
ENDBRANCH   8   9
ENDBRANCH   7   8
END_RES LYS A 135
