REMARK VINA RESULT:    -4.542      2.165      4.228
REMARK INTER + INTRA:         -22.669
REMARK INTER:                 -12.625
REMARK INTRA:                 -10.044
REMARK UNBOUND:               -10.427
REMARK SMILES CCN(CC)CCn1cc(COC(=O)NC[C@@H](O)C(O)[C@@H]2O[C@@](OC[C@H]3O[C@@H](O[C@H]4[C@H](O)[C@@H](O)[C@H](OCCN=[N+]=[N-])O[C@@H]4CO)[C@H](O)[C@@H](O)[C@H]3O)(C(=O)O)C[C@H](O)[C@H]2NC(C)=O)nn1
REMARK SMILES IDX 19 1 21 2 23 3 55 4 22 5 56 6 58 7 24 8 25 9 26 10 28 11
REMARK SMILES IDX 27 12 46 13 48 14 50 15 29 16 30 17 43 18 42 19 35 20 31 21
REMARK SMILES IDX 33 22 44 23 45 24 36 26 37 27 38 28 39 29 40 30 41 31 32 32
REMARK SMILES IDX 34 34 47 36 49 38 51 40 52 42 53 43 54 44 57 46 59 48 60 49
REMARK SMILES IDX 61 51 62 52 20 53 17 55 18 56 16 58 15 59 13 60 14 62 12 63
REMARK SMILES IDX 11 64 10 65 9 66 63 67 8 68 64 69 7 70 6 71 3 72 2 73 1 74
REMARK SMILES IDX 4 75 5 76
REMARK H PARENT 45 25 32 33 34 35 47 37 49 39 51 41 54 45 57 47 59 50 20 54
REMARK H PARENT 18 57 15 61
REMARK Flexibility Score: inf
ROOT
ATOM      1  C   UNL     1      30.972  38.545  15.338  1.00  0.00     0.176 C 
ENDROOT
BRANCH   1   2
ATOM      2  C   UNL     1      31.856  37.361  15.629  1.00  0.00     0.178 C 
ATOM      3  C   UNL     1      32.483  35.279  14.875  1.00  0.00     0.272 C 
ATOM      4  C   UNL     1      33.478  35.505  16.023  1.00  0.00     0.113 C 
ATOM      5  O   UNL     1      31.734  36.411  14.644  1.00  0.00    -0.332 OA
ATOM      6  C   UNL     1      32.829  35.921  17.303  1.00  0.00     0.145 C 
ATOM      7  C   UNL     1      31.541  36.677  16.941  1.00  0.00     0.142 C 
BRANCH   3   8
ATOM      8  O   UNL     1      31.751  34.164  15.207  1.00  0.00    -0.338 OA
BRANCH   8   9
ATOM      9  C   UNL     1      30.709  33.851  14.369  1.00  0.00     0.199 C 
BRANCH   9  10
ATOM     10  C   UNL     1      29.961  32.597  14.856  1.00  0.00     0.179 C 
ATOM     11  C   UNL     1      30.171  31.350  16.840  1.00  0.00     0.282 C 
ATOM     12  O   UNL     1      30.760  32.013  15.773  1.00  0.00    -0.341 OA
ATOM     13  C   UNL     1      28.820  30.850  16.520  1.00  0.00     0.202 C 
ATOM     14  C   UNL     1      27.878  31.907  16.015  1.00  0.00     0.179 C 
ATOM     15  C   UNL     1      28.671  33.068  15.455  1.00  0.00     0.177 C 
BRANCH  11  16
ATOM     16  O   UNL     1      30.309  32.218  17.915  1.00  0.00    -0.341 OA
BRANCH  16  17
ATOM     17  C   UNL     1      29.861  31.736  19.094  1.00  0.00     0.184 C 
ATOM     18  C   UNL     1      29.893  32.760  20.199  1.00  0.00     0.178 C 
ATOM     19  O   UNL     1      29.297  32.173  21.352  1.00  0.00    -0.341 OA
ATOM     20  C   UNL     1      30.242  31.373  21.958  1.00  0.00     0.281 C 
ATOM     21  C   UNL     1      30.649  30.532  19.597  1.00  0.00     0.180 C 
ATOM     22  C   UNL     1      31.121  30.686  21.008  1.00  0.00     0.202 C 
BRANCH  18  23
ATOM     23  C   UNL     1      29.279  34.076  19.884  1.00  0.00     0.191 C 
BRANCH  23  24
ATOM     24  O   UNL     1      28.146  33.849  19.113  1.00  0.00    -0.394 OA
ATOM     25  H   UNL     1      27.297  33.982  19.603  1.00  0.00     0.210 HD
ENDBRANCH  23  24
ENDBRANCH  18  23
BRANCH  20  26
ATOM     26  O   UNL     1      29.681  30.554  22.933  1.00  0.00    -0.350 OA
BRANCH  26  27
ATOM     27  C   UNL     1      30.402  29.437  23.230  1.00  0.00     0.169 C 
BRANCH  27  28
ATOM     28  C   UNL     1      29.558  28.177  23.264  1.00  0.00     0.119 C 
BRANCH  28  29
ATOM     29  N   UNL     1      29.576  27.497  21.984  1.00  0.00    -0.092 NA
ATOM     30  N   UNL     1      30.612  27.043  21.481  1.00  0.00     0.001 N 
ATOM     31  N   UNL     1      31.643  27.025  20.806  1.00  0.00    -0.003 NA
ENDBRANCH  28  29
ENDBRANCH  27  28
ENDBRANCH  26  27
ENDBRANCH  20  26
BRANCH  21  32
ATOM     32  O   UNL     1      29.842  29.413  19.502  1.00  0.00    -0.387 OA
ATOM     33  H   UNL     1      29.020  29.552  18.990  1.00  0.00     0.211 HD
ENDBRANCH  21  32
BRANCH  22  34
ATOM     34  O   UNL     1      32.411  31.270  21.054  1.00  0.00    -0.385 OA
ATOM     35  H   UNL     1      32.785  31.027  21.940  1.00  0.00     0.211 HD
ENDBRANCH  22  34
ENDBRANCH  16  17
ENDBRANCH  11  16
BRANCH  13  36
ATOM     36  O   UNL     1      28.939  29.885  15.478  1.00  0.00    -0.385 OA
ATOM     37  H   UNL     1      29.042  28.988  15.842  1.00  0.00     0.211 HD
ENDBRANCH  13  36
BRANCH  14  38
ATOM     38  O   UNL     1      26.942  32.324  16.948  1.00  0.00    -0.387 OA
ATOM     39  H   UNL     1      26.573  33.202  16.760  1.00  0.00     0.211 HD
ENDBRANCH  14  38
BRANCH  15  40
ATOM     40  O   UNL     1      28.954  33.933  16.504  1.00  0.00    -0.387 OA
ATOM     41  H   UNL     1      29.533  34.684  16.184  1.00  0.00     0.211 HD
ENDBRANCH  15  40
ENDBRANCH   9  10
ENDBRANCH   8   9
ENDBRANCH   3   8
BRANCH   3  42
ATOM     42  C   UNL     1      33.342  35.020  13.693  1.00  0.00     0.364 C 
ATOM     43  O   UNL     1      33.147  35.647  12.597  1.00  0.00    -0.246 OA
BRANCH  42  44
ATOM     44  O   UNL     1      34.385  34.115  13.665  1.00  0.00    -0.477 OA
ATOM     45  H   UNL     1      35.335  34.433  13.821  1.00  0.00     0.296 HD
ENDBRANCH  42  44
ENDBRANCH   3  42
BRANCH   6  46
ATOM     46  O   UNL     1      32.621  34.911  18.211  1.00  0.00    -0.391 OA
ATOM     47  H   UNL     1      33.238  34.172  17.977  1.00  0.00     0.211 HD
ENDBRANCH   6  46
BRANCH   7  48
ATOM     48  N   UNL     1      31.132  37.550  17.988  1.00  0.00    -0.348 N 
ATOM     49  C   UNL     1      29.770  37.462  18.455  1.00  0.00     0.217 C 
ATOM     50  H   UNL     1      31.728  38.253  18.461  1.00  0.00     0.163 HD
ATOM     51  C   UNL     1      29.273  38.342  19.543  1.00  0.00     0.114 C 
ATOM     52  O   UNL     1      28.957  36.640  17.957  1.00  0.00    -0.275 OA
ENDBRANCH   7  48
ENDBRANCH   1   2
BRANCH   1  53
ATOM     53  O   UNL     1      31.728  39.701  15.481  1.00  0.00    -0.388 OA
ATOM     54  H   UNL     1      32.026  40.015  14.570  1.00  0.00     0.211 HD
ENDBRANCH   1  53
BRANCH   1  55
ATOM     55  C   UNL     1      30.535  38.418  13.901  1.00  0.00     0.165 C 
BRANCH  55  56
ATOM     56  O   UNL     1      31.369  39.204  13.098  1.00  0.00    -0.388 OA
ATOM     57  H   UNL     1      31.634  40.000  13.620  1.00  0.00     0.211 HD
ENDBRANCH  55  56
BRANCH  55  58
ATOM     58  C   UNL     1      29.117  38.761  13.630  1.00  0.00     0.154 C 
BRANCH  58  59
ATOM     59  N   UNL     1      28.396  37.762  12.917  1.00  0.00    -0.319 N 
ATOM     60  C   UNL     1      27.870  36.632  13.631  1.00  0.00     0.407 C 
ATOM     61  H   UNL     1      28.248  37.819  11.909  1.00  0.00     0.167 HD
ATOM     62  O   UNL     1      28.041  36.513  14.860  1.00  0.00    -0.225 OA
BRANCH  60  63
ATOM     63  O   UNL     1      27.167  35.675  12.917  1.00  0.00    -0.443 OA
BRANCH  63  64
ATOM     64  C   UNL     1      27.902  34.797  12.049  1.00  0.00     0.294 C 
BRANCH  64  65
ATOM     65  C   UNL     1      27.285  34.871  10.718  1.00  0.00     0.120 A 
ATOM     66  C   UNL     1      26.769  36.048  10.167  1.00  0.00     0.138 A 
ATOM     67  N   UNL     1      27.082  33.934   9.795  1.00  0.00    -0.132 NA
ATOM     68  N   UNL     1      26.282  35.773   8.944  1.00  0.00    -0.251 N 
ATOM     69  N   UNL     1      26.482  34.498   8.744  1.00  0.00    -0.067 NA
BRANCH  68  70
ATOM     70  C   UNL     1      25.655  36.696   8.016  1.00  0.00     0.161 C 
BRANCH  70  71
ATOM     71  C   UNL     1      26.464  37.974   8.021  1.00  0.00     0.108 C 
BRANCH  71  72
ATOM     72  N   UNL     1      26.249  38.790   6.861  1.00  0.00    -0.302 NA
BRANCH  72  73
ATOM     73  C   UNL     1      27.437  38.928   6.064  1.00  0.00     0.081 C 
ATOM     74  C   UNL     1      28.599  39.279   6.986  1.00  0.00     0.021 C 
ENDBRANCH  72  73
BRANCH  72  75
ATOM     75  C   UNL     1      25.615  40.037   7.158  1.00  0.00     0.081 C 
ATOM     76  C   UNL     1      24.110  39.930   7.010  1.00  0.00     0.021 C 
ENDBRANCH  72  75
ENDBRANCH  71  72
ENDBRANCH  70  71
ENDBRANCH  68  70
ENDBRANCH  64  65
ENDBRANCH  63  64
ENDBRANCH  60  63
ENDBRANCH  58  59
ENDBRANCH  55  58
ENDBRANCH   1  55
TORSDOF 34
BEGIN_RES LYS A 131
REMARK  4 active torsions:
REMARK  status: ('A' for Active; 'I' for Inactive)
REMARK    1  A    between atoms: CA   and  CB  
REMARK    2  A    between atoms: CB   and  CG  
REMARK    3  A    between atoms: CG   and  CD  
REMARK    4  A    between atoms: CD   and  CE  
ROOT
ATOM      1  CA  LYS A 131      29.867  25.555  16.977  1.00 20.52     0.186 C 
ENDROOT
BRANCH   1   2
ATOM      2  CB  LYS A 131      28.345  25.722  17.026  1.00 20.94     0.034 C 
BRANCH   2   3
ATOM      3  CG  LYS A 131      27.601  24.401  16.902  1.00 22.96     0.005 C 
BRANCH   3   4
ATOM      4  CD  LYS A 131      26.533  24.252  17.949  1.00 24.33     0.041 C 
BRANCH   4   5
ATOM      5  CE  LYS A 131      25.160  24.338  17.291  1.00 26.91     0.338 C 
ATOM      6  NZ  LYS A 131      24.516  23.003  17.256  1.00 27.40     0.618 N 
ENDBRANCH   4   5
ENDBRANCH   3   4
ENDBRANCH   2   3
ENDBRANCH   1   2
END_RES LYS A 131
BEGIN_RES LYS A 135
REMARK  4 active torsions:
REMARK  status: ('A' for Active; 'I' for Inactive)
REMARK    5  A    between atoms: CA   and  CB  
REMARK    6  A    between atoms: CB   and  CG  
REMARK    7  A    between atoms: CG   and  CD  
REMARK    8  A    between atoms: CD   and  CE  
ROOT
ATOM      7  CA  LYS A 135      33.193  34.663   9.290  1.00 25.02     0.186 C 
ENDROOT
BRANCH   7   8
ATOM      8  CB  LYS A 135      32.060  35.360  10.034  1.00 26.63     0.034 C 
BRANCH   8   9
ATOM      9  CG  LYS A 135      30.715  34.714   9.825  1.00 29.45     0.005 C 
BRANCH   9  10
ATOM     10  CD  LYS A 135      30.395  34.606   8.342  1.00 32.00     0.041 C 
BRANCH  10  11
ATOM     11  CE  LYS A 135      29.689  35.858   7.858  1.00 34.25     0.338 C 
ATOM     12  NZ  LYS A 135      28.961  35.605   6.584  1.00 35.99     0.618 N 
ENDBRANCH  10  11
ENDBRANCH   9  10
ENDBRANCH   8   9
ENDBRANCH   7   8
END_RES LYS A 135
