REMARK VINA RESULT:    -4.746      6.368     13.997
REMARK INTER + INTRA:         -22.888
REMARK INTER:                 -11.384
REMARK INTRA:                 -11.504
REMARK UNBOUND:               -10.372
REMARK SMILES CC(=O)N[C@@H]1[C@@H](O)C[C@](OC[C@H]2O[C@@H](O[C@H]3[C@H](O)[C@@H](O)[C@H](OCCN=[N+]=[N-])O[C@@H]3CO)[C@H](O)[C@@H](O)[C@H]2O)(C(=O)O)O[C@H]1C(O)[C@H](O)CNC(=O)OCc1cn(CC(=O)NCc2cccs2)nn1
REMARK SMILES IDX 43 1 42 2 9 3 8 4 41 5 6 6 5 7 10 8 11 9 12 10 14 11 13 12
REMARK SMILES IDX 32 13 34 14 36 15 15 16 16 17 29 18 28 19 21 20 17 21 19 22
REMARK SMILES IDX 30 23 31 24 22 26 23 27 24 28 25 29 26 30 27 31 18 32 20 34
REMARK SMILES IDX 33 36 35 38 37 40 38 42 39 43 40 44 7 46 4 48 2 49 1 51 3 52
REMARK SMILES IDX 44 53 45 55 46 56 47 58 48 59 49 60 50 62 51 63 52 64 53 65
REMARK SMILES IDX 54 66 67 67 55 68 66 69 56 70 57 71 58 72 59 73 60 75 61 76
REMARK SMILES IDX 62 77 65 78 63 79 64 80
REMARK H PARENT 31 25 18 33 20 35 33 37 35 39 37 41 40 45 7 47 4 50 44 54
REMARK H PARENT 46 57 48 61 59 74
REMARK Flexibility Score: inf
ROOT
ATOM      1  C   UNL     1      31.753  29.016  20.941  1.00  0.00     0.176 C 
ENDROOT
BRANCH   1   2
ATOM      2  C   UNL     1      30.946  29.727  21.995  1.00  0.00     0.178 C 
ATOM      3  C   UNL     1      30.144  31.853  21.337  1.00  0.00     0.272 C 
ATOM      4  C   UNL     1      31.500  32.421  21.788  1.00  0.00     0.113 C 
ATOM      5  O   UNL     1      30.044  30.520  21.377  1.00  0.00    -0.332 OA
ATOM      6  C   UNL     1      31.863  31.804  23.077  1.00  0.00     0.145 C 
ATOM      7  C   UNL     1      31.713  30.306  23.119  1.00  0.00     0.142 C 
BRANCH   3   8
ATOM      8  O   UNL     1      29.994  32.330  20.057  1.00  0.00    -0.338 OA
BRANCH   8   9
ATOM      9  C   UNL     1      31.044  32.702  19.323  1.00  0.00     0.199 C 
BRANCH   9  10
ATOM     10  C   UNL     1      30.938  32.725  17.825  1.00  0.00     0.179 C 
ATOM     11  C   UNL     1      29.967  31.412  16.212  1.00  0.00     0.282 C 
ATOM     12  O   UNL     1      29.841  31.880  17.527  1.00  0.00    -0.341 OA
ATOM     13  C   UNL     1      30.345  32.505  15.269  1.00  0.00     0.202 C 
ATOM     14  C   UNL     1      30.208  33.891  15.806  1.00  0.00     0.179 C 
ATOM     15  C   UNL     1      30.531  34.067  17.255  1.00  0.00     0.177 C 
BRANCH  11  16
ATOM     16  O   UNL     1      28.851  30.756  15.774  1.00  0.00    -0.341 OA
BRANCH  16  17
ATOM     17  C   UNL     1      27.845  30.671  16.734  1.00  0.00     0.184 C 
ATOM     18  C   UNL     1      27.372  29.308  16.989  1.00  0.00     0.178 C 
ATOM     19  O   UNL     1      26.111  28.964  16.583  1.00  0.00    -0.341 OA
ATOM     20  C   UNL     1      25.442  29.823  15.772  1.00  0.00     0.281 C 
ATOM     21  C   UNL     1      26.810  31.704  16.390  1.00  0.00     0.180 C 
ATOM     22  C   UNL     1      25.399  31.181  16.494  1.00  0.00     0.202 C 
BRANCH  18  23
ATOM     23  C   UNL     1      27.391  29.015  18.503  1.00  0.00     0.191 C 
BRANCH  23  24
ATOM     24  O   UNL     1      28.520  29.509  19.119  1.00  0.00    -0.394 OA
ATOM     25  H   UNL     1      29.298  29.324  18.526  1.00  0.00     0.210 HD
ENDBRANCH  23  24
ENDBRANCH  18  23
BRANCH  20  26
ATOM     26  O   UNL     1      24.095  29.426  15.716  1.00  0.00    -0.350 OA
BRANCH  26  27
ATOM     27  C   UNL     1      23.682  29.189  14.420  1.00  0.00     0.169 C 
BRANCH  27  28
ATOM     28  C   UNL     1      22.163  29.002  14.457  1.00  0.00     0.119 C 
BRANCH  28  29
ATOM     29  N   UNL     1      21.581  29.996  15.348  1.00  0.00    -0.092 NA
ATOM     30  N   UNL     1      21.233  31.085  14.897  1.00  0.00     0.001 N 
ATOM     31  N   UNL     1      20.682  32.118  14.471  1.00  0.00    -0.003 NA
ENDBRANCH  28  29
ENDBRANCH  27  28
ENDBRANCH  26  27
ENDBRANCH  20  26
BRANCH  21  32
ATOM     32  O   UNL     1      26.960  32.891  17.114  1.00  0.00    -0.387 OA
ATOM     33  H   UNL     1      26.077  33.198  17.486  1.00  0.00     0.211 HD
ENDBRANCH  21  32
BRANCH  22  34
ATOM     34  O   UNL     1      24.560  32.060  15.840  1.00  0.00    -0.385 OA
ATOM     35  H   UNL     1      24.967  32.963  15.789  1.00  0.00     0.211 HD
ENDBRANCH  22  34
ENDBRANCH  16  17
ENDBRANCH  11  16
BRANCH  13  36
ATOM     36  O   UNL     1      31.647  32.319  14.750  1.00  0.00    -0.385 OA
ATOM     37  H   UNL     1      31.735  32.579  13.820  1.00  0.00     0.211 HD
ENDBRANCH  13  36
BRANCH  14  38
ATOM     38  O   UNL     1      28.936  34.423  15.489  1.00  0.00    -0.387 OA
ATOM     39  H   UNL     1      28.998  35.406  15.406  1.00  0.00     0.211 HD
ENDBRANCH  14  38
BRANCH  15  40
ATOM     40  O   UNL     1      29.331  34.478  17.884  1.00  0.00    -0.387 OA
ATOM     41  H   UNL     1      29.277  35.456  17.979  1.00  0.00     0.211 HD
ENDBRANCH  15  40
ENDBRANCH   9  10
ENDBRANCH   8   9
ENDBRANCH   3   8
BRANCH   3  42
ATOM     42  C   UNL     1      29.157  32.477  22.273  1.00  0.00     0.364 C 
ATOM     43  O   UNL     1      28.355  31.838  22.990  1.00  0.00    -0.246 OA
BRANCH  42  44
ATOM     44  O   UNL     1      29.108  33.862  22.377  1.00  0.00    -0.477 OA
ATOM     45  H   UNL     1      29.958  34.398  22.494  1.00  0.00     0.296 HD
ENDBRANCH  42  44
ENDBRANCH   3  42
BRANCH   6  46
ATOM     46  O   UNL     1      33.190  32.192  23.423  1.00  0.00    -0.391 OA
ATOM     47  H   UNL     1      33.835  31.484  23.208  1.00  0.00     0.211 HD
ENDBRANCH   6  46
BRANCH   7  48
ATOM     48  N   UNL     1      31.200  29.876  24.405  1.00  0.00    -0.348 N 
ATOM     49  C   UNL     1      32.062  29.786  25.519  1.00  0.00     0.217 C 
ATOM     50  H   UNL     1      30.188  29.616  24.544  1.00  0.00     0.163 HD
ATOM     51  C   UNL     1      31.516  29.339  26.834  1.00  0.00     0.114 C 
ATOM     52  O   UNL     1      33.284  30.059  25.480  1.00  0.00    -0.275 OA
ENDBRANCH   7  48
ENDBRANCH   1   2
BRANCH   1  53
ATOM     53  O   UNL     1      33.096  29.258  20.958  1.00  0.00    -0.388 OA
ATOM     54  H   UNL     1      33.683  28.491  20.791  1.00  0.00     0.211 HD
ENDBRANCH   1  53
BRANCH   1  55
ATOM     55  C   UNL     1      31.410  27.554  20.750  1.00  0.00     0.165 C 
BRANCH  55  56
ATOM     56  O   UNL     1      30.146  27.348  20.288  1.00  0.00    -0.388 OA
ATOM     57  H   UNL     1      30.008  27.551  19.337  1.00  0.00     0.211 HD
ENDBRANCH  55  56
BRANCH  55  58
ATOM     58  C   UNL     1      31.658  26.788  22.038  1.00  0.00     0.154 C 
BRANCH  58  59
ATOM     59  N   UNL     1      32.954  27.036  22.596  1.00  0.00    -0.319 N 
ATOM     60  C   UNL     1      33.351  26.855  23.943  1.00  0.00     0.407 C 
ATOM     61  H   UNL     1      33.759  27.403  21.970  1.00  0.00     0.167 HD
ATOM     62  O   UNL     1      32.577  26.437  24.803  1.00  0.00    -0.225 OA
BRANCH  60  63
ATOM     63  O   UNL     1      34.663  27.148  24.365  1.00  0.00    -0.443 OA
BRANCH  63  64
ATOM     64  C   UNL     1      35.751  27.339  23.521  1.00  0.00     0.294 C 
BRANCH  64  65
ATOM     65  C   UNL     1      36.045  28.743  23.200  1.00  0.00     0.120 A 
ATOM     66  C   UNL     1      37.280  29.355  23.204  1.00  0.00     0.138 A 
ATOM     67  N   UNL     1      35.155  29.703  22.834  1.00  0.00    -0.132 NA
ATOM     68  N   UNL     1      37.121  30.637  22.851  1.00  0.00    -0.243 N 
ATOM     69  N   UNL     1      35.838  30.810  22.636  1.00  0.00    -0.067 NA
BRANCH  68  70
ATOM     70  C   UNL     1      38.093  31.697  22.700  1.00  0.00     0.245 C 
BRANCH  70  71
ATOM     71  C   UNL     1      37.712  32.517  21.535  1.00  0.00     0.242 C 
ATOM     72  O   UNL     1      38.179  32.265  20.410  1.00  0.00    -0.273 OA
ATOM     73  N   UNL     1      36.812  33.600  21.683  1.00  0.00    -0.350 N 
ATOM     74  H   UNL     1      36.394  33.849  22.623  1.00  0.00     0.163 HD
BRANCH  73  75
ATOM     75  C   UNL     1      36.417  34.419  20.579  1.00  0.00     0.162 C 
BRANCH  75  76
ATOM     76  C   UNL     1      35.064  34.941  20.823  1.00  0.00     0.024 A 
ATOM     77  C   UNL     1      34.034  35.204  19.979  1.00  0.00     0.017 A 
ATOM     78  S   UNL     1      34.420  35.370  22.401  1.00  0.00    -0.147 S 
ATOM     79  C   UNL     1      32.882  35.680  20.475  1.00  0.00     0.012 A 
ATOM     80  C   UNL     1      32.752  35.894  21.797  1.00  0.00     0.065 A 
ENDBRANCH  75  76
ENDBRANCH  73  75
ENDBRANCH  70  71
ENDBRANCH  68  70
ENDBRANCH  64  65
ENDBRANCH  63  64
ENDBRANCH  60  63
ENDBRANCH  58  59
ENDBRANCH  55  58
ENDBRANCH   1  55
TORSDOF 33
BEGIN_RES LYS A 131
REMARK  4 active torsions:
REMARK  status: ('A' for Active; 'I' for Inactive)
REMARK    1  A    between atoms: CA   and  CB  
REMARK    2  A    between atoms: CB   and  CG  
REMARK    3  A    between atoms: CG   and  CD  
REMARK    4  A    between atoms: CD   and  CE  
ROOT
ATOM      1  CA  LYS A 131      29.867  25.555  16.977  1.00 20.52     0.186 C 
ENDROOT
BRANCH   1   2
ATOM      2  CB  LYS A 131      28.345  25.722  17.026  1.00 20.94     0.034 C 
BRANCH   2   3
ATOM      3  CG  LYS A 131      27.601  24.405  16.869  1.00 22.96     0.005 C 
BRANCH   3   4
ATOM      4  CD  LYS A 131      26.638  24.160  17.998  1.00 24.33     0.041 C 
BRANCH   4   5
ATOM      5  CE  LYS A 131      26.441  25.450  18.787  1.00 26.91     0.338 C 
ATOM      6  NZ  LYS A 131      25.424  25.258  19.849  1.00 27.40     0.618 N 
ENDBRANCH   4   5
ENDBRANCH   3   4
ENDBRANCH   2   3
ENDBRANCH   1   2
END_RES LYS A 131
BEGIN_RES LYS A 135
REMARK  4 active torsions:
REMARK  status: ('A' for Active; 'I' for Inactive)
REMARK    5  A    between atoms: CA   and  CB  
REMARK    6  A    between atoms: CB   and  CG  
REMARK    7  A    between atoms: CG   and  CD  
REMARK    8  A    between atoms: CD   and  CE  
ROOT
ATOM      7  CA  LYS A 135      33.193  34.663   9.290  1.00 25.02     0.186 C 
ENDROOT
BRANCH   7   8
ATOM      8  CB  LYS A 135      32.060  35.360  10.034  1.00 26.63     0.034 C 
BRANCH   8   9
ATOM      9  CG  LYS A 135      30.741  35.310   9.307  1.00 29.45     0.005 C 
BRANCH   9  10
ATOM     10  CD  LYS A 135      29.705  34.557  10.127  1.00 32.00     0.041 C 
BRANCH  10  11
ATOM     11  CE  LYS A 135      28.609  34.013   9.230  1.00 34.25     0.338 C 
ATOM     12  NZ  LYS A 135      28.594  34.713   7.916  1.00 35.99     0.618 N 
ENDBRANCH  10  11
ENDBRANCH   9  10
ENDBRANCH   8   9
ENDBRANCH   7   8
END_RES LYS A 135
