REMARK VINA RESULT:    -5.081      5.447      9.266
REMARK INTER + INTRA:         -21.630
REMARK INTER:                  -9.730
REMARK INTRA:                 -11.899
REMARK UNBOUND:                -9.122
REMARK SMILES CC(=O)N[C@@H]1[C@@H](O)C[C@](OC[C@H]2O[C@@H](O[C@H]3[C@H](O)[C@@H](O)[C@H](OCCN=[N+]=[N-])O[C@@H]3CO)[C@H](O)[C@@H](O)[C@H]2O)(C(=O)O)O[C@H]1C(O)[C@H](O)CNC(=O)OCc1cn(-c2ccc(Cl)cc2)nn1
REMARK SMILES IDX 9 1 8 2 6 3 5 4 42 5 41 6 10 7 11 8 12 9 14 10 13 11 32 12
REMARK SMILES IDX 34 13 36 14 15 15 16 16 29 17 28 18 21 19 17 20 19 21 30 22
REMARK SMILES IDX 31 23 22 25 23 26 24 27 25 28 26 29 27 30 18 31 20 33 33 35
REMARK SMILES IDX 35 37 37 39 38 41 39 42 40 43 7 45 43 47 44 48 45 50 46 51
REMARK SMILES IDX 47 53 48 54 49 55 50 57 51 58 52 59 53 60 54 61 64 62 55 63
REMARK SMILES IDX 63 64 56 65 57 66 62 67 58 68 61 69 59 70 60 71 4 72 2 73
REMARK SMILES IDX 1 75 3 76
REMARK H PARENT 31 24 18 32 20 34 33 36 35 38 37 40 40 44 7 46 44 49 46 52
REMARK H PARENT 48 56 4 74
REMARK Flexibility Score: inf
ROOT
ATOM      1  C   UNL     1      31.512  34.103  15.042  1.00  0.00     0.272 C 
ATOM      2  C   UNL     1      31.526  32.630  15.007  1.00  0.00     0.113 C 
ATOM      3  C   UNL     1      30.974  31.866  16.140  1.00  0.00     0.145 C 
ATOM      4  C   UNL     1      30.283  32.795  17.115  1.00  0.00     0.142 C 
ATOM      5  C   UNL     1      31.270  33.967  17.301  1.00  0.00     0.178 C 
ATOM      6  O   UNL     1      30.975  34.734  16.132  1.00  0.00    -0.332 OA
ENDROOT
BRANCH   1   7
ATOM      7  O   UNL     1      30.814  34.539  13.881  1.00  0.00    -0.338 OA
BRANCH   7   8
ATOM      8  C   UNL     1      31.254  35.743  13.403  1.00  0.00     0.199 C 
BRANCH   8   9
ATOM      9  C   UNL     1      30.130  36.774  13.338  1.00  0.00     0.179 C 
ATOM     10  C   UNL     1      28.683  37.565  15.015  1.00  0.00     0.282 C 
ATOM     11  O   UNL     1      29.136  36.508  14.224  1.00  0.00    -0.341 OA
ATOM     12  C   UNL     1      29.819  38.071  15.801  1.00  0.00     0.202 C 
ATOM     13  C   UNL     1      30.896  38.590  14.858  1.00  0.00     0.179 C 
ATOM     14  C   UNL     1      30.666  38.184  13.437  1.00  0.00     0.177 C 
BRANCH  10  15
ATOM     15  O   UNL     1      27.621  37.003  15.721  1.00  0.00    -0.341 OA
BRANCH  15  16
ATOM     16  C   UNL     1      26.891  36.079  15.106  1.00  0.00     0.184 C 
ATOM     17  C   UNL     1      25.423  36.300  15.190  1.00  0.00     0.178 C 
ATOM     18  O   UNL     1      24.739  35.498  14.282  1.00  0.00    -0.341 OA
ATOM     19  C   UNL     1      24.916  34.160  14.429  1.00  0.00     0.281 C 
ATOM     20  C   UNL     1      27.119  34.639  15.610  1.00  0.00     0.180 C 
ATOM     21  C   UNL     1      25.877  33.828  15.511  1.00  0.00     0.202 C 
BRANCH  17  22
ATOM     22  C   UNL     1      24.938  37.708  15.043  1.00  0.00     0.191 C 
BRANCH  22  23
ATOM     23  O   UNL     1      25.503  38.351  13.942  1.00  0.00    -0.394 OA
ATOM     24  H   UNL     1      25.025  38.073  13.125  1.00  0.00     0.210 HD
ENDBRANCH  22  23
ENDBRANCH  17  22
BRANCH  19  25
ATOM     25  O   UNL     1      25.399  33.601  13.241  1.00  0.00    -0.350 OA
BRANCH  25  26
ATOM     26  C   UNL     1      25.135  34.413  12.149  1.00  0.00     0.169 C 
BRANCH  26  27
ATOM     27  C   UNL     1      26.223  34.419  11.119  1.00  0.00     0.119 C 
BRANCH  27  28
ATOM     28  N   UNL     1      27.322  35.212  11.665  1.00  0.00    -0.092 NA
ATOM     29  N   UNL     1      27.253  36.435  11.450  1.00  0.00     0.001 N 
ATOM     30  N   UNL     1      27.046  37.662  11.567  1.00  0.00    -0.003 NA
ENDBRANCH  27  28
ENDBRANCH  26  27
ENDBRANCH  25  26
ENDBRANCH  19  25
BRANCH  20  31
ATOM     31  O   UNL     1      28.100  34.092  14.800  1.00  0.00    -0.387 OA
ATOM     32  H   UNL     1      27.710  34.059  13.870  1.00  0.00     0.211 HD
ENDBRANCH  20  31
BRANCH  21  33
ATOM     33  O   UNL     1      25.191  33.742  16.740  1.00  0.00    -0.385 OA
ATOM     34  H   UNL     1      24.400  34.315  16.633  1.00  0.00     0.211 HD
ENDBRANCH  21  33
ENDBRANCH  15  16
ENDBRANCH  10  15
BRANCH  12  35
ATOM     35  O   UNL     1      29.519  39.090  16.706  1.00  0.00    -0.385 OA
ATOM     36  H   UNL     1      30.250  39.788  16.727  1.00  0.00     0.211 HD
ENDBRANCH  12  35
BRANCH  13  37
ATOM     37  O   UNL     1      32.135  38.196  15.357  1.00  0.00    -0.387 OA
ATOM     38  H   UNL     1      32.888  38.718  15.040  1.00  0.00     0.211 HD
ENDBRANCH  13  37
BRANCH  14  39
ATOM     39  O   UNL     1      31.903  38.158  12.747  1.00  0.00    -0.387 OA
ATOM     40  H   UNL     1      31.792  38.715  11.956  1.00  0.00     0.211 HD
ENDBRANCH  14  39
ENDBRANCH   8   9
ENDBRANCH   7   8
ENDBRANCH   1   7
BRANCH   1  41
ATOM     41  C   UNL     1      32.923  34.600  14.855  1.00  0.00     0.364 C 
ATOM     42  O   UNL     1      33.378  35.559  15.517  1.00  0.00    -0.246 OA
BRANCH  41  43
ATOM     43  O   UNL     1      33.733  33.986  13.933  1.00  0.00    -0.477 OA
ATOM     44  H   UNL     1      33.385  33.445  13.144  1.00  0.00     0.296 HD
ENDBRANCH  41  43
ENDBRANCH   1  41
BRANCH   3  45
ATOM     45  O   UNL     1      30.016  30.947  15.714  1.00  0.00    -0.391 OA
ATOM     46  H   UNL     1      30.438  30.345  15.072  1.00  0.00     0.211 HD
ENDBRANCH   3  45
BRANCH   5  47
ATOM     47  C   UNL     1      30.971  34.799  18.496  1.00  0.00     0.176 C 
BRANCH  47  48
ATOM     48  O   UNL     1      31.878  34.459  19.490  1.00  0.00    -0.388 OA
ATOM     49  H   UNL     1      31.693  33.597  19.936  1.00  0.00     0.211 HD
ENDBRANCH  47  48
BRANCH  47  50
ATOM     50  C   UNL     1      30.839  36.256  18.358  1.00  0.00     0.165 C 
BRANCH  50  51
ATOM     51  O   UNL     1      32.165  36.714  18.021  1.00  0.00    -0.388 OA
ATOM     52  H   UNL     1      32.284  37.643  18.328  1.00  0.00     0.211 HD
ENDBRANCH  50  51
BRANCH  50  53
ATOM     53  C   UNL     1      30.588  36.969  19.678  1.00  0.00     0.154 C 
BRANCH  53  54
ATOM     54  N   UNL     1      31.714  37.713  20.170  1.00  0.00    -0.319 N 
ATOM     55  C   UNL     1      31.719  39.124  20.023  1.00  0.00     0.407 C 
ATOM     56  H   UNL     1      32.542  37.268  20.633  1.00  0.00     0.167 HD
ATOM     57  O   UNL     1      30.767  39.742  19.457  1.00  0.00    -0.225 OA
BRANCH  55  58
ATOM     58  O   UNL     1      32.772  39.882  20.496  1.00  0.00    -0.443 OA
BRANCH  58  59
ATOM     59  C   UNL     1      33.731  40.483  19.621  1.00  0.00     0.294 C 
BRANCH  59  60
ATOM     60  C   UNL     1      34.258  39.469  18.662  1.00  0.00     0.121 A 
ATOM     61  C   UNL     1      35.167  38.468  18.976  1.00  0.00     0.144 A 
ATOM     62  N   UNL     1      33.969  39.333  17.361  1.00  0.00    -0.131 NA
ATOM     63  N   UNL     1      35.399  37.761  17.863  1.00  0.00    -0.220 N 
ATOM     64  N   UNL     1      34.676  38.296  16.921  1.00  0.00    -0.062 NA
BRANCH  63  65
ATOM     65  C   UNL     1      36.294  36.647  17.830  1.00  0.00     0.066 A 
ATOM     66  C   UNL     1      36.594  35.940  18.967  1.00  0.00     0.030 A 
ATOM     67  C   UNL     1      36.873  36.260  16.654  1.00  0.00     0.030 A 
ATOM     68  C   UNL     1      37.464  34.847  18.967  1.00  0.00     0.023 A 
ATOM     69  C   UNL     1      37.741  35.178  16.624  1.00  0.00     0.023 A 
ATOM     70  C   UNL     1      38.041  34.465  17.786  1.00  0.00     0.041 A 
ATOM     71  Cl  UNL     1      39.148  33.090  17.734  1.00  0.00    -0.084 Cl
ENDBRANCH  63  65
ENDBRANCH  59  60
ENDBRANCH  58  59
ENDBRANCH  55  58
ENDBRANCH  53  54
ENDBRANCH  50  53
ENDBRANCH  47  50
ENDBRANCH   5  47
BRANCH   4  72
ATOM     72  N   UNL     1      29.924  32.126  18.308  1.00  0.00    -0.348 N 
ATOM     73  C   UNL     1      28.564  31.693  18.500  1.00  0.00     0.217 C 
ATOM     74  H   UNL     1      30.571  31.898  19.080  1.00  0.00     0.163 HD
ATOM     75  C   UNL     1      28.152  30.985  19.746  1.00  0.00     0.114 C 
ATOM     76  O   UNL     1      27.731  31.926  17.588  1.00  0.00    -0.275 OA
ENDBRANCH   4  72
TORSDOF 30
BEGIN_RES LYS A 131
REMARK  4 active torsions:
REMARK  status: ('A' for Active; 'I' for Inactive)
REMARK    1  A    between atoms: CA   and  CB  
REMARK    2  A    between atoms: CB   and  CG  
REMARK    3  A    between atoms: CG   and  CD  
REMARK    4  A    between atoms: CD   and  CE  
ROOT
ATOM      1  CA  LYS A 131      29.867  25.555  16.977  1.00 20.52     0.186 C 
ENDROOT
BRANCH   1   2
ATOM      2  CB  LYS A 131      28.345  25.722  17.026  1.00 20.94     0.034 C 
BRANCH   2   3
ATOM      3  CG  LYS A 131      27.601  24.403  16.888  1.00 22.96     0.005 C 
BRANCH   3   4
ATOM      4  CD  LYS A 131      26.161  24.518  17.303  1.00 24.33     0.041 C 
BRANCH   4   5
ATOM      5  CE  LYS A 131      25.918  25.891  17.922  1.00 26.91     0.338 C 
ATOM      6  NZ  LYS A 131      24.500  26.290  17.761  1.00 27.40     0.618 N 
ENDBRANCH   4   5
ENDBRANCH   3   4
ENDBRANCH   2   3
ENDBRANCH   1   2
END_RES LYS A 131
BEGIN_RES LYS A 135
REMARK  4 active torsions:
REMARK  status: ('A' for Active; 'I' for Inactive)
REMARK    5  A    between atoms: CA   and  CB  
REMARK    6  A    between atoms: CB   and  CG  
REMARK    7  A    between atoms: CG   and  CD  
REMARK    8  A    between atoms: CD   and  CE  
ROOT
ATOM      7  CA  LYS A 135      33.193  34.663   9.290  1.00 25.02     0.186 C 
ENDROOT
BRANCH   7   8
ATOM      8  CB  LYS A 135      32.060  35.360  10.034  1.00 26.63     0.034 C 
BRANCH   8   9
ATOM      9  CG  LYS A 135      30.822  35.558   9.198  1.00 29.45     0.005 C 
BRANCH   9  10
ATOM     10  CD  LYS A 135      30.057  34.252   9.053  1.00 32.00     0.041 C 
BRANCH  10  11
ATOM     11  CE  LYS A 135      28.732  34.485   8.353  1.00 34.25     0.338 C 
ATOM     12  NZ  LYS A 135      28.906  35.339   7.146  1.00 35.99     0.618 N 
ENDBRANCH  10  11
ENDBRANCH   9  10
ENDBRANCH   8   9
ENDBRANCH   7   8
END_RES LYS A 135
