REMARK VINA RESULT:    -4.580      2.601      6.310
REMARK INTER + INTRA:         -21.889
REMARK INTER:                 -10.576
REMARK INTRA:                 -11.313
REMARK UNBOUND:               -10.616
REMARK SMILES CC(=O)N[C@@H]1[C@@H](O)C[C@](OC[C@H]2O[C@@H](O[C@H]3[C@H](O)[C@@H](O)[C@H](OCCN=[N+]=[N-])O[C@@H]3CO)[C@H](O)[C@@H](O)[C@H]2O)(C(=O)O)O[C@H]1C(O)[C@H](O)CNC(=O)OCc1cn(C2CCCC2)nn1
REMARK SMILES IDX 9 1 8 2 6 3 5 4 42 5 41 6 10 7 11 8 12 9 14 10 13 11 32 12
REMARK SMILES IDX 34 13 36 14 15 15 16 16 29 17 28 18 21 19 17 20 19 21 30 22
REMARK SMILES IDX 31 23 22 25 23 26 24 27 25 28 26 29 27 30 18 31 20 33 33 35
REMARK SMILES IDX 35 37 37 39 38 41 39 42 40 43 7 45 43 47 44 48 45 50 46 51
REMARK SMILES IDX 47 53 48 54 49 55 50 57 51 58 52 59 53 60 54 61 62 62 55 63
REMARK SMILES IDX 61 64 56 65 57 66 60 67 58 68 59 69 4 70 2 71 1 73 3 74
REMARK H PARENT 31 24 18 32 20 34 33 36 35 38 37 40 40 44 7 46 44 49 46 52
REMARK H PARENT 48 56 4 72
REMARK Flexibility Score: inf
ROOT
ATOM      1  C   UNL     1      24.375  36.990   9.507  1.00  0.00     0.272 C 
ATOM      2  C   UNL     1      23.380  36.265  10.334  1.00  0.00     0.113 C 
ATOM      3  C   UNL     1      22.108  35.940   9.633  1.00  0.00     0.145 C 
ATOM      4  C   UNL     1      21.553  37.198   8.921  1.00  0.00     0.142 C 
ATOM      5  C   UNL     1      22.488  38.321   9.206  1.00  0.00     0.178 C 
ATOM      6  O   UNL     1      23.729  37.887   8.625  1.00  0.00    -0.332 OA
ENDROOT
BRANCH   1   7
ATOM      7  O   UNL     1      25.166  36.187   8.767  1.00  0.00    -0.338 OA
BRANCH   7   8
ATOM      8  C   UNL     1      26.278  35.619   9.333  1.00  0.00     0.199 C 
BRANCH   8   9
ATOM      9  C   UNL     1      27.085  34.982   8.204  1.00  0.00     0.179 C 
ATOM     10  C   UNL     1      28.548  36.685   7.584  1.00  0.00     0.282 C 
ATOM     11  O   UNL     1      27.482  35.860   7.248  1.00  0.00    -0.341 OA
ATOM     12  C   UNL     1      29.529  36.053   8.510  1.00  0.00     0.202 C 
ATOM     13  C   UNL     1      29.528  34.556   8.484  1.00  0.00     0.179 C 
ATOM     14  C   UNL     1      28.123  34.089   8.771  1.00  0.00     0.177 C 
BRANCH  10  15
ATOM     15  O   UNL     1      28.116  37.943   7.999  1.00  0.00    -0.341 OA
BRANCH  15  16
ATOM     16  C   UNL     1      27.967  38.826   6.929  1.00  0.00     0.184 C 
ATOM     17  C   UNL     1      28.862  40.018   6.986  1.00  0.00     0.178 C 
ATOM     18  O   UNL     1      28.557  40.855   5.915  1.00  0.00    -0.341 OA
ATOM     19  C   UNL     1      27.385  41.542   6.175  1.00  0.00     0.281 C 
ATOM     20  C   UNL     1      26.537  39.343   7.016  1.00  0.00     0.180 C 
ATOM     21  C   UNL     1      26.271  40.512   6.124  1.00  0.00     0.202 C 
BRANCH  17  22
ATOM     22  C   UNL     1      30.339  39.681   6.814  1.00  0.00     0.191 C 
BRANCH  22  23
ATOM     23  O   UNL     1      30.376  38.630   5.883  1.00  0.00    -0.394 OA
ATOM     24  H   UNL     1      29.560  38.597   5.356  1.00  0.00     0.210 HD
ENDBRANCH  22  23
ENDBRANCH  17  22
BRANCH  19  25
ATOM     25  O   UNL     1      27.154  42.448   5.143  1.00  0.00    -0.350 OA
BRANCH  25  26
ATOM     26  C   UNL     1      27.457  43.749   5.578  1.00  0.00     0.169 C 
BRANCH  26  27
ATOM     27  C   UNL     1      26.291  44.684   5.309  1.00  0.00     0.119 C 
BRANCH  27  28
ATOM     28  N   UNL     1      25.096  44.216   5.947  1.00  0.00    -0.092 NA
ATOM     29  N   UNL     1      24.975  44.195   7.189  1.00  0.00     0.001 N 
ATOM     30  N   UNL     1      25.101  43.762   8.332  1.00  0.00    -0.003 NA
ENDBRANCH  27  28
ENDBRANCH  26  27
ENDBRANCH  25  26
ENDBRANCH  19  25
BRANCH  20  31
ATOM     31  O   UNL     1      25.719  38.289   6.619  1.00  0.00    -0.387 OA
ATOM     32  H   UNL     1      25.550  38.277   5.644  1.00  0.00     0.211 HD
ENDBRANCH  20  31
BRANCH  21  33
ATOM     33  O   UNL     1      25.109  41.153   6.582  1.00  0.00    -0.385 OA
ATOM     34  H   UNL     1      24.680  40.510   7.203  1.00  0.00     0.211 HD
ENDBRANCH  21  33
ENDBRANCH  15  16
ENDBRANCH  10  15
BRANCH  12  35
ATOM     35  O   UNL     1      30.852  36.444   8.196  1.00  0.00    -0.385 OA
ATOM     36  H   UNL     1      31.219  35.766   7.598  1.00  0.00     0.211 HD
ENDBRANCH  12  35
BRANCH  13  37
ATOM     37  O   UNL     1      30.360  34.079   9.480  1.00  0.00    -0.387 OA
ATOM     38  H   UNL     1      29.851  33.433  10.017  1.00  0.00     0.211 HD
ENDBRANCH  13  37
BRANCH  14  39
ATOM     39  O   UNL     1      28.006  33.876  10.138  1.00  0.00    -0.387 OA
ATOM     40  H   UNL     1      28.374  34.597  10.669  1.00  0.00     0.211 HD
ENDBRANCH  14  39
ENDBRANCH   8   9
ENDBRANCH   7   8
ENDBRANCH   1   7
BRANCH   1  41
ATOM     41  C   UNL     1      25.170  37.907  10.409  1.00  0.00     0.364 C 
ATOM     42  O   UNL     1      25.233  37.745  11.638  1.00  0.00    -0.246 OA
BRANCH  41  43
ATOM     43  O   UNL     1      25.834  38.959   9.771  1.00  0.00    -0.477 OA
ATOM     44  H   UNL     1      26.833  39.103   9.966  1.00  0.00     0.296 HD
ENDBRANCH  41  43
ENDBRANCH   1  41
BRANCH   3  45
ATOM     45  O   UNL     1      22.146  34.857   8.793  1.00  0.00    -0.391 OA
ATOM     46  H   UNL     1      22.820  34.209   9.102  1.00  0.00     0.211 HD
ENDBRANCH   3  45
BRANCH   5  47
ATOM     47  C   UNL     1      22.188  39.610   8.482  1.00  0.00     0.176 C 
BRANCH  47  48
ATOM     48  O   UNL     1      22.935  39.533   7.233  1.00  0.00    -0.388 OA
ATOM     49  H   UNL     1      22.388  40.084   6.627  1.00  0.00     0.211 HD
ENDBRANCH  47  48
BRANCH  47  50
ATOM     50  C   UNL     1      22.754  40.858   9.101  1.00  0.00     0.165 C 
BRANCH  50  51
ATOM     51  O   UNL     1      24.096  40.972   9.190  1.00  0.00    -0.388 OA
ATOM     52  H   UNL     1      24.508  40.560   9.980  1.00  0.00     0.211 HD
ENDBRANCH  50  51
BRANCH  50  53
ATOM     53  C   UNL     1      22.179  40.978  10.508  1.00  0.00     0.154 C 
BRANCH  53  54
ATOM     54  N   UNL     1      23.265  41.382  11.411  1.00  0.00    -0.319 N 
ATOM     55  C   UNL     1      23.545  40.646  12.590  1.00  0.00     0.407 C 
ATOM     56  H   UNL     1      23.861  42.226  11.209  1.00  0.00     0.167 HD
ATOM     57  O   UNL     1      22.849  39.633  12.858  1.00  0.00    -0.225 OA
BRANCH  55  58
ATOM     58  O   UNL     1      24.558  41.012  13.446  1.00  0.00    -0.443 OA
BRANCH  58  59
ATOM     59  C   UNL     1      25.601  41.887  13.058  1.00  0.00     0.294 C 
BRANCH  59  60
ATOM     60  C   UNL     1      26.686  41.205  12.317  1.00  0.00     0.120 A 
ATOM     61  C   UNL     1      27.672  40.350  12.755  1.00  0.00     0.138 A 
ATOM     62  N   UNL     1      26.899  41.326  10.988  1.00  0.00    -0.132 NA
ATOM     63  N   UNL     1      28.428  39.989  11.715  1.00  0.00    -0.249 N 
ATOM     64  N   UNL     1      27.927  40.602  10.654  1.00  0.00    -0.067 NA
BRANCH  63  65
ATOM     65  C   UNL     1      29.583  39.100  11.697  1.00  0.00     0.109 C 
ATOM     66  C   UNL     1      30.336  39.151  10.408  1.00  0.00     0.027 C 
ATOM     67  C   UNL     1      30.574  39.583  12.734  1.00  0.00     0.027 C 
ATOM     68  C   UNL     1      31.445  40.158  10.566  1.00  0.00     0.002 C 
ATOM     69  C   UNL     1      31.517  40.510  12.029  1.00  0.00     0.002 C 
ENDBRANCH  63  65
ENDBRANCH  59  60
ENDBRANCH  58  59
ENDBRANCH  55  58
ENDBRANCH  53  54
ENDBRANCH  50  53
ENDBRANCH  47  50
ENDBRANCH   5  47
BRANCH   4  70
ATOM     70  N   UNL     1      20.179  37.383   9.325  1.00  0.00    -0.348 N 
ATOM     71  C   UNL     1      19.105  36.995   8.434  1.00  0.00     0.217 C 
ATOM     72  H   UNL     1      19.896  37.770  10.249  1.00  0.00     0.163 HD
ATOM     73  C   UNL     1      17.687  37.176   8.829  1.00  0.00     0.114 C 
ATOM     74  O   UNL     1      19.355  36.496   7.304  1.00  0.00    -0.275 OA
ENDBRANCH   4  70
TORSDOF 30
BEGIN_RES LYS A 131
REMARK  4 active torsions:
REMARK  status: ('A' for Active; 'I' for Inactive)
REMARK    1  A    between atoms: CA   and  CB  
REMARK    2  A    between atoms: CB   and  CG  
REMARK    3  A    between atoms: CG   and  CD  
REMARK    4  A    between atoms: CD   and  CE  
ROOT
ATOM      1  CA  LYS A 131      29.867  25.555  16.977  1.00 20.52     0.186 C 
ENDROOT
BRANCH   1   2
ATOM      2  CB  LYS A 131      28.345  25.722  17.026  1.00 20.94     0.034 C 
BRANCH   2   3
ATOM      3  CG  LYS A 131      27.603  24.395  16.978  1.00 22.96     0.005 C 
BRANCH   3   4
ATOM      4  CD  LYS A 131      26.120  24.569  17.152  1.00 24.33     0.041 C 
BRANCH   4   5
ATOM      5  CE  LYS A 131      25.792  24.683  18.637  1.00 26.91     0.338 C 
ATOM      6  NZ  LYS A 131      25.730  23.340  19.260  1.00 27.40     0.618 N 
ENDBRANCH   4   5
ENDBRANCH   3   4
ENDBRANCH   2   3
ENDBRANCH   1   2
END_RES LYS A 131
BEGIN_RES LYS A 135
REMARK  4 active torsions:
REMARK  status: ('A' for Active; 'I' for Inactive)
REMARK    5  A    between atoms: CA   and  CB  
REMARK    6  A    between atoms: CB   and  CG  
REMARK    7  A    between atoms: CG   and  CD  
REMARK    8  A    between atoms: CD   and  CE  
ROOT
ATOM      7  CA  LYS A 135      33.193  34.663   9.290  1.00 25.02     0.186 C 
ENDROOT
BRANCH   7   8
ATOM      8  CB  LYS A 135      32.060  35.360  10.034  1.00 26.63     0.034 C 
BRANCH   8   9
ATOM      9  CG  LYS A 135      32.520  36.141  11.238  1.00 29.45     0.005 C 
BRANCH   9  10
ATOM     10  CD  LYS A 135      31.587  35.910  12.416  1.00 32.00     0.041 C 
BRANCH  10  11
ATOM     11  CE  LYS A 135      32.363  35.913  13.719  1.00 34.25     0.338 C 
ATOM     12  NZ  LYS A 135      31.673  36.735  14.752  1.00 35.99     0.618 N 
ENDBRANCH  10  11
ENDBRANCH   9  10
ENDBRANCH   8   9
ENDBRANCH   7   8
END_RES LYS A 135
