REMARK VINA RESULT:    -4.118      6.963     14.165
REMARK INTER + INTRA:         -20.753
REMARK INTER:                 -10.606
REMARK INTRA:                 -10.147
REMARK UNBOUND:               -10.616
REMARK SMILES CC(=O)N[C@@H]1[C@@H](O)C[C@](OC[C@H]2O[C@@H](O[C@H]3[C@H](O)[C@@H](O)[C@H](OCCN=[N+]=[N-])O[C@@H]3CO)[C@H](O)[C@@H](O)[C@H]2O)(C(=O)O)O[C@H]1C(O)[C@H](O)CNC(=O)OCc1cn(C2CCCC2)nn1
REMARK SMILES IDX 9 1 8 2 6 3 5 4 42 5 41 6 10 7 11 8 12 9 14 10 13 11 32 12
REMARK SMILES IDX 34 13 36 14 15 15 16 16 29 17 28 18 21 19 17 20 19 21 30 22
REMARK SMILES IDX 31 23 22 25 23 26 24 27 25 28 26 29 27 30 18 31 20 33 33 35
REMARK SMILES IDX 35 37 37 39 38 41 39 42 40 43 7 45 43 47 44 48 45 50 46 51
REMARK SMILES IDX 47 53 48 54 49 55 50 57 51 58 52 59 53 60 54 61 62 62 55 63
REMARK SMILES IDX 61 64 56 65 57 66 60 67 58 68 59 69 4 70 2 71 1 73 3 74
REMARK H PARENT 31 24 18 32 20 34 33 36 35 38 37 40 40 44 7 46 44 49 46 52
REMARK H PARENT 48 56 4 72
REMARK Flexibility Score: inf
ROOT
ATOM      1  C   UNL     1      30.400  30.612  21.929  1.00  0.00     0.272 C 
ATOM      2  C   UNL     1      31.379  31.101  22.931  1.00  0.00     0.113 C 
ATOM      3  C   UNL     1      32.798  31.053  22.486  1.00  0.00     0.145 C 
ATOM      4  C   UNL     1      33.127  29.659  21.897  1.00  0.00     0.142 C 
ATOM      5  C   UNL     1      31.896  28.830  21.998  1.00  0.00     0.178 C 
ATOM      6  O   UNL     1      30.941  29.536  21.188  1.00  0.00    -0.332 OA
ENDROOT
BRANCH   1   7
ATOM      7  O   UNL     1      29.997  31.552  21.049  1.00  0.00    -0.338 OA
BRANCH   7   8
ATOM      8  C   UNL     1      30.204  31.360  19.707  1.00  0.00     0.199 C 
BRANCH   8   9
ATOM      9  C   UNL     1      28.883  31.650  18.999  1.00  0.00     0.179 C 
ATOM     10  C   UNL     1      29.564  32.294  16.867  1.00  0.00     0.282 C 
ATOM     11  O   UNL     1      28.960  32.637  18.071  1.00  0.00    -0.341 OA
ATOM     12  C   UNL     1      29.352  30.874  16.471  1.00  0.00     0.202 C 
ATOM     13  C   UNL     1      28.143  30.235  17.081  1.00  0.00     0.179 C 
ATOM     14  C   UNL     1      28.250  30.378  18.579  1.00  0.00     0.177 C 
BRANCH  10  15
ATOM     15  O   UNL     1      30.898  32.694  16.827  1.00  0.00    -0.341 OA
BRANCH  15  16
ATOM     16  C   UNL     1      31.028  34.080  16.749  1.00  0.00     0.184 C 
ATOM     17  C   UNL     1      31.566  34.577  15.449  1.00  0.00     0.178 C 
ATOM     18  O   UNL     1      31.726  35.958  15.532  1.00  0.00    -0.341 OA
ATOM     19  C   UNL     1      32.852  36.257  16.278  1.00  0.00     0.281 C 
ATOM     20  C   UNL     1      32.042  34.461  17.821  1.00  0.00     0.180 C 
ATOM     21  C   UNL     1      32.526  35.871  17.709  1.00  0.00     0.202 C 
BRANCH  17  22
ATOM     22  C   UNL     1      30.620  34.359  14.274  1.00  0.00     0.191 C 
BRANCH  22  23
ATOM     23  O   UNL     1      30.753  33.002  13.935  1.00  0.00    -0.394 OA
ATOM     24  H   UNL     1      30.121  32.749  13.242  1.00  0.00     0.210 HD
ENDBRANCH  22  23
ENDBRANCH  17  22
BRANCH  19  25
ATOM     25  O   UNL     1      33.053  37.634  16.261  1.00  0.00    -0.350 OA
BRANCH  25  26
ATOM     26  C   UNL     1      31.891  38.278  15.804  1.00  0.00     0.169 C 
BRANCH  26  27
ATOM     27  C   UNL     1      31.443  39.335  16.798  1.00  0.00     0.119 C 
BRANCH  27  28
ATOM     28  N   UNL     1      30.453  38.815  17.695  1.00  0.00    -0.092 NA
ATOM     29  N   UNL     1      29.624  37.954  17.337  1.00  0.00     0.001 N 
ATOM     30  N   UNL     1      28.599  37.514  16.821  1.00  0.00    -0.003 NA
ENDBRANCH  27  28
ENDBRANCH  26  27
ENDBRANCH  25  26
ENDBRANCH  19  25
BRANCH  20  31
ATOM     31  O   UNL     1      31.388  34.314  19.042  1.00  0.00    -0.387 OA
ATOM     32  H   UNL     1      31.309  35.163  19.542  1.00  0.00     0.211 HD
ENDBRANCH  20  31
BRANCH  21  33
ATOM     33  O   UNL     1      33.721  35.979  18.438  1.00  0.00    -0.385 OA
ATOM     34  H   UNL     1      33.445  36.058  19.388  1.00  0.00     0.211 HD
ENDBRANCH  21  33
ENDBRANCH  15  16
ENDBRANCH  10  15
BRANCH  12  35
ATOM     35  O   UNL     1      29.188  30.753  15.071  1.00  0.00    -0.385 OA
ATOM     36  H   UNL     1      28.535  31.425  14.799  1.00  0.00     0.211 HD
ENDBRANCH  12  35
BRANCH  13  37
ATOM     37  O   UNL     1      28.127  28.889  16.769  1.00  0.00    -0.387 OA
ATOM     38  H   UNL     1      27.988  28.804  15.799  1.00  0.00     0.211 HD
ENDBRANCH  13  37
BRANCH  14  39
ATOM     39  O   UNL     1      28.868  29.240  19.081  1.00  0.00    -0.387 OA
ATOM     40  H   UNL     1      29.221  29.362  19.974  1.00  0.00     0.211 HD
ENDBRANCH  14  39
ENDBRANCH   8   9
ENDBRANCH   7   8
ENDBRANCH   1   7
BRANCH   1  41
ATOM     41  C   UNL     1      29.240  29.977  22.663  1.00  0.00     0.364 C 
ATOM     42  O   UNL     1      28.314  29.398  22.075  1.00  0.00    -0.246 OA
BRANCH  41  43
ATOM     43  O   UNL     1      29.274  30.084  24.056  1.00  0.00    -0.477 OA
ATOM     44  H   UNL     1      28.779  30.866  24.504  1.00  0.00     0.296 HD
ENDBRANCH  41  43
ENDBRANCH   1  41
BRANCH   3  45
ATOM     45  O   UNL     1      33.200  32.065  21.653  1.00  0.00    -0.391 OA
ATOM     46  H   UNL     1      33.514  31.697  20.795  1.00  0.00     0.211 HD
ENDBRANCH   3  45
BRANCH   5  47
ATOM     47  C   UNL     1      31.978  27.471  21.348  1.00  0.00     0.176 C 
BRANCH  47  48
ATOM     48  O   UNL     1      32.066  27.734  19.917  1.00  0.00    -0.388 OA
ATOM     49  H   UNL     1      32.503  26.918  19.579  1.00  0.00     0.211 HD
ENDBRANCH  47  48
BRANCH  47  50
ATOM     50  C   UNL     1      30.736  26.628  21.429  1.00  0.00     0.165 C 
BRANCH  50  51
ATOM     51  O   UNL     1      29.664  27.001  20.697  1.00  0.00    -0.388 OA
ATOM     52  H   UNL     1      29.830  27.689  20.017  1.00  0.00     0.211 HD
ENDBRANCH  50  51
BRANCH  50  53
ATOM     53  C   UNL     1      30.309  26.573  22.891  1.00  0.00     0.154 C 
BRANCH  53  54
ATOM     54  N   UNL     1      28.861  26.322  22.934  1.00  0.00    -0.319 N 
ATOM     55  C   UNL     1      28.081  26.738  24.043  1.00  0.00     0.407 C 
ATOM     56  H   UNL     1      28.367  25.828  22.147  1.00  0.00     0.167 HD
ATOM     57  O   UNL     1      28.645  27.331  24.999  1.00  0.00    -0.225 OA
BRANCH  55  58
ATOM     58  O   UNL     1      26.725  26.510  24.098  1.00  0.00    -0.443 OA
BRANCH  58  59
ATOM     59  C   UNL     1      26.025  25.847  23.063  1.00  0.00     0.294 C 
BRANCH  59  60
ATOM     60  C   UNL     1      25.914  26.654  21.826  1.00  0.00     0.120 A 
ATOM     61  C   UNL     1      24.956  27.559  21.428  1.00  0.00     0.138 A 
ATOM     62  N   UNL     1      26.807  26.628  20.812  1.00  0.00    -0.132 NA
ATOM     63  N   UNL     1      25.284  28.037  20.225  1.00  0.00    -0.249 N 
ATOM     64  N   UNL     1      26.417  27.449  19.881  1.00  0.00    -0.067 NA
BRANCH  63  65
ATOM     65  C   UNL     1      24.570  29.014  19.411  1.00  0.00     0.109 C 
ATOM     66  C   UNL     1      24.861  28.880  17.953  1.00  0.00     0.027 C 
ATOM     67  C   UNL     1      23.086  28.742  19.529  1.00  0.00     0.027 C 
ATOM     68  C   UNL     1      23.797  27.997  17.354  1.00  0.00     0.002 C 
ATOM     69  C   UNL     1      22.726  27.825  18.400  1.00  0.00     0.002 C 
ENDBRANCH  63  65
ENDBRANCH  59  60
ENDBRANCH  58  59
ENDBRANCH  55  58
ENDBRANCH  53  54
ENDBRANCH  50  53
ENDBRANCH  47  50
ENDBRANCH   5  47
BRANCH   4  70
ATOM     70  N   UNL     1      34.306  29.150  22.558  1.00  0.00    -0.348 N 
ATOM     71  C   UNL     1      34.215  28.646  23.912  1.00  0.00     0.217 C 
ATOM     72  H   UNL     1      35.244  29.101  22.109  1.00  0.00     0.163 HD
ATOM     73  C   UNL     1      35.412  28.118  24.610  1.00  0.00     0.114 C 
ATOM     74  O   UNL     1      33.113  28.645  24.526  1.00  0.00    -0.275 OA
ENDBRANCH   4  70
TORSDOF 30
BEGIN_RES LYS A 131
REMARK  4 active torsions:
REMARK  status: ('A' for Active; 'I' for Inactive)
REMARK    1  A    between atoms: CA   and  CB  
REMARK    2  A    between atoms: CB   and  CG  
REMARK    3  A    between atoms: CG   and  CD  
REMARK    4  A    between atoms: CD   and  CE  
ROOT
ATOM      1  CA  LYS A 131      29.867  25.555  16.977  1.00 20.52     0.186 C 
ENDROOT
BRANCH   1   2
ATOM      2  CB  LYS A 131      28.345  25.722  17.026  1.00 20.94     0.034 C 
BRANCH   2   3
ATOM      3  CG  LYS A 131      27.602  24.399  16.924  1.00 22.96     0.005 C 
BRANCH   3   4
ATOM      4  CD  LYS A 131      26.698  24.164  18.102  1.00 24.33     0.041 C 
BRANCH   4   5
ATOM      5  CE  LYS A 131      25.538  23.267  17.684  1.00 26.91     0.338 C 
ATOM      6  NZ  LYS A 131      24.523  24.047  16.936  1.00 27.40     0.618 N 
ENDBRANCH   4   5
ENDBRANCH   3   4
ENDBRANCH   2   3
ENDBRANCH   1   2
END_RES LYS A 131
BEGIN_RES LYS A 135
REMARK  4 active torsions:
REMARK  status: ('A' for Active; 'I' for Inactive)
REMARK    5  A    between atoms: CA   and  CB  
REMARK    6  A    between atoms: CB   and  CG  
REMARK    7  A    between atoms: CG   and  CD  
REMARK    8  A    between atoms: CD   and  CE  
ROOT
ATOM      7  CA  LYS A 135      33.193  34.663   9.290  1.00 25.02     0.186 C 
ENDROOT
BRANCH   7   8
ATOM      8  CB  LYS A 135      32.060  35.360  10.034  1.00 26.63     0.034 C 
BRANCH   8   9
ATOM      9  CG  LYS A 135      30.732  35.275   9.326  1.00 29.45     0.005 C 
BRANCH   9  10
ATOM     10  CD  LYS A 135      29.602  35.698  10.252  1.00 32.00     0.041 C 
BRANCH  10  11
ATOM     11  CE  LYS A 135      28.754  34.501  10.639  1.00 34.25     0.338 C 
ATOM     12  NZ  LYS A 135      28.303  33.752   9.433  1.00 35.99     0.618 N 
ENDBRANCH  10  11
ENDBRANCH   9  10
ENDBRANCH   8   9
ENDBRANCH   7   8
END_RES LYS A 135
