REMARK VINA RESULT:    -3.622      2.822      6.931
REMARK INTER + INTRA:         -21.459
REMARK INTER:                  -8.822
REMARK INTRA:                 -12.636
REMARK UNBOUND:               -12.543
REMARK SMILES CC(=O)N[C@@H]1[C@@H](O)C[C@](OC[C@H]2O[C@@H](O[C@H]3[C@H](O)[C@@H](O)[C@H](OCCN=[N+]=[N-])O[C@@H]3CO)[C@H](O)[C@@H](O)[C@H]2O)(C(=O)O)O[C@H]1C(O)[C@H](O)CNC(=O)OCc1cn(-c2ccncc2)nn1
REMARK SMILES IDX 9 1 8 2 6 3 5 4 42 5 41 6 10 7 11 8 12 9 14 10 13 11 32 12
REMARK SMILES IDX 34 13 36 14 15 15 16 16 29 17 28 18 21 19 17 20 19 21 30 22
REMARK SMILES IDX 31 23 22 25 23 26 24 27 25 28 26 29 27 30 18 31 20 33 33 35
REMARK SMILES IDX 35 37 37 39 38 41 39 42 40 43 7 45 43 47 44 48 45 50 46 51
REMARK SMILES IDX 47 53 48 54 49 55 50 57 51 58 52 59 53 60 54 61 63 62 55 63
REMARK SMILES IDX 62 64 56 65 57 66 61 67 58 68 60 69 59 70 4 71 2 72 1 74
REMARK SMILES IDX 3 75
REMARK H PARENT 31 24 18 32 20 34 33 36 35 38 37 40 40 44 7 46 44 49 46 52
REMARK H PARENT 48 56 4 73
REMARK Flexibility Score: inf
ROOT
ATOM      1  C   UNL     1      27.608  31.402  16.684  1.00  0.00     0.272 C 
ATOM      2  C   UNL     1      27.166  31.266  18.155  1.00  0.00     0.113 C 
ATOM      3  C   UNL     1      27.789  32.383  18.999  1.00  0.00     0.145 C 
ATOM      4  C   UNL     1      29.324  32.074  19.045  1.00  0.00     0.142 C 
ATOM      5  C   UNL     1      29.746  31.900  17.615  1.00  0.00     0.178 C 
ATOM      6  O   UNL     1      28.698  32.288  16.790  1.00  0.00    -0.332 OA
ENDROOT
BRANCH   1   7
ATOM      7  O   UNL     1      26.700  32.052  15.983  1.00  0.00    -0.338 OA
BRANCH   7   8
ATOM      8  C   UNL     1      25.867  31.936  15.047  1.00  0.00     0.199 C 
BRANCH   8   9
ATOM      9  C   UNL     1      24.725  32.893  14.887  1.00  0.00     0.179 C 
ATOM     10  C   UNL     1      24.484  35.219  14.651  1.00  0.00     0.282 C 
ATOM     11  O   UNL     1      25.363  34.171  14.799  1.00  0.00    -0.341 OA
ATOM     12  C   UNL     1      23.733  35.112  13.361  1.00  0.00     0.202 C 
ATOM     13  C   UNL     1      23.054  33.744  13.275  1.00  0.00     0.179 C 
ATOM     14  C   UNL     1      24.100  32.693  13.502  1.00  0.00     0.177 C 
BRANCH  10  15
ATOM     15  O   UNL     1      25.328  36.359  14.620  1.00  0.00    -0.341 OA
BRANCH  15  16
ATOM     16  C   UNL     1      25.419  36.995  15.812  1.00  0.00     0.184 C 
ATOM     17  C   UNL     1      26.404  36.414  16.744  1.00  0.00     0.178 C 
ATOM     18  O   UNL     1      26.507  37.207  17.905  1.00  0.00    -0.341 OA
ATOM     19  C   UNL     1      25.332  36.804  18.645  1.00  0.00     0.281 C 
ATOM     20  C   UNL     1      24.015  36.928  16.490  1.00  0.00     0.180 C 
ATOM     21  C   UNL     1      24.169  37.382  17.929  1.00  0.00     0.202 C 
BRANCH  17  22
ATOM     22  C   UNL     1      27.749  36.226  16.152  1.00  0.00     0.191 C 
BRANCH  22  23
ATOM     23  O   UNL     1      27.942  34.927  15.657  1.00  0.00    -0.394 OA
ATOM     24  H   UNL     1      28.135  35.024  14.679  1.00  0.00     0.210 HD
ENDBRANCH  22  23
ENDBRANCH  17  22
BRANCH  19  25
ATOM     25  O   UNL     1      25.496  37.359  19.883  1.00  0.00    -0.350 OA
BRANCH  25  26
ATOM     26  C   UNL     1      25.623  36.434  20.874  1.00  0.00     0.169 C 
BRANCH  26  27
ATOM     27  C   UNL     1      26.795  36.589  21.788  1.00  0.00     0.119 C 
BRANCH  27  28
ATOM     28  N   UNL     1      27.875  35.672  21.481  1.00  0.00    -0.092 NA
ATOM     29  N   UNL     1      28.677  35.834  20.572  1.00  0.00     0.001 N 
ATOM     30  N   UNL     1      29.259  35.945  19.489  1.00  0.00    -0.003 NA
ENDBRANCH  27  28
ENDBRANCH  26  27
ENDBRANCH  25  26
ENDBRANCH  19  25
BRANCH  20  31
ATOM     31  O   UNL     1      23.225  37.836  15.827  1.00  0.00    -0.387 OA
ATOM     32  H   UNL     1      23.212  37.657  14.834  1.00  0.00     0.211 HD
ENDBRANCH  20  31
BRANCH  21  33
ATOM     33  O   UNL     1      23.001  37.134  18.636  1.00  0.00    -0.385 OA
ATOM     34  H   UNL     1      22.732  36.191  18.490  1.00  0.00     0.211 HD
ENDBRANCH  21  33
ENDBRANCH  15  16
ENDBRANCH  10  15
BRANCH  12  35
ATOM     35  O   UNL     1      22.699  36.077  13.297  1.00  0.00    -0.385 OA
ATOM     36  H   UNL     1      22.109  35.780  12.565  1.00  0.00     0.211 HD
ENDBRANCH  12  35
BRANCH  13  37
ATOM     37  O   UNL     1      22.429  33.533  12.069  1.00  0.00    -0.387 OA
ATOM     38  H   UNL     1      22.195  34.410  11.631  1.00  0.00     0.211 HD
ENDBRANCH  13  37
BRANCH  14  39
ATOM     39  O   UNL     1      25.157  32.826  12.589  1.00  0.00    -0.387 OA
ATOM     40  H   UNL     1      25.330  33.803  12.424  1.00  0.00     0.211 HD
ENDBRANCH  14  39
ENDBRANCH   8   9
ENDBRANCH   7   8
ENDBRANCH   1   7
BRANCH   1  41
ATOM     41  C   UNL     1      28.003  30.102  16.133  1.00  0.00     0.364 C 
ATOM     42  O   UNL     1      27.535  29.007  16.588  1.00  0.00    -0.246 OA
BRANCH  41  43
ATOM     43  O   UNL     1      28.899  29.961  15.099  1.00  0.00    -0.477 OA
ATOM     44  H   UNL     1      29.057  29.141  14.555  1.00  0.00     0.296 HD
ENDBRANCH  41  43
ENDBRANCH   1  41
BRANCH   3  45
ATOM     45  O   UNL     1      27.638  33.583  18.359  1.00  0.00    -0.391 OA
ATOM     46  H   UNL     1      28.186  33.649  17.554  1.00  0.00     0.211 HD
ENDBRANCH   3  45
BRANCH   5  47
ATOM     47  C   UNL     1      30.863  32.861  17.188  1.00  0.00     0.176 C 
BRANCH  47  48
ATOM     48  O   UNL     1      30.245  34.146  17.518  1.00  0.00    -0.388 OA
ATOM     49  H   UNL     1      29.278  33.952  17.705  1.00  0.00     0.211 HD
ENDBRANCH  47  48
BRANCH  47  50
ATOM     50  C   UNL     1      31.205  32.906  15.764  1.00  0.00     0.165 C 
BRANCH  50  51
ATOM     51  O   UNL     1      31.321  31.719  15.081  1.00  0.00    -0.388 OA
ATOM     52  H   UNL     1      31.454  30.955  15.702  1.00  0.00     0.211 HD
ENDBRANCH  50  51
BRANCH  50  53
ATOM     53  C   UNL     1      32.087  34.016  15.338  1.00  0.00     0.154 C 
BRANCH  53  54
ATOM     54  N   UNL     1      31.499  34.984  14.450  1.00  0.00    -0.319 N 
ATOM     55  C   UNL     1      31.130  36.270  14.912  1.00  0.00     0.407 C 
ATOM     56  H   UNL     1      31.344  34.698  13.467  1.00  0.00     0.167 HD
ATOM     57  O   UNL     1      31.340  36.524  16.119  1.00  0.00    -0.225 OA
BRANCH  55  58
ATOM     58  O   UNL     1      30.565  37.236  14.129  1.00  0.00    -0.443 OA
BRANCH  58  59
ATOM     59  C   UNL     1      30.381  37.175  12.731  1.00  0.00     0.294 C 
BRANCH  59  60
ATOM     60  C   UNL     1      29.063  36.557  12.370  1.00  0.00     0.121 A 
ATOM     61  C   UNL     1      28.056  37.045  11.568  1.00  0.00     0.144 A 
ATOM     62  N   UNL     1      28.621  35.351  12.802  1.00  0.00    -0.131 NA
ATOM     63  N   UNL     1      27.054  36.148  11.533  1.00  0.00    -0.220 N 
ATOM     64  N   UNL     1      27.424  35.118  12.297  1.00  0.00    -0.062 NA
BRANCH  63  65
ATOM     65  C   UNL     1      25.841  36.298  10.809  1.00  0.00     0.069 A 
ATOM     66  C   UNL     1      25.306  35.332   9.984  1.00  0.00     0.048 A 
ATOM     67  C   UNL     1      25.150  37.482  10.945  1.00  0.00     0.048 A 
ATOM     68  C   UNL     1      24.116  35.519   9.302  1.00  0.00     0.113 A 
ATOM     69  C   UNL     1      23.961  37.660  10.258  1.00  0.00     0.113 A 
ATOM     70  N   UNL     1      23.472  36.698   9.466  1.00  0.00    -0.265 NA
ENDBRANCH  63  65
ENDBRANCH  59  60
ENDBRANCH  58  59
ENDBRANCH  55  58
ENDBRANCH  53  54
ENDBRANCH  50  53
ENDBRANCH  47  50
ENDBRANCH   5  47
BRANCH   4  71
ATOM     71  N   UNL     1      29.378  30.861  19.824  1.00  0.00    -0.348 N 
ATOM     72  C   UNL     1      30.472  30.463  20.622  1.00  0.00     0.217 C 
ATOM     73  H   UNL     1      28.562  30.221  19.806  1.00  0.00     0.163 HD
ATOM     74  C   UNL     1      30.413  29.200  21.374  1.00  0.00     0.114 C 
ATOM     75  O   UNL     1      31.489  31.181  20.694  1.00  0.00    -0.275 OA
ENDBRANCH   4  71
TORSDOF 30
BEGIN_RES LYS A 131
REMARK  4 active torsions:
REMARK  status: ('A' for Active; 'I' for Inactive)
REMARK    1  A    between atoms: CA   and  CB  
REMARK    2  A    between atoms: CB   and  CG  
REMARK    3  A    between atoms: CG   and  CD  
REMARK    4  A    between atoms: CD   and  CE  
ROOT
ATOM      1  CA  LYS A 131      29.867  25.555  16.977  1.00 20.52     0.186 C 
ENDROOT
BRANCH   1   2
ATOM      2  CB  LYS A 131      28.345  25.722  17.026  1.00 20.94     0.034 C 
BRANCH   2   3
ATOM      3  CG  LYS A 131      27.602  24.398  16.940  1.00 22.96     0.005 C 
BRANCH   3   4
ATOM      4  CD  LYS A 131      26.482  24.310  17.940  1.00 24.33     0.041 C 
BRANCH   4   5
ATOM      5  CE  LYS A 131      26.247  25.683  18.561  1.00 26.91     0.338 C 
ATOM      6  NZ  LYS A 131      25.528  25.552  19.851  1.00 27.40     0.618 N 
ENDBRANCH   4   5
ENDBRANCH   3   4
ENDBRANCH   2   3
ENDBRANCH   1   2
END_RES LYS A 131
BEGIN_RES LYS A 135
REMARK  4 active torsions:
REMARK  status: ('A' for Active; 'I' for Inactive)
REMARK    5  A    between atoms: CA   and  CB  
REMARK    6  A    between atoms: CB   and  CG  
REMARK    7  A    between atoms: CG   and  CD  
REMARK    8  A    between atoms: CD   and  CE  
ROOT
ATOM      7  CA  LYS A 135      33.193  34.663   9.290  1.00 25.02     0.186 C 
ENDROOT
BRANCH   7   8
ATOM      8  CB  LYS A 135      32.060  35.360  10.034  1.00 26.63     0.034 C 
BRANCH   8   9
ATOM      9  CG  LYS A 135      30.736  34.651   9.916  1.00 29.45     0.005 C 
BRANCH   9  10
ATOM     10  CD  LYS A 135      30.327  34.518   8.457  1.00 32.00     0.041 C 
BRANCH  10  11
ATOM     11  CE  LYS A 135      28.816  34.526   8.324  1.00 34.25     0.338 C 
ATOM     12  NZ  LYS A 135      28.368  35.561   7.352  1.00 35.99     0.618 N 
ENDBRANCH  10  11
ENDBRANCH   9  10
ENDBRANCH   8   9
ENDBRANCH   7   8
END_RES LYS A 135
