REMARK VINA RESULT:    -6.082      3.719      9.593
REMARK INTER + INTRA:         -22.902
REMARK INTER:                 -12.911
REMARK INTRA:                  -9.991
REMARK UNBOUND:                -7.575
REMARK SMILES CC(=O)N[C@@H]1[C@@H](O)C[C@](OC[C@H]2O[C@@H](O[C@H]3[C@H](O)[C@@H](O)[C@H](OCCN=[N+]=[N-])O[C@@H]3CO)[C@H](O)[C@@H](O)[C@H]2O)(C(=O)O)O[C@H]1C(O)[C@H](O)CNC(=O)OCc1cn(Cc2ccccc2Br)nn1
REMARK SMILES IDX 9 1 8 2 6 3 5 4 42 5 41 6 10 7 11 8 12 9 14 10 13 11 32 12
REMARK SMILES IDX 34 13 36 14 15 15 16 16 29 17 28 18 21 19 17 20 19 21 30 22
REMARK SMILES IDX 31 23 22 25 23 26 24 27 25 28 26 29 27 30 18 31 20 33 33 35
REMARK SMILES IDX 35 37 37 39 38 41 39 42 40 43 7 45 43 47 44 48 45 50 46 51
REMARK SMILES IDX 47 53 48 54 49 55 50 57 51 58 52 59 53 60 54 61 65 62 55 63
REMARK SMILES IDX 64 64 56 65 57 66 58 67 62 68 59 69 61 70 63 71 60 72 4 73
REMARK SMILES IDX 2 74 1 76 3 77
REMARK H PARENT 31 24 18 32 20 34 33 36 35 38 37 40 40 44 7 46 44 49 46 52
REMARK H PARENT 48 56 4 75
REMARK Flexibility Score: inf
ROOT
ATOM      1  C   UNL     1      24.044  37.569   9.089  1.00  0.00     0.272 C 
ATOM      2  C   UNL     1      22.784  37.011   8.555  1.00  0.00     0.113 C 
ATOM      3  C   UNL     1      22.484  35.678   9.140  1.00  0.00     0.145 C 
ATOM      4  C   UNL     1      22.432  35.792  10.637  1.00  0.00     0.142 C 
ATOM      5  C   UNL     1      23.389  36.766  11.207  1.00  0.00     0.178 C 
ATOM      6  O   UNL     1      23.699  37.868  10.490  1.00  0.00    -0.332 OA
ENDROOT
BRANCH   1   7
ATOM      7  O   UNL     1      24.413  38.765   8.594  1.00  0.00    -0.338 OA
BRANCH   7   8
ATOM      8  C   UNL     1      25.058  39.072   7.515  1.00  0.00     0.199 C 
BRANCH   8   9
ATOM      9  C   UNL     1      26.497  39.158   7.256  1.00  0.00     0.179 C 
ATOM     10  C   UNL     1      28.656  38.558   7.745  1.00  0.00     0.282 C 
ATOM     11  O   UNL     1      27.304  38.135   7.763  1.00  0.00    -0.341 OA
ATOM     12  C   UNL     1      29.119  38.423   6.322  1.00  0.00     0.202 C 
ATOM     13  C   UNL     1      28.179  39.083   5.374  1.00  0.00     0.179 C 
ATOM     14  C   UNL     1      26.968  39.742   5.975  1.00  0.00     0.177 C 
BRANCH  10  15
ATOM     15  O   UNL     1      29.326  37.751   8.615  1.00  0.00    -0.341 OA
BRANCH  15  16
ATOM     16  C   UNL     1      29.663  38.257   9.834  1.00  0.00     0.184 C 
ATOM     17  C   UNL     1      29.245  39.659  10.105  1.00  0.00     0.178 C 
ATOM     18  O   UNL     1      30.346  40.358  10.593  1.00  0.00    -0.341 OA
ATOM     19  C   UNL     1      31.282  40.393   9.529  1.00  0.00     0.281 C 
ATOM     20  C   UNL     1      31.133  38.065  10.175  1.00  0.00     0.180 C 
ATOM     21  C   UNL     1      31.997  39.072   9.443  1.00  0.00     0.202 C 
BRANCH  17  22
ATOM     22  C   UNL     1      28.171  39.743  11.188  1.00  0.00     0.191 C 
BRANCH  22  23
ATOM     23  O   UNL     1      26.906  39.526  10.640  1.00  0.00    -0.394 OA
ATOM     24  H   UNL     1      26.251  39.224  11.310  1.00  0.00     0.210 HD
ENDBRANCH  22  23
ENDBRANCH  17  22
BRANCH  19  25
ATOM     25  O   UNL     1      32.130  41.462   9.808  1.00  0.00    -0.350 OA
BRANCH  25  26
ATOM     26  C   UNL     1      31.866  42.560   8.989  1.00  0.00     0.169 C 
BRANCH  26  27
ATOM     27  C   UNL     1      31.667  42.044   7.574  1.00  0.00     0.119 C 
BRANCH  27  28
ATOM     28  N   UNL     1      32.967  41.824   6.993  1.00  0.00    -0.092 NA
ATOM     29  N   UNL     1      33.140  41.014   6.077  1.00  0.00     0.001 N 
ATOM     30  N   UNL     1      33.259  39.911   5.504  1.00  0.00    -0.003 NA
ENDBRANCH  27  28
ENDBRANCH  26  27
ENDBRANCH  25  26
ENDBRANCH  19  25
BRANCH  20  31
ATOM     31  O   UNL     1      31.357  38.277  11.537  1.00  0.00    -0.387 OA
ATOM     32  H   UNL     1      30.477  38.149  11.989  1.00  0.00     0.211 HD
ENDBRANCH  20  31
BRANCH  21  33
ATOM     33  O   UNL     1      32.317  38.685   8.167  1.00  0.00    -0.385 OA
ATOM     34  H   UNL     1      31.768  37.908   7.910  1.00  0.00     0.211 HD
ENDBRANCH  21  33
ENDBRANCH  15  16
ENDBRANCH  10  15
BRANCH  12  35
ATOM     35  O   UNL     1      30.367  39.038   6.132  1.00  0.00    -0.385 OA
ATOM     36  H   UNL     1      30.238  39.726   5.440  1.00  0.00     0.211 HD
ENDBRANCH  12  35
BRANCH  13  37
ATOM     37  O   UNL     1      27.736  38.136   4.439  1.00  0.00    -0.387 OA
ATOM     38  H   UNL     1      28.128  37.253   4.591  1.00  0.00     0.211 HD
ENDBRANCH  13  37
BRANCH  14  39
ATOM     39  O   UNL     1      25.992  39.754   4.989  1.00  0.00    -0.387 OA
ATOM     40  H   UNL     1      26.277  40.032   4.107  1.00  0.00     0.211 HD
ENDBRANCH  14  39
ENDBRANCH   8   9
ENDBRANCH   7   8
ENDBRANCH   1   7
BRANCH   1  41
ATOM     41  C   UNL     1      25.178  36.643   9.293  1.00  0.00     0.364 C 
ATOM     42  O   UNL     1      25.371  35.560   8.694  1.00  0.00    -0.246 OA
BRANCH  41  43
ATOM     43  O   UNL     1      26.137  36.968  10.238  1.00  0.00    -0.477 OA
ATOM     44  H   UNL     1      27.007  36.442  10.326  1.00  0.00     0.296 HD
ENDBRANCH  41  43
ENDBRANCH   1  41
BRANCH   3  45
ATOM     45  O   UNL     1      21.167  35.355   8.677  1.00  0.00    -0.391 OA
ATOM     46  H   UNL     1      21.071  35.573   7.729  1.00  0.00     0.211 HD
ENDBRANCH   3  45
BRANCH   5  47
ATOM     47  C   UNL     1      22.866  37.261  12.559  1.00  0.00     0.176 C 
BRANCH  47  48
ATOM     48  O   UNL     1      22.078  38.376  12.312  1.00  0.00    -0.388 OA
ATOM     49  H   UNL     1      22.555  39.219  12.398  1.00  0.00     0.211 HD
ENDBRANCH  47  48
BRANCH  47  50
ATOM     50  C   UNL     1      23.959  37.624  13.502  1.00  0.00     0.165 C 
BRANCH  50  51
ATOM     51  O   UNL     1      25.077  38.152  12.833  1.00  0.00    -0.388 OA
ATOM     52  H   UNL     1      25.907  37.929  13.327  1.00  0.00     0.211 HD
ENDBRANCH  50  51
BRANCH  50  53
ATOM     53  C   UNL     1      24.461  36.403  14.227  1.00  0.00     0.154 C 
BRANCH  53  54
ATOM     54  N   UNL     1      25.776  36.073  13.807  1.00  0.00    -0.319 N 
ATOM     55  C   UNL     1      26.105  34.929  13.050  1.00  0.00     0.407 C 
ATOM     56  H   UNL     1      26.560  36.734  14.084  1.00  0.00     0.167 HD
ATOM     57  O   UNL     1      25.225  34.108  12.688  1.00  0.00    -0.225 OA
BRANCH  55  58
ATOM     58  O   UNL     1      27.426  34.660  12.670  1.00  0.00    -0.443 OA
BRANCH  58  59
ATOM     59  C   UNL     1      28.359  35.686  12.462  1.00  0.00     0.294 C 
BRANCH  59  60
ATOM     60  C   UNL     1      29.573  35.584  13.302  1.00  0.00     0.120 A 
ATOM     61  C   UNL     1      30.036  34.384  13.864  1.00  0.00     0.138 A 
ATOM     62  N   UNL     1      30.442  36.521  13.693  1.00  0.00    -0.132 NA
ATOM     63  N   UNL     1      31.140  34.650  14.553  1.00  0.00    -0.248 N 
ATOM     64  N   UNL     1      31.372  35.962  14.437  1.00  0.00    -0.067 NA
BRANCH  63  65
ATOM     65  C   UNL     1      32.003  33.742  15.308  1.00  0.00     0.182 C 
BRANCH  65  66
ATOM     66  C   UNL     1      31.645  33.641  16.739  1.00  0.00    -0.012 A 
ATOM     67  C   UNL     1      32.151  34.630  17.598  1.00  0.00     0.007 A 
ATOM     68  C   UNL     1      30.881  32.640  17.276  1.00  0.00     0.023 A 
ATOM     69  C   UNL     1      31.870  34.558  18.927  1.00  0.00     0.000 A 
ATOM     70  C   UNL     1      30.605  32.580  18.632  1.00  0.00     0.016 A 
ATOM     71  Br  UNL     1      30.116  31.305  16.161  1.00  0.00    -0.050 Br
ATOM     72  C   UNL     1      31.108  33.552  19.456  1.00  0.00     0.001 A 
ENDBRANCH  65  66
ENDBRANCH  63  65
ENDBRANCH  59  60
ENDBRANCH  58  59
ENDBRANCH  55  58
ENDBRANCH  53  54
ENDBRANCH  50  53
ENDBRANCH  47  50
ENDBRANCH   5  47
BRANCH   4  73
ATOM     73  N   UNL     1      22.642  34.489  11.213  1.00  0.00    -0.348 N 
ATOM     74  C   UNL     1      21.701  33.850  12.075  1.00  0.00     0.217 C 
ATOM     75  H   UNL     1      23.507  33.938  11.029  1.00  0.00     0.163 HD
ATOM     76  C   UNL     1      21.986  32.494  12.640  1.00  0.00     0.114 C 
ATOM     77  O   UNL     1      20.649  34.448  12.338  1.00  0.00    -0.275 OA
ENDBRANCH   4  73
TORSDOF 31
BEGIN_RES LYS A 131
REMARK  4 active torsions:
REMARK  status: ('A' for Active; 'I' for Inactive)
REMARK    1  A    between atoms: CA   and  CB  
REMARK    2  A    between atoms: CB   and  CG  
REMARK    3  A    between atoms: CG   and  CD  
REMARK    4  A    between atoms: CD   and  CE  
ROOT
ATOM      1  CA  LYS A 131      29.867  25.555  16.977  1.00 20.52     0.186 C 
ENDROOT
BRANCH   1   2
ATOM      2  CB  LYS A 131      28.345  25.722  17.026  1.00 20.94     0.034 C 
BRANCH   2   3
ATOM      3  CG  LYS A 131      27.602  24.399  16.925  1.00 22.96     0.005 C 
BRANCH   3   4
ATOM      4  CD  LYS A 131      26.626  24.209  18.053  1.00 24.33     0.041 C 
BRANCH   4   5
ATOM      5  CE  LYS A 131      26.414  25.538  18.771  1.00 26.91     0.338 C 
ATOM      6  NZ  LYS A 131      25.504  25.364  19.928  1.00 27.40     0.618 N 
ENDBRANCH   4   5
ENDBRANCH   3   4
ENDBRANCH   2   3
ENDBRANCH   1   2
END_RES LYS A 131
BEGIN_RES LYS A 135
REMARK  4 active torsions:
REMARK  status: ('A' for Active; 'I' for Inactive)
REMARK    5  A    between atoms: CA   and  CB  
REMARK    6  A    between atoms: CB   and  CG  
REMARK    7  A    between atoms: CG   and  CD  
REMARK    8  A    between atoms: CD   and  CE  
ROOT
ATOM      7  CA  LYS A 135      33.193  34.663   9.290  1.00 25.02     0.186 C 
ENDROOT
BRANCH   7   8
ATOM      8  CB  LYS A 135      32.060  35.360  10.034  1.00 26.63     0.034 C 
BRANCH   8   9
ATOM      9  CG  LYS A 135      30.741  34.639   9.935  1.00 29.45     0.005 C 
BRANCH   9  10
ATOM     10  CD  LYS A 135      30.339  34.451   8.480  1.00 32.00     0.041 C 
BRANCH  10  11
ATOM     11  CE  LYS A 135      28.829  34.453   8.340  1.00 34.25     0.338 C 
ATOM     12  NZ  LYS A 135      28.184  33.737   9.476  1.00 35.99     0.618 N 
ENDBRANCH  10  11
ENDBRANCH   9  10
ENDBRANCH   8   9
ENDBRANCH   7   8
END_RES LYS A 135
