REMARK VINA RESULT:    -5.295      4.898     11.539
REMARK INTER + INTRA:         -23.536
REMARK INTER:                 -13.896
REMARK INTRA:                  -9.640
REMARK UNBOUND:                -9.883
REMARK SMILES CC(=O)N[C@@H]1[C@@H](O)C[C@](OC[C@H]2O[C@@H](O[C@H]3[C@H](O)[C@@H](O)[C@H](OCCN=[N+]=[N-])O[C@@H]3CO)[C@H](O)[C@@H](O)[C@H]2O)(C(=O)O)O[C@H]1C(O)[C@H](O)CNC(=O)OCc1cn(C(c2ccccc2)c2ccccc2)nn1
REMARK SMILES IDX 9 1 8 2 6 3 5 4 42 5 41 6 10 7 11 8 12 9 14 10 13 11 32 12
REMARK SMILES IDX 34 13 36 14 15 15 16 16 29 17 28 18 21 19 17 20 19 21 30 22
REMARK SMILES IDX 31 23 22 25 23 26 24 27 25 28 26 29 27 30 18 31 20 33 33 35
REMARK SMILES IDX 35 37 37 39 38 41 39 42 40 43 7 45 43 47 44 48 45 50 46 51
REMARK SMILES IDX 47 53 48 54 49 55 50 57 51 58 52 59 53 60 54 61 70 62 55 63
REMARK SMILES IDX 69 64 56 65 57 66 58 67 62 68 59 69 61 70 60 71 63 72 64 73
REMARK SMILES IDX 68 74 65 75 67 76 66 77 4 78 2 79 1 81 3 82
REMARK H PARENT 31 24 18 32 20 34 33 36 35 38 37 40 40 44 7 46 44 49 46 52
REMARK H PARENT 48 56 4 80
REMARK Flexibility Score: inf
ROOT
ATOM      1  C   UNL     1      26.259  36.717   8.763  1.00  0.00     0.272 C 
ATOM      2  C   UNL     1      24.822  36.724   8.201  1.00  0.00     0.113 C 
ATOM      3  C   UNL     1      23.944  35.904   9.056  1.00  0.00     0.145 C 
ATOM      4  C   UNL     1      23.958  36.438  10.467  1.00  0.00     0.142 C 
ATOM      5  C   UNL     1      25.161  37.251  10.778  1.00  0.00     0.178 C 
ATOM      6  O   UNL     1      26.288  36.948  10.085  1.00  0.00    -0.332 OA
ENDROOT
BRANCH   1   7
ATOM      7  O   UNL     1      26.974  37.725   8.096  1.00  0.00    -0.338 OA
BRANCH   7   8
ATOM      8  C   UNL     1      26.169  38.437   7.247  1.00  0.00     0.199 C 
BRANCH   8   9
ATOM      9  C   UNL     1      26.969  39.250   6.230  1.00  0.00     0.179 C 
ATOM     10  C   UNL     1      29.026  40.122   7.066  1.00  0.00     0.282 C 
ATOM     11  O   UNL     1      27.705  40.165   6.801  1.00  0.00    -0.341 OA
ATOM     12  C   UNL     1      29.691  38.871   6.744  1.00  0.00     0.202 C 
ATOM     13  C   UNL     1      29.126  38.135   5.580  1.00  0.00     0.179 C 
ATOM     14  C   UNL     1      27.699  38.351   5.258  1.00  0.00     0.177 C 
BRANCH  10  15
ATOM     15  O   UNL     1      29.095  40.507   8.441  1.00  0.00    -0.341 OA
BRANCH  15  16
ATOM     16  C   UNL     1      30.234  41.201   8.716  1.00  0.00     0.184 C 
ATOM     17  C   UNL     1      30.890  40.730   9.966  1.00  0.00     0.178 C 
ATOM     18  O   UNL     1      32.158  41.311  10.098  1.00  0.00    -0.341 OA
ATOM     19  C   UNL     1      32.032  42.638  10.406  1.00  0.00     0.281 C 
ATOM     20  C   UNL     1      29.950  42.684   8.918  1.00  0.00     0.180 C 
ATOM     21  C   UNL     1      30.730  43.231  10.048  1.00  0.00     0.202 C 
BRANCH  17  22
ATOM     22  C   UNL     1      30.967  39.224  10.119  1.00  0.00     0.191 C 
BRANCH  22  23
ATOM     23  O   UNL     1      29.770  38.758  10.651  1.00  0.00    -0.394 OA
ATOM     24  H   UNL     1      29.187  39.465  11.000  1.00  0.00     0.210 HD
ENDBRANCH  22  23
ENDBRANCH  17  22
BRANCH  19  25
ATOM     25  O   UNL     1      33.114  43.390   9.919  1.00  0.00    -0.350 OA
BRANCH  25  26
ATOM     26  C   UNL     1      34.152  42.656   9.424  1.00  0.00     0.169 C 
BRANCH  26  27
ATOM     27  C   UNL     1      34.297  42.920   7.944  1.00  0.00     0.119 C 
BRANCH  27  28
ATOM     28  N   UNL     1      33.887  41.767   7.146  1.00  0.00    -0.092 NA
ATOM     29  N   UNL     1      33.021  41.843   6.283  1.00  0.00     0.001 N 
ATOM     30  N   UNL     1      31.936  41.943   5.697  1.00  0.00    -0.003 NA
ENDBRANCH  27  28
ENDBRANCH  26  27
ENDBRANCH  25  26
ENDBRANCH  19  25
BRANCH  20  31
ATOM     31  O   UNL     1      30.179  43.313   7.692  1.00  0.00    -0.387 OA
ATOM     32  H   UNL     1      30.988  43.891   7.723  1.00  0.00     0.211 HD
ENDBRANCH  20  31
BRANCH  21  33
ATOM     33  O   UNL     1      29.880  43.239  11.193  1.00  0.00    -0.385 OA
ATOM     34  H   UNL     1      29.753  42.278  11.428  1.00  0.00     0.211 HD
ENDBRANCH  21  33
ENDBRANCH  15  16
ENDBRANCH  10  15
BRANCH  12  35
ATOM     35  O   UNL     1      31.071  39.026   6.455  1.00  0.00    -0.385 OA
ATOM     36  H   UNL     1      31.150  39.908   6.017  1.00  0.00     0.211 HD
ENDBRANCH  12  35
BRANCH  13  37
ATOM     37  O   UNL     1      29.348  36.738   5.703  1.00  0.00    -0.387 OA
ATOM     38  H   UNL     1      29.345  36.327   4.800  1.00  0.00     0.211 HD
ENDBRANCH  13  37
BRANCH  14  39
ATOM     39  O   UNL     1      27.024  37.120   5.302  1.00  0.00    -0.387 OA
ATOM     40  H   UNL     1      26.437  36.994   4.519  1.00  0.00     0.211 HD
ENDBRANCH  14  39
ENDBRANCH   8   9
ENDBRANCH   7   8
ENDBRANCH   1   7
BRANCH   1  41
ATOM     41  C   UNL     1      26.812  35.413   8.395  1.00  0.00     0.364 C 
ATOM     42  O   UNL     1      27.375  35.239   7.297  1.00  0.00    -0.246 OA
BRANCH  41  43
ATOM     43  O   UNL     1      26.739  34.304   9.242  1.00  0.00    -0.477 OA
ATOM     44  H   UNL     1      25.917  34.128   9.799  1.00  0.00     0.296 HD
ENDBRANCH  41  43
ENDBRANCH   1  41
BRANCH   3  45
ATOM     45  O   UNL     1      22.639  36.003   8.528  1.00  0.00    -0.391 OA
ATOM     46  H   UNL     1      22.039  35.338   8.948  1.00  0.00     0.211 HD
ENDBRANCH   3  45
BRANCH   5  47
ATOM     47  C   UNL     1      24.975  38.741  10.826  1.00  0.00     0.176 C 
BRANCH  47  48
ATOM     48  O   UNL     1      26.233  39.301  10.519  1.00  0.00    -0.388 OA
ATOM     49  H   UNL     1      26.732  38.786   9.861  1.00  0.00     0.211 HD
ENDBRANCH  47  48
BRANCH  47  50
ATOM     50  C   UNL     1      24.526  39.307  12.124  1.00  0.00     0.165 C 
BRANCH  50  51
ATOM     51  O   UNL     1      23.282  39.889  11.908  1.00  0.00    -0.388 OA
ATOM     52  H   UNL     1      23.279  40.530  11.152  1.00  0.00     0.211 HD
ENDBRANCH  50  51
BRANCH  50  53
ATOM     53  C   UNL     1      25.437  40.298  12.760  1.00  0.00     0.154 C 
BRANCH  53  54
ATOM     54  N   UNL     1      26.639  39.780  13.331  1.00  0.00    -0.319 N 
ATOM     55  C   UNL     1      27.957  40.122  13.014  1.00  0.00     0.407 C 
ATOM     56  H   UNL     1      26.528  39.039  14.095  1.00  0.00     0.167 HD
ATOM     57  O   UNL     1      28.191  40.959  12.134  1.00  0.00    -0.225 OA
BRANCH  55  58
ATOM     58  O   UNL     1      29.035  39.538  13.675  1.00  0.00    -0.443 OA
BRANCH  58  59
ATOM     59  C   UNL     1      28.907  38.212  14.212  1.00  0.00     0.294 C 
BRANCH  59  60
ATOM     60  C   UNL     1      30.224  37.534  14.105  1.00  0.00     0.120 A 
ATOM     61  C   UNL     1      30.734  36.722  15.076  1.00  0.00     0.139 A 
ATOM     62  N   UNL     1      31.068  37.613  13.080  1.00  0.00    -0.132 NA
ATOM     63  N   UNL     1      31.924  36.305  14.609  1.00  0.00    -0.240 N 
ATOM     64  N   UNL     1      32.112  36.851  13.402  1.00  0.00    -0.066 NA
BRANCH  63  65
ATOM     65  C   UNL     1      32.890  35.415  15.218  1.00  0.00     0.169 C 
BRANCH  65  66
ATOM     66  C   UNL     1      32.153  34.339  15.893  1.00  0.00    -0.019 A 
ATOM     67  C   UNL     1      31.755  33.216  15.196  1.00  0.00     0.006 A 
ATOM     68  C   UNL     1      31.807  34.391  17.226  1.00  0.00     0.006 A 
ATOM     69  C   UNL     1      31.043  32.195  15.811  1.00  0.00     0.000 A 
ATOM     70  C   UNL     1      31.094  33.373  17.853  1.00  0.00     0.000 A 
ATOM     71  C   UNL     1      30.704  32.257  17.140  1.00  0.00     0.000 A 
ENDBRANCH  65  66
BRANCH  65  72
ATOM     72  C   UNL     1      33.820  36.172  16.080  1.00  0.00    -0.019 A 
ATOM     73  C   UNL     1      35.100  35.654  16.236  1.00  0.00     0.006 A 
ATOM     74  C   UNL     1      33.506  37.317  16.751  1.00  0.00     0.006 A 
ATOM     75  C   UNL     1      36.013  36.283  17.040  1.00  0.00     0.000 A 
ATOM     76  C   UNL     1      34.422  37.958  17.565  1.00  0.00     0.000 A 
ATOM     77  C   UNL     1      35.684  37.442  17.714  1.00  0.00     0.000 A 
ENDBRANCH  65  72
ENDBRANCH  63  65
ENDBRANCH  59  60
ENDBRANCH  58  59
ENDBRANCH  55  58
ENDBRANCH  53  54
ENDBRANCH  50  53
ENDBRANCH  47  50
ENDBRANCH   5  47
BRANCH   4  78
ATOM     78  N   UNL     1      23.931  35.235  11.322  1.00  0.00    -0.348 N 
ATOM     79  C   UNL     1      22.717  34.588  11.683  1.00  0.00     0.217 C 
ATOM     80  H   UNL     1      24.816  34.811  11.696  1.00  0.00     0.163 HD
ATOM     81  C   UNL     1      22.721  33.363  12.553  1.00  0.00     0.114 C 
ATOM     82  O   UNL     1      21.612  35.016  11.287  1.00  0.00    -0.275 OA
ENDBRANCH   4  78
TORSDOF 32
BEGIN_RES LYS A 131
REMARK  4 active torsions:
REMARK  status: ('A' for Active; 'I' for Inactive)
REMARK    1  A    between atoms: CA   and  CB  
REMARK    2  A    between atoms: CB   and  CG  
REMARK    3  A    between atoms: CG   and  CD  
REMARK    4  A    between atoms: CD   and  CE  
ROOT
ATOM      1  CA  LYS A 131      29.867  25.555  16.977  1.00 20.52     0.186 C 
ENDROOT
BRANCH   1   2
ATOM      2  CB  LYS A 131      28.345  25.722  17.026  1.00 20.94     0.034 C 
BRANCH   2   3
ATOM      3  CG  LYS A 131      27.601  24.403  16.882  1.00 22.96     0.005 C 
BRANCH   3   4
ATOM      4  CD  LYS A 131      26.521  24.246  17.917  1.00 24.33     0.041 C 
BRANCH   4   5
ATOM      5  CE  LYS A 131      25.175  24.062  17.224  1.00 26.91     0.338 C 
ATOM      6  NZ  LYS A 131      24.247  23.295  18.089  1.00 27.40     0.618 N 
ENDBRANCH   4   5
ENDBRANCH   3   4
ENDBRANCH   2   3
ENDBRANCH   1   2
END_RES LYS A 131
BEGIN_RES LYS A 135
REMARK  4 active torsions:
REMARK  status: ('A' for Active; 'I' for Inactive)
REMARK    5  A    between atoms: CA   and  CB  
REMARK    6  A    between atoms: CB   and  CG  
REMARK    7  A    between atoms: CG   and  CD  
REMARK    8  A    between atoms: CD   and  CE  
ROOT
ATOM      7  CA  LYS A 135      33.193  34.663   9.290  1.00 25.02     0.186 C 
ENDROOT
BRANCH   7   8
ATOM      8  CB  LYS A 135      32.060  35.360  10.034  1.00 26.63     0.034 C 
BRANCH   8   9
ATOM      9  CG  LYS A 135      30.720  34.697   9.849  1.00 29.45     0.005 C 
BRANCH   9  10
ATOM     10  CD  LYS A 135      29.643  35.434  10.630  1.00 32.00     0.041 C 
BRANCH  10  11
ATOM     11  CE  LYS A 135      29.321  34.698  11.917  1.00 34.25     0.338 C 
ATOM     12  NZ  LYS A 135      27.991  35.106  12.449  1.00 35.99     0.618 N 
ENDBRANCH  10  11
ENDBRANCH   9  10
ENDBRANCH   8   9
ENDBRANCH   7   8
END_RES LYS A 135
