REMARK VINA RESULT:    -5.546      3.282      9.269
REMARK INTER + INTRA:         -23.420
REMARK INTER:                 -12.702
REMARK INTRA:                 -10.719
REMARK UNBOUND:                -9.445
REMARK SMILES CC(=O)N[C@@H]1[C@@H](O)C[C@](OC[C@H]2O[C@@H](O[C@H]3[C@H](O)[C@@H](O)[C@H](OCCN=[N+]=[N-])O[C@@H]3CO)[C@H](O)[C@@H](O)[C@H]2O)(C(=O)O)O[C@H]1C(O)[C@H](O)CNC(=O)OCc1cn(Cc2cccc(Br)c2)nn1
REMARK SMILES IDX 9 1 8 2 6 3 5 4 42 5 41 6 10 7 11 8 12 9 14 10 13 11 32 12
REMARK SMILES IDX 34 13 36 14 15 15 16 16 29 17 28 18 21 19 17 20 19 21 30 22
REMARK SMILES IDX 31 23 22 25 23 26 24 27 25 28 26 29 27 30 18 31 20 33 33 35
REMARK SMILES IDX 35 37 37 39 38 41 39 42 40 43 7 45 43 47 44 48 45 50 46 51
REMARK SMILES IDX 47 53 48 54 49 55 50 57 51 58 52 59 53 60 54 61 65 62 55 63
REMARK SMILES IDX 64 64 56 65 57 66 58 67 63 68 59 69 61 70 60 71 62 72 4 73
REMARK SMILES IDX 2 74 1 76 3 77
REMARK H PARENT 31 24 18 32 20 34 33 36 35 38 37 40 40 44 7 46 44 49 46 52
REMARK H PARENT 48 56 4 75
REMARK Flexibility Score: inf
ROOT
ATOM      1  C   UNL     1      30.717  33.896  16.603  1.00  0.00     0.272 C 
ATOM      2  C   UNL     1      31.491  35.141  16.818  1.00  0.00     0.113 C 
ATOM      3  C   UNL     1      30.804  36.397  16.384  1.00  0.00     0.145 C 
ATOM      4  C   UNL     1      29.907  36.193  15.184  1.00  0.00     0.142 C 
ATOM      5  C   UNL     1      29.332  34.852  15.068  1.00  0.00     0.178 C 
ATOM      6  O   UNL     1      29.434  34.037  16.152  1.00  0.00    -0.332 OA
ENDROOT
BRANCH   1   7
ATOM      7  O   UNL     1      30.711  33.144  17.820  1.00  0.00    -0.338 OA
BRANCH   7   8
ATOM      8  C   UNL     1      29.604  33.385  18.581  1.00  0.00     0.199 C 
BRANCH   8   9
ATOM      9  C   UNL     1      29.388  32.244  19.597  1.00  0.00     0.179 C 
ATOM     10  C   UNL     1      27.857  30.497  19.900  1.00  0.00     0.282 C 
ATOM     11  O   UNL     1      28.134  31.779  19.370  1.00  0.00    -0.341 OA
ATOM     12  C   UNL     1      28.882  30.058  20.869  1.00  0.00     0.202 C 
ATOM     13  C   UNL     1      30.292  30.102  20.308  1.00  0.00     0.179 C 
ATOM     14  C   UNL     1      30.400  31.176  19.241  1.00  0.00     0.177 C 
BRANCH  10  15
ATOM     15  O   UNL     1      27.651  29.717  18.788  1.00  0.00    -0.341 OA
BRANCH  15  16
ATOM     16  C   UNL     1      26.564  29.983  18.037  1.00  0.00     0.184 C 
ATOM     17  C   UNL     1      25.775  28.715  17.838  1.00  0.00     0.178 C 
ATOM     18  O   UNL     1      24.571  29.029  17.214  1.00  0.00    -0.341 OA
ATOM     19  C   UNL     1      24.733  29.516  15.915  1.00  0.00     0.281 C 
ATOM     20  C   UNL     1      26.888  30.444  16.619  1.00  0.00     0.180 C 
ATOM     21  C   UNL     1      25.521  30.800  16.014  1.00  0.00     0.202 C 
BRANCH  17  22
ATOM     22  C   UNL     1      25.458  28.116  19.167  1.00  0.00     0.191 C 
BRANCH  22  23
ATOM     23  O   UNL     1      26.453  27.243  19.569  1.00  0.00    -0.394 OA
ATOM     24  H   UNL     1      26.139  26.785  20.391  1.00  0.00     0.210 HD
ENDBRANCH  22  23
ENDBRANCH  17  22
BRANCH  19  25
ATOM     25  O   UNL     1      23.461  29.698  15.413  1.00  0.00    -0.350 OA
BRANCH  25  26
ATOM     26  C   UNL     1      23.092  28.834  14.420  1.00  0.00     0.169 C 
BRANCH  26  27
ATOM     27  C   UNL     1      23.627  29.187  13.052  1.00  0.00     0.119 C 
BRANCH  27  28
ATOM     28  N   UNL     1      22.950  30.392  12.627  1.00  0.00    -0.092 NA
ATOM     29  N   UNL     1      21.751  30.466  12.402  1.00  0.00     0.001 N 
ATOM     30  N   UNL     1      20.524  30.471  12.335  1.00  0.00    -0.003 NA
ENDBRANCH  27  28
ENDBRANCH  26  27
ENDBRANCH  25  26
ENDBRANCH  19  25
BRANCH  20  31
ATOM     31  O   UNL     1      27.667  31.564  16.562  1.00  0.00    -0.387 OA
ATOM     32  H   UNL     1      28.487  31.534  17.103  1.00  0.00     0.211 HD
ENDBRANCH  20  31
BRANCH  21  33
ATOM     33  O   UNL     1      25.762  31.412  14.813  1.00  0.00    -0.385 OA
ATOM     34  H   UNL     1      25.266  32.288  14.717  1.00  0.00     0.211 HD
ENDBRANCH  21  33
ENDBRANCH  15  16
ENDBRANCH  10  15
BRANCH  12  35
ATOM     35  O   UNL     1      28.826  30.948  21.973  1.00  0.00    -0.385 OA
ATOM     36  H   UNL     1      27.876  31.136  22.190  1.00  0.00     0.211 HD
ENDBRANCH  12  35
BRANCH  13  37
ATOM     37  O   UNL     1      30.728  28.857  19.866  1.00  0.00    -0.387 OA
ATOM     38  H   UNL     1      30.955  28.932  18.883  1.00  0.00     0.211 HD
ENDBRANCH  13  37
BRANCH  14  39
ATOM     39  O   UNL     1      30.127  30.725  17.970  1.00  0.00    -0.387 OA
ATOM     40  H   UNL     1      30.979  30.480  17.494  1.00  0.00     0.211 HD
ENDBRANCH  14  39
ENDBRANCH   8   9
ENDBRANCH   7   8
ENDBRANCH   1   7
BRANCH   1  41
ATOM     41  C   UNL     1      31.465  33.017  15.655  1.00  0.00     0.364 C 
ATOM     42  O   UNL     1      31.182  31.768  15.614  1.00  0.00    -0.246 OA
BRANCH  41  43
ATOM     43  O   UNL     1      32.454  33.416  14.800  1.00  0.00    -0.477 OA
ATOM     44  H   UNL     1      32.218  34.126  14.094  1.00  0.00     0.296 HD
ENDBRANCH  41  43
ENDBRANCH   1  41
BRANCH   3  45
ATOM     45  O   UNL     1      30.163  37.023  17.442  1.00  0.00    -0.391 OA
ATOM     46  H   UNL     1      29.399  36.521  17.800  1.00  0.00     0.211 HD
ENDBRANCH   3  45
BRANCH   5  47
ATOM     47  C   UNL     1      27.871  34.872  14.591  1.00  0.00     0.176 C 
BRANCH  47  48
ATOM     48  O   UNL     1      27.551  33.481  14.320  1.00  0.00    -0.388 OA
ATOM     49  H   UNL     1      28.187  33.188  13.619  1.00  0.00     0.211 HD
ENDBRANCH  47  48
BRANCH  47  50
ATOM     50  C   UNL     1      26.886  35.336  15.599  1.00  0.00     0.165 C 
BRANCH  50  51
ATOM     51  O   UNL     1      26.524  34.140  16.325  1.00  0.00    -0.388 OA
ATOM     52  H   UNL     1      26.693  34.322  17.299  1.00  0.00     0.211 HD
ENDBRANCH  50  51
BRANCH  50  53
ATOM     53  C   UNL     1      25.574  35.853  15.109  1.00  0.00     0.154 C 
BRANCH  53  54
ATOM     54  N   UNL     1      25.166  35.301  13.827  1.00  0.00    -0.319 N 
ATOM     55  C   UNL     1      24.260  34.212  13.805  1.00  0.00     0.407 C 
ATOM     56  H   UNL     1      25.518  35.682  12.931  1.00  0.00     0.167 HD
ATOM     57  O   UNL     1      23.821  33.729  14.886  1.00  0.00    -0.225 OA
BRANCH  55  58
ATOM     58  O   UNL     1      23.831  33.652  12.601  1.00  0.00    -0.443 OA
BRANCH  58  59
ATOM     59  C   UNL     1      22.588  34.106  12.047  1.00  0.00     0.294 C 
BRANCH  59  60
ATOM     60  C   UNL     1      22.849  35.343  11.274  1.00  0.00     0.120 A 
ATOM     61  C   UNL     1      23.305  35.465   9.985  1.00  0.00     0.138 A 
ATOM     62  N   UNL     1      22.668  36.583  11.746  1.00  0.00    -0.132 NA
ATOM     63  N   UNL     1      23.385  36.783   9.718  1.00  0.00    -0.248 N 
ATOM     64  N   UNL     1      22.995  37.440  10.799  1.00  0.00    -0.067 NA
BRANCH  63  65
ATOM     65  C   UNL     1      23.829  37.354   8.449  1.00  0.00     0.181 C 
BRANCH  65  66
ATOM     66  C   UNL     1      25.310  37.446   8.388  1.00  0.00    -0.025 A 
ATOM     67  C   UNL     1      26.002  38.247   9.274  1.00  0.00     0.006 A 
ATOM     68  C   UNL     1      26.061  36.760   7.465  1.00  0.00     0.021 A 
ATOM     69  C   UNL     1      27.372  38.378   9.267  1.00  0.00     0.002 A 
ATOM     70  C   UNL     1      27.433  36.868   7.430  1.00  0.00     0.018 A 
ATOM     71  C   UNL     1      28.113  37.665   8.314  1.00  0.00     0.016 A 
ATOM     72  Br  UNL     1      28.483  35.913   6.147  1.00  0.00    -0.051 Br
ENDBRANCH  65  66
ENDBRANCH  63  65
ENDBRANCH  59  60
ENDBRANCH  58  59
ENDBRANCH  55  58
ENDBRANCH  53  54
ENDBRANCH  50  53
ENDBRANCH  47  50
ENDBRANCH   5  47
BRANCH   4  73
ATOM     73  N   UNL     1      30.658  36.544  13.951  1.00  0.00    -0.348 N 
ATOM     74  C   UNL     1      30.355  37.728  13.237  1.00  0.00     0.217 C 
ATOM     75  H   UNL     1      31.424  35.921  13.589  1.00  0.00     0.163 HD
ATOM     76  C   UNL     1      31.102  38.104  11.985  1.00  0.00     0.114 C 
ATOM     77  O   UNL     1      29.437  38.476  13.669  1.00  0.00    -0.275 OA
ENDBRANCH   4  73
TORSDOF 31
BEGIN_RES LYS A 131
REMARK  4 active torsions:
REMARK  status: ('A' for Active; 'I' for Inactive)
REMARK    1  A    between atoms: CA   and  CB  
REMARK    2  A    between atoms: CB   and  CG  
REMARK    3  A    between atoms: CG   and  CD  
REMARK    4  A    between atoms: CD   and  CE  
ROOT
ATOM      1  CA  LYS A 131      29.867  25.555  16.977  1.00 20.52     0.186 C 
ENDROOT
BRANCH   1   2
ATOM      2  CB  LYS A 131      28.345  25.722  17.026  1.00 20.94     0.034 C 
BRANCH   2   3
ATOM      3  CG  LYS A 131      27.601  24.403  16.886  1.00 22.96     0.005 C 
BRANCH   3   4
ATOM      4  CD  LYS A 131      26.623  24.182  18.007  1.00 24.33     0.041 C 
BRANCH   4   5
ATOM      5  CE  LYS A 131      25.203  24.381  17.490  1.00 26.91     0.338 C 
ATOM      6  NZ  LYS A 131      24.217  24.109  18.562  1.00 27.40     0.618 N 
ENDBRANCH   4   5
ENDBRANCH   3   4
ENDBRANCH   2   3
ENDBRANCH   1   2
END_RES LYS A 131
BEGIN_RES LYS A 135
REMARK  4 active torsions:
REMARK  status: ('A' for Active; 'I' for Inactive)
REMARK    5  A    between atoms: CA   and  CB  
REMARK    6  A    between atoms: CB   and  CG  
REMARK    7  A    between atoms: CG   and  CD  
REMARK    8  A    between atoms: CD   and  CE  
ROOT
ATOM      7  CA  LYS A 135      33.193  34.663   9.290  1.00 25.02     0.186 C 
ENDROOT
BRANCH   7   8
ATOM      8  CB  LYS A 135      32.060  35.360  10.034  1.00 26.63     0.034 C 
BRANCH   8   9
ATOM      9  CG  LYS A 135      30.780  35.440   9.243  1.00 29.45     0.005 C 
BRANCH   9  10
ATOM     10  CD  LYS A 135      30.165  34.059   9.076  1.00 32.00     0.041 C 
BRANCH  10  11
ATOM     11  CE  LYS A 135      28.721  34.059   9.539  1.00 34.25     0.338 C 
ATOM     12  NZ  LYS A 135      28.559  34.852  10.789  1.00 35.99     0.618 N 
ENDBRANCH  10  11
ENDBRANCH   9  10
ENDBRANCH   8   9
ENDBRANCH   7   8
END_RES LYS A 135
