REMARK VINA RESULT:    -4.118      2.816      4.737
REMARK INTER + INTRA:         -22.766
REMARK INTER:                 -12.692
REMARK INTRA:                 -10.074
REMARK UNBOUND:               -12.269
REMARK SMILES CC(=O)N[C@@H]1[C@@H](O)C[C@](OC[C@H]2O[C@@H](O[C@H]3[C@H](O)[C@@H](O)[C@H](OCCN=[N+]=[N-])O[C@@H]3CO)[C@H](O)[C@@H](O)[C@H]2O)(C(=O)O)O[C@H]1C(O)[C@H](O)CNC(=O)OCc1cn(-c2cccc(S(N)(=O)=O)c2)nn1
REMARK SMILES IDX 9 1 8 2 6 3 5 4 42 5 41 6 10 7 11 8 12 9 14 10 13 11 32 12
REMARK SMILES IDX 34 13 36 14 15 15 16 16 29 17 28 18 21 19 17 20 19 21 30 22
REMARK SMILES IDX 31 23 22 25 23 26 24 27 25 28 26 29 27 30 18 31 20 33 33 35
REMARK SMILES IDX 35 37 37 39 38 41 39 42 40 43 7 45 43 47 44 48 45 50 46 51
REMARK SMILES IDX 47 53 48 54 49 55 50 57 51 58 52 59 53 60 54 61 67 62 55 63
REMARK SMILES IDX 66 64 56 65 65 66 57 67 60 68 58 69 59 70 61 71 63 72 64 73
REMARK SMILES IDX 62 74 4 77 2 78 1 80 3 81
REMARK H PARENT 31 24 18 32 20 34 33 36 35 38 37 40 40 44 7 46 44 49 46 52
REMARK H PARENT 48 56 62 75 62 76 4 79
REMARK Flexibility Score: inf
ROOT
ATOM      1  C   UNL     1      29.853  33.204  18.966  1.00  0.00     0.272 C 
ATOM      2  C   UNL     1      29.224  34.483  18.382  1.00  0.00     0.113 C 
ATOM      3  C   UNL     1      30.326  35.427  18.050  1.00  0.00     0.145 C 
ATOM      4  C   UNL     1      31.271  34.821  17.074  1.00  0.00     0.142 C 
ATOM      5  C   UNL     1      31.409  33.348  17.228  1.00  0.00     0.178 C 
ATOM      6  O   UNL     1      30.611  32.636  18.032  1.00  0.00    -0.332 OA
ENDROOT
BRANCH   1   7
ATOM      7  O   UNL     1      28.716  32.409  19.271  1.00  0.00    -0.338 OA
BRANCH   7   8
ATOM      8  C   UNL     1      27.768  32.619  18.317  1.00  0.00     0.199 C 
BRANCH   8   9
ATOM      9  C   UNL     1      27.117  31.338  17.840  1.00  0.00     0.179 C 
ATOM     10  C   UNL     1      25.728  30.606  16.247  1.00  0.00     0.282 C 
ATOM     11  O   UNL     1      26.922  31.342  16.461  1.00  0.00    -0.341 OA
ATOM     12  C   UNL     1      25.724  29.328  17.002  1.00  0.00     0.202 C 
ATOM     13  C   UNL     1      27.053  28.928  17.591  1.00  0.00     0.179 C 
ATOM     14  C   UNL     1      27.807  30.086  18.218  1.00  0.00     0.177 C 
BRANCH  10  15
ATOM     15  O   UNL     1      25.420  30.533  14.912  1.00  0.00    -0.341 OA
BRANCH  15  16
ATOM     16  C   UNL     1      24.078  30.546  14.616  1.00  0.00     0.184 C 
ATOM     17  C   UNL     1      23.900  30.493  13.118  1.00  0.00     0.178 C 
ATOM     18  O   UNL     1      22.894  31.375  12.703  1.00  0.00    -0.341 OA
ATOM     19  C   UNL     1      23.389  32.654  12.793  1.00  0.00     0.281 C 
ATOM     20  C   UNL     1      23.515  31.828  15.187  1.00  0.00     0.180 C 
ATOM     21  C   UNL     1      23.588  32.981  14.237  1.00  0.00     0.202 C 
BRANCH  17  22
ATOM     22  C   UNL     1      23.529  29.141  12.598  1.00  0.00     0.191 C 
BRANCH  22  23
ATOM     23  O   UNL     1      22.131  28.966  12.588  1.00  0.00    -0.394 OA
ATOM     24  H   UNL     1      21.722  29.318  13.414  1.00  0.00     0.210 HD
ENDBRANCH  22  23
ENDBRANCH  17  22
BRANCH  19  25
ATOM     25  O   UNL     1      22.530  33.601  12.235  1.00  0.00    -0.350 OA
BRANCH  25  26
ATOM     26  C   UNL     1      21.330  33.743  12.877  1.00  0.00     0.169 C 
BRANCH  26  27
ATOM     27  C   UNL     1      20.125  33.329  12.059  1.00  0.00     0.119 C 
BRANCH  27  28
ATOM     28  N   UNL     1      19.529  34.464  11.383  1.00  0.00    -0.092 NA
ATOM     29  N   UNL     1      19.872  34.818  10.258  1.00  0.00     0.001 N 
ATOM     30  N   UNL     1      20.146  35.258   9.155  1.00  0.00    -0.003 NA
ENDBRANCH  27  28
ENDBRANCH  26  27
ENDBRANCH  25  26
ENDBRANCH  19  25
BRANCH  20  31
ATOM     31  O   UNL     1      22.158  31.620  15.495  1.00  0.00    -0.387 OA
ATOM     32  H   UNL     1      21.943  31.872  16.427  1.00  0.00     0.211 HD
ENDBRANCH  20  31
BRANCH  21  33
ATOM     33  O   UNL     1      24.841  33.627  14.356  1.00  0.00    -0.385 OA
ATOM     34  H   UNL     1      25.498  33.072  13.875  1.00  0.00     0.211 HD
ENDBRANCH  21  33
ENDBRANCH  15  16
ENDBRANCH  10  15
BRANCH  12  35
ATOM     35  O   UNL     1      24.707  29.265  17.985  1.00  0.00    -0.385 OA
ATOM     36  H   UNL     1      23.867  29.473  17.465  1.00  0.00     0.211 HD
ENDBRANCH  12  35
BRANCH  13  37
ATOM     37  O   UNL     1      27.813  28.190  16.703  1.00  0.00    -0.387 OA
ATOM     38  H   UNL     1      28.496  28.828  16.322  1.00  0.00     0.211 HD
ENDBRANCH  13  37
BRANCH  14  39
ATOM     39  O   UNL     1      29.090  30.088  17.660  1.00  0.00    -0.387 OA
ATOM     40  H   UNL     1      29.791  30.233  18.343  1.00  0.00     0.211 HD
ENDBRANCH  14  39
ENDBRANCH   8   9
ENDBRANCH   7   8
ENDBRANCH   1   7
BRANCH   1  41
ATOM     41  C   UNL     1      30.516  33.623  20.226  1.00  0.00     0.364 C 
ATOM     42  O   UNL     1      31.723  33.234  20.431  1.00  0.00    -0.246 OA
BRANCH  41  43
ATOM     43  O   UNL     1      29.979  34.394  21.214  1.00  0.00    -0.477 OA
ATOM     44  H   UNL     1      30.379  34.450  22.160  1.00  0.00     0.296 HD
ENDBRANCH  41  43
ENDBRANCH   1  41
BRANCH   3  45
ATOM     45  O   UNL     1      29.692  36.574  17.496  1.00  0.00    -0.391 OA
ATOM     46  H   UNL     1      29.280  37.029  18.296  1.00  0.00     0.211 HD
ENDBRANCH   3  45
BRANCH   5  47
ATOM     47  C   UNL     1      31.396  32.734  15.808  1.00  0.00     0.176 C 
BRANCH  47  48
ATOM     48  O   UNL     1      32.336  33.391  15.037  1.00  0.00    -0.388 OA
ATOM     49  H   UNL     1      31.990  34.061  14.424  1.00  0.00     0.211 HD
ENDBRANCH  47  48
BRANCH  47  50
ATOM     50  C   UNL     1      30.018  32.696  15.270  1.00  0.00     0.165 C 
BRANCH  50  51
ATOM     51  O   UNL     1      29.626  31.368  15.114  1.00  0.00    -0.388 OA
ATOM     52  H   UNL     1      30.348  30.953  14.561  1.00  0.00     0.211 HD
ENDBRANCH  50  51
BRANCH  50  53
ATOM     53  C   UNL     1      29.904  33.364  13.910  1.00  0.00     0.154 C 
BRANCH  53  54
ATOM     54  N   UNL     1      29.857  34.792  14.117  1.00  0.00    -0.319 N 
ATOM     55  C   UNL     1      28.579  35.439  14.316  1.00  0.00     0.407 C 
ATOM     56  H   UNL     1      30.714  35.390  14.125  1.00  0.00     0.167 HD
ATOM     57  O   UNL     1      27.509  34.777  14.310  1.00  0.00    -0.225 OA
BRANCH  55  58
ATOM     58  O   UNL     1      28.607  36.804  14.512  1.00  0.00    -0.443 OA
BRANCH  58  59
ATOM     59  C   UNL     1      29.627  37.594  13.976  1.00  0.00     0.294 C 
BRANCH  59  60
ATOM     60  C   UNL     1      29.389  37.914  12.561  1.00  0.00     0.121 A 
ATOM     61  C   UNL     1      28.307  37.416  11.819  1.00  0.00     0.144 A 
ATOM     62  N   UNL     1      30.086  38.683  11.735  1.00  0.00    -0.131 NA
ATOM     63  N   UNL     1      28.413  37.912  10.592  1.00  0.00    -0.220 N 
ATOM     64  N   UNL     1      29.477  38.663  10.564  1.00  0.00    -0.062 NA
BRANCH  63  65
ATOM     65  C   UNL     1      27.479  37.637   9.539  1.00  0.00     0.068 A 
ATOM     66  C   UNL     1      26.143  37.395   9.870  1.00  0.00     0.050 A 
ATOM     67  C   UNL     1      27.877  37.612   8.236  1.00  0.00     0.028 A 
ATOM     68  C   UNL     1      25.210  37.129   8.900  1.00  0.00     0.084 A 
ATOM     69  C   UNL     1      26.963  37.351   7.267  1.00  0.00     0.004 A 
ATOM     70  C   UNL     1      25.622  37.105   7.574  1.00  0.00     0.022 A 
BRANCH  68  71
ATOM     71  S   UNL     1      23.531  36.820   9.240  1.00  0.00     0.238 S 
ATOM     72  O   UNL     1      22.724  37.144   8.014  1.00  0.00    -0.207 OA
ATOM     73  O   UNL     1      23.061  37.681  10.367  1.00  0.00    -0.207 OA
BRANCH  71  74
ATOM     74  N   UNL     1      23.349  35.138   9.648  1.00  0.00    -0.225 NA
ATOM     75  H   UNL     1      23.411  34.578   8.768  1.00  0.00     0.137 HD
ATOM     76  H   UNL     1      22.486  34.966  10.203  1.00  0.00     0.137 HD
ENDBRANCH  71  74
ENDBRANCH  68  71
ENDBRANCH  63  65
ENDBRANCH  59  60
ENDBRANCH  58  59
ENDBRANCH  55  58
ENDBRANCH  53  54
ENDBRANCH  50  53
ENDBRANCH  47  50
ENDBRANCH   5  47
BRANCH   4  77
ATOM     77  N   UNL     1      32.585  35.440  17.311  1.00  0.00    -0.348 N 
ATOM     78  C   UNL     1      33.255  36.219  16.329  1.00  0.00     0.217 C 
ATOM     79  H   UNL     1      33.049  35.306  18.232  1.00  0.00     0.163 HD
ATOM     80  C   UNL     1      34.579  36.821  16.628  1.00  0.00     0.114 C 
ATOM     81  O   UNL     1      32.688  36.377  15.209  1.00  0.00    -0.275 OA
ENDBRANCH   4  77
TORSDOF 32
BEGIN_RES LYS A 131
REMARK  4 active torsions:
REMARK  status: ('A' for Active; 'I' for Inactive)
REMARK    1  A    between atoms: CA   and  CB  
REMARK    2  A    between atoms: CB   and  CG  
REMARK    3  A    between atoms: CG   and  CD  
REMARK    4  A    between atoms: CD   and  CE  
ROOT
ATOM      1  CA  LYS A 131      29.867  25.555  16.977  1.00 20.52     0.186 C 
ENDROOT
BRANCH   1   2
ATOM      2  CB  LYS A 131      28.345  25.722  17.026  1.00 20.94     0.034 C 
BRANCH   2   3
ATOM      3  CG  LYS A 131      27.602  24.399  16.928  1.00 22.96     0.005 C 
BRANCH   3   4
ATOM      4  CD  LYS A 131      26.138  24.546  17.238  1.00 24.33     0.041 C 
BRANCH   4   5
ATOM      5  CE  LYS A 131      25.937  24.565  18.750  1.00 26.91     0.338 C 
ATOM      6  NZ  LYS A 131      25.533  25.917  19.203  1.00 27.40     0.618 N 
ENDBRANCH   4   5
ENDBRANCH   3   4
ENDBRANCH   2   3
ENDBRANCH   1   2
END_RES LYS A 131
BEGIN_RES LYS A 135
REMARK  4 active torsions:
REMARK  status: ('A' for Active; 'I' for Inactive)
REMARK    5  A    between atoms: CA   and  CB  
REMARK    6  A    between atoms: CB   and  CG  
REMARK    7  A    between atoms: CG   and  CD  
REMARK    8  A    between atoms: CD   and  CE  
ROOT
ATOM      7  CA  LYS A 135      33.193  34.663   9.290  1.00 25.02     0.186 C 
ENDROOT
BRANCH   7   8
ATOM      8  CB  LYS A 135      32.060  35.360  10.034  1.00 26.63     0.034 C 
BRANCH   8   9
ATOM      9  CG  LYS A 135      30.797  35.491   9.222  1.00 29.45     0.005 C 
BRANCH   9  10
ATOM     10  CD  LYS A 135      30.100  34.146   9.092  1.00 32.00     0.041 C 
BRANCH  10  11
ATOM     11  CE  LYS A 135      28.794  34.146   9.863  1.00 34.25     0.338 C 
ATOM     12  NZ  LYS A 135      27.627  34.091   8.939  1.00 35.99     0.618 N 
ENDBRANCH  10  11
ENDBRANCH   9  10
ENDBRANCH   8   9
ENDBRANCH   7   8
END_RES LYS A 135
