REMARK VINA RESULT:    -4.294      6.365     11.195
REMARK INTER + INTRA:         -21.813
REMARK INTER:                 -11.986
REMARK INTRA:                  -9.827
REMARK UNBOUND:               -11.242
REMARK SMILES CC(=O)N[C@@H]1[C@@H](O)C[C@](OC[C@H]2O[C@@H](O[C@H]3[C@H](O)[C@@H](O)[C@H](OCCN=[N+]=[N-])O[C@@H]3CO)[C@H](O)[C@@H](O)[C@H]2O)(C(=O)O)O[C@H]1C(O)[C@H](O)CNC(=O)OCc1cn(-c2c(C)cc(C)cc2C)nn1
REMARK SMILES IDX 9 1 8 2 6 3 5 4 42 5 41 6 10 7 11 8 12 9 14 10 13 11 32 12
REMARK SMILES IDX 34 13 36 14 15 15 16 16 29 17 28 18 21 19 17 20 19 21 30 22
REMARK SMILES IDX 31 23 22 25 23 26 24 27 25 28 26 29 27 30 18 31 20 33 33 35
REMARK SMILES IDX 35 37 37 39 38 41 39 42 40 43 7 45 43 47 44 48 45 50 46 51
REMARK SMILES IDX 47 53 48 54 49 55 50 57 51 58 52 59 53 60 54 61 66 62 55 63
REMARK SMILES IDX 65 64 56 65 57 66 63 67 58 68 59 69 62 70 64 71 60 72 61 73
REMARK SMILES IDX 4 74 2 75 1 77 3 78
REMARK H PARENT 31 24 18 32 20 34 33 36 35 38 37 40 40 44 7 46 44 49 46 52
REMARK H PARENT 48 56 4 76
REMARK Flexibility Score: inf
ROOT
ATOM      1  C   UNL     1      24.496  31.443  15.058  1.00  0.00     0.272 C 
ATOM      2  C   UNL     1      24.797  30.540  13.926  1.00  0.00     0.113 C 
ATOM      3  C   UNL     1      23.748  29.509  13.589  1.00  0.00     0.145 C 
ATOM      4  C   UNL     1      23.065  29.050  14.838  1.00  0.00     0.142 C 
ATOM      5  C   UNL     1      24.061  29.323  15.972  1.00  0.00     0.178 C 
ATOM      6  O   UNL     1      24.040  30.729  16.176  1.00  0.00    -0.332 OA
ENDROOT
BRANCH   1   7
ATOM      7  O   UNL     1      23.678  32.506  14.823  1.00  0.00    -0.338 OA
BRANCH   7   8
ATOM      8  C   UNL     1      22.908  33.008  15.806  1.00  0.00     0.199 C 
BRANCH   8   9
ATOM      9  C   UNL     1      21.858  33.919  15.152  1.00  0.00     0.179 C 
ATOM     10  C   UNL     1      21.412  34.731  13.045  1.00  0.00     0.282 C 
ATOM     11  O   UNL     1      22.374  34.523  14.022  1.00  0.00    -0.341 OA
ATOM     12  C   UNL     1      21.051  33.366  12.519  1.00  0.00     0.202 C 
ATOM     13  C   UNL     1      20.346  32.648  13.661  1.00  0.00     0.179 C 
ATOM     14  C   UNL     1      20.527  33.282  14.995  1.00  0.00     0.177 C 
BRANCH  10  15
ATOM     15  O   UNL     1      21.747  35.651  12.127  1.00  0.00    -0.341 OA
BRANCH  15  16
ATOM     16  C   UNL     1      22.706  35.370  11.222  1.00  0.00     0.184 C 
ATOM     17  C   UNL     1      24.010  36.020  11.648  1.00  0.00     0.178 C 
ATOM     18  O   UNL     1      24.301  37.150  10.943  1.00  0.00    -0.341 OA
ATOM     19  C   UNL     1      24.494  36.953   9.585  1.00  0.00     0.281 C 
ATOM     20  C   UNL     1      22.282  35.936   9.864  1.00  0.00     0.180 C 
ATOM     21  C   UNL     1      23.490  36.061   8.952  1.00  0.00     0.202 C 
BRANCH  17  22
ATOM     22  C   UNL     1      25.144  35.009  11.657  1.00  0.00     0.191 C 
BRANCH  22  23
ATOM     23  O   UNL     1      24.852  33.952  12.515  1.00  0.00    -0.394 OA
ATOM     24  H   UNL     1      24.246  34.196  13.251  1.00  0.00     0.210 HD
ENDBRANCH  22  23
ENDBRANCH  17  22
BRANCH  19  25
ATOM     25  O   UNL     1      25.782  36.461   9.325  1.00  0.00    -0.350 OA
BRANCH  25  26
ATOM     26  C   UNL     1      26.645  37.406   8.831  1.00  0.00     0.169 C 
BRANCH  26  27
ATOM     27  C   UNL     1      26.611  37.589   7.345  1.00  0.00     0.119 C 
BRANCH  27  28
ATOM     28  N   UNL     1      27.581  38.569   6.889  1.00  0.00    -0.092 NA
ATOM     29  N   UNL     1      27.687  38.847   5.678  1.00  0.00     0.001 N 
ATOM     30  N   UNL     1      27.593  39.025   4.458  1.00  0.00    -0.003 NA
ENDBRANCH  27  28
ENDBRANCH  26  27
ENDBRANCH  25  26
ENDBRANCH  19  25
BRANCH  20  31
ATOM     31  O   UNL     1      21.346  35.163   9.224  1.00  0.00    -0.387 OA
ATOM     32  H   UNL     1      21.589  34.206   9.128  1.00  0.00     0.211 HD
ENDBRANCH  20  31
BRANCH  21  33
ATOM     33  O   UNL     1      23.045  36.644   7.768  1.00  0.00    -0.385 OA
ATOM     34  H   UNL     1      22.248  36.162   7.409  1.00  0.00     0.211 HD
ENDBRANCH  21  33
ENDBRANCH  15  16
ENDBRANCH  10  15
BRANCH  12  35
ATOM     35  O   UNL     1      20.156  33.421  11.455  1.00  0.00    -0.385 OA
ATOM     36  H   UNL     1      20.618  33.002  10.666  1.00  0.00     0.211 HD
ENDBRANCH  12  35
BRANCH  13  37
ATOM     37  O   UNL     1      20.740  31.313  13.739  1.00  0.00    -0.387 OA
ATOM     38  H   UNL     1      20.055  30.727  14.153  1.00  0.00     0.211 HD
ENDBRANCH  13  37
BRANCH  14  39
ATOM     39  O   UNL     1      20.367  32.266  15.969  1.00  0.00    -0.387 OA
ATOM     40  H   UNL     1      21.101  31.611  15.911  1.00  0.00     0.211 HD
ENDBRANCH  14  39
ENDBRANCH   8   9
ENDBRANCH   7   8
ENDBRANCH   1   7
BRANCH   1  41
ATOM     41  C   UNL     1      25.830  31.971  15.537  1.00  0.00     0.364 C 
ATOM     42  O   UNL     1      26.404  32.837  14.868  1.00  0.00    -0.246 OA
BRANCH  41  43
ATOM     43  O   UNL     1      26.415  31.507  16.699  1.00  0.00    -0.477 OA
ATOM     44  H   UNL     1      26.675  32.082  17.481  1.00  0.00     0.296 HD
ENDBRANCH  41  43
ENDBRANCH   1  41
BRANCH   3  45
ATOM     45  O   UNL     1      22.891  30.088  12.655  1.00  0.00    -0.391 OA
ATOM     46  H   UNL     1      22.578  30.978  13.018  1.00  0.00     0.211 HD
ENDBRANCH   3  45
BRANCH   5  47
ATOM     47  C   UNL     1      23.683  28.758  17.284  1.00  0.00     0.176 C 
BRANCH  47  48
ATOM     48  O   UNL     1      24.235  29.645  18.279  1.00  0.00    -0.388 OA
ATOM     49  H   UNL     1      24.551  30.467  17.823  1.00  0.00     0.211 HD
ENDBRANCH  47  48
BRANCH  47  50
ATOM     50  C   UNL     1      24.300  27.431  17.681  1.00  0.00     0.165 C 
BRANCH  50  51
ATOM     51  O   UNL     1      23.131  26.581  17.770  1.00  0.00    -0.388 OA
ATOM     52  H   UNL     1      23.420  25.662  17.934  1.00  0.00     0.211 HD
ENDBRANCH  50  51
BRANCH  50  53
ATOM     53  C   UNL     1      24.800  27.451  19.104  1.00  0.00     0.154 C 
BRANCH  53  54
ATOM     54  N   UNL     1      26.219  27.531  19.274  1.00  0.00    -0.319 N 
ATOM     55  C   UNL     1      26.767  28.489  20.181  1.00  0.00     0.407 C 
ATOM     56  H   UNL     1      26.869  26.893  18.734  1.00  0.00     0.167 HD
ATOM     57  O   UNL     1      25.943  29.231  20.784  1.00  0.00    -0.225 OA
BRANCH  55  58
ATOM     58  O   UNL     1      28.133  28.612  20.404  1.00  0.00    -0.443 OA
BRANCH  58  59
ATOM     59  C   UNL     1      28.712  29.804  20.879  1.00  0.00     0.294 C 
BRANCH  59  60
ATOM     60  C   UNL     1      28.884  30.847  19.833  1.00  0.00     0.121 A 
ATOM     61  C   UNL     1      29.995  31.115  19.067  1.00  0.00     0.144 A 
ATOM     62  N   UNL     1      27.948  31.755  19.431  1.00  0.00    -0.131 NA
ATOM     63  N   UNL     1      29.724  32.142  18.245  1.00  0.00    -0.220 N 
ATOM     64  N   UNL     1      28.466  32.497  18.504  1.00  0.00    -0.062 NA
BRANCH  63  65
ATOM     65  C   UNL     1      30.583  32.771  17.275  1.00  0.00     0.072 A 
ATOM     66  C   UNL     1      31.371  33.803  17.720  1.00  0.00    -0.025 A 
ATOM     67  C   UNL     1      30.587  32.342  15.993  1.00  0.00    -0.025 A 
ATOM     68  C   UNL     1      31.337  34.250  19.155  1.00  0.00     0.047 C 
ATOM     69  C   UNL     1      32.199  34.420  16.804  1.00  0.00     0.009 A 
ATOM     70  C   UNL     1      31.442  33.000  15.101  1.00  0.00     0.009 A 
ATOM     71  C   UNL     1      29.750  31.229  15.476  1.00  0.00     0.047 C 
ATOM     72  C   UNL     1      32.253  34.037  15.488  1.00  0.00    -0.050 A 
ATOM     73  C   UNL     1      33.167  34.741  14.554  1.00  0.00     0.044 C 
ENDBRANCH  63  65
ENDBRANCH  59  60
ENDBRANCH  58  59
ENDBRANCH  55  58
ENDBRANCH  53  54
ENDBRANCH  50  53
ENDBRANCH  47  50
ENDBRANCH   5  47
BRANCH   4  74
ATOM     74  N   UNL     1      22.552  27.749  14.834  1.00  0.00    -0.348 N 
ATOM     75  C   UNL     1      21.161  27.452  14.900  1.00  0.00     0.217 C 
ATOM     76  H   UNL     1      23.193  26.939  14.758  1.00  0.00     0.163 HD
ATOM     77  C   UNL     1      20.646  26.048  14.891  1.00  0.00     0.114 C 
ATOM     78  O   UNL     1      20.373  28.410  14.964  1.00  0.00    -0.275 OA
ENDBRANCH   4  74
TORSDOF 30
BEGIN_RES LYS A 131
REMARK  4 active torsions:
REMARK  status: ('A' for Active; 'I' for Inactive)
REMARK    1  A    between atoms: CA   and  CB  
REMARK    2  A    between atoms: CB   and  CG  
REMARK    3  A    between atoms: CG   and  CD  
REMARK    4  A    between atoms: CD   and  CE  
ROOT
ATOM      1  CA  LYS A 131      29.867  25.555  16.977  1.00 20.52     0.186 C 
ENDROOT
BRANCH   1   2
ATOM      2  CB  LYS A 131      28.345  25.722  17.026  1.00 20.94     0.034 C 
BRANCH   2   3
ATOM      3  CG  LYS A 131      27.600  24.418  16.786  1.00 22.96     0.005 C 
BRANCH   3   4
ATOM      4  CD  LYS A 131      26.261  24.397  17.470  1.00 24.33     0.041 C 
BRANCH   4   5
ATOM      5  CE  LYS A 131      25.827  22.952  17.696  1.00 26.91     0.338 C 
ATOM      6  NZ  LYS A 131      24.422  22.759  17.268  1.00 27.40     0.618 N 
ENDBRANCH   4   5
ENDBRANCH   3   4
ENDBRANCH   2   3
ENDBRANCH   1   2
END_RES LYS A 131
BEGIN_RES LYS A 135
REMARK  4 active torsions:
REMARK  status: ('A' for Active; 'I' for Inactive)
REMARK    5  A    between atoms: CA   and  CB  
REMARK    6  A    between atoms: CB   and  CG  
REMARK    7  A    between atoms: CG   and  CD  
REMARK    8  A    between atoms: CD   and  CE  
ROOT
ATOM      7  CA  LYS A 135      33.193  34.663   9.290  1.00 25.02     0.186 C 
ENDROOT
BRANCH   7   8
ATOM      8  CB  LYS A 135      32.060  35.360  10.034  1.00 26.63     0.034 C 
BRANCH   8   9
ATOM      9  CG  LYS A 135      30.741  34.638   9.935  1.00 29.45     0.005 C 
BRANCH   9  10
ATOM     10  CD  LYS A 135      30.343  34.444   8.480  1.00 32.00     0.041 C 
BRANCH  10  11
ATOM     11  CE  LYS A 135      28.834  34.484   8.331  1.00 34.25     0.338 C 
ATOM     12  NZ  LYS A 135      28.163  33.807   9.475  1.00 35.99     0.618 N 
ENDBRANCH  10  11
ENDBRANCH   9  10
ENDBRANCH   8   9
ENDBRANCH   7   8
END_RES LYS A 135
