REMARK VINA RESULT:    -5.110      4.753     10.836
REMARK INTER + INTRA:         -21.701
REMARK INTER:                 -11.013
REMARK INTRA:                 -10.688
REMARK UNBOUND:                -9.122
REMARK SMILES CC(=O)N[C@@H]1[C@@H](O)C[C@](OC[C@H]2O[C@@H](O[C@H]3[C@H](O)[C@@H](O)[C@H](OCCN=[N+]=[N-])O[C@@H]3CO)[C@H](O)[C@@H](O)[C@H]2O)(C(=O)O)O[C@H]1C(O)[C@H](O)CNC(=O)OCc1cn(-c2ccc(Cl)cc2)nn1
REMARK SMILES IDX 9 1 8 2 6 3 5 4 42 5 41 6 10 7 11 8 12 9 14 10 13 11 32 12
REMARK SMILES IDX 34 13 36 14 15 15 16 16 29 17 28 18 21 19 17 20 19 21 30 22
REMARK SMILES IDX 31 23 22 25 23 26 24 27 25 28 26 29 27 30 18 31 20 33 33 35
REMARK SMILES IDX 35 37 37 39 38 41 39 42 40 43 7 45 43 47 44 48 45 50 46 51
REMARK SMILES IDX 47 53 48 54 49 55 50 57 51 58 52 59 53 60 54 61 64 62 55 63
REMARK SMILES IDX 63 64 56 65 57 66 62 67 58 68 61 69 59 70 60 71 4 72 2 73
REMARK SMILES IDX 1 75 3 76
REMARK H PARENT 31 24 18 32 20 34 33 36 35 38 37 40 40 44 7 46 44 49 46 52
REMARK H PARENT 48 56 4 74
REMARK Flexibility Score: inf
ROOT
ATOM      1  C   UNL     1      31.466  35.159  17.784  1.00  0.00     0.272 C 
ATOM      2  C   UNL     1      30.688  35.551  18.972  1.00  0.00     0.113 C 
ATOM      3  C   UNL     1      29.476  36.375  18.815  1.00  0.00     0.145 C 
ATOM      4  C   UNL     1      29.127  36.524  17.350  1.00  0.00     0.142 C 
ATOM      5  C   UNL     1      30.467  36.871  16.665  1.00  0.00     0.178 C 
ATOM      6  O   UNL     1      31.036  35.566  16.548  1.00  0.00    -0.332 OA
ENDROOT
BRANCH   1   7
ATOM      7  O   UNL     1      31.541  33.738  17.787  1.00  0.00    -0.338 OA
BRANCH   7   8
ATOM      8  C   UNL     1      31.529  33.190  16.534  1.00  0.00     0.199 C 
BRANCH   8   9
ATOM      9  C   UNL     1      30.709  31.904  16.483  1.00  0.00     0.179 C 
ATOM     10  C   UNL     1      28.797  31.262  17.694  1.00  0.00     0.282 C 
ATOM     11  O   UNL     1      30.151  31.603  17.684  1.00  0.00    -0.341 OA
ATOM     12  C   UNL     1      28.034  32.397  17.152  1.00  0.00     0.202 C 
ATOM     13  C   UNL     1      28.464  32.656  15.714  1.00  0.00     0.179 C 
ATOM     14  C   UNL     1      29.715  31.925  15.343  1.00  0.00     0.177 C 
BRANCH  10  15
ATOM     15  O   UNL     1      28.565  30.916  19.024  1.00  0.00    -0.341 OA
BRANCH  15  16
ATOM     16  C   UNL     1      29.599  30.484  19.739  1.00  0.00     0.184 C 
ATOM     17  C   UNL     1      29.335  29.241  20.510  1.00  0.00     0.178 C 
ATOM     18  O   UNL     1      30.518  28.675  20.975  1.00  0.00    -0.341 OA
ATOM     19  C   UNL     1      31.264  29.461  21.793  1.00  0.00     0.281 C 
ATOM     20  C   UNL     1      30.137  31.500  20.768  1.00  0.00     0.180 C 
ATOM     21  C   UNL     1      30.680  30.815  21.970  1.00  0.00     0.202 C 
BRANCH  17  22
ATOM     22  C   UNL     1      28.532  28.177  19.830  1.00  0.00     0.191 C 
BRANCH  22  23
ATOM     23  O   UNL     1      27.211  28.568  19.611  1.00  0.00    -0.394 OA
ATOM     24  H   UNL     1      27.199  29.327  18.982  1.00  0.00     0.210 HD
ENDBRANCH  22  23
ENDBRANCH  17  22
BRANCH  19  25
ATOM     25  O   UNL     1      32.554  29.616  21.274  1.00  0.00    -0.350 OA
BRANCH  25  26
ATOM     26  C   UNL     1      33.525  29.307  22.215  1.00  0.00     0.169 C 
BRANCH  26  27
ATOM     27  C   UNL     1      34.266  30.501  22.735  1.00  0.00     0.119 C 
BRANCH  27  28
ATOM     28  N   UNL     1      34.132  30.485  24.190  1.00  0.00    -0.092 NA
ATOM     29  N   UNL     1      33.175  31.137  24.643  1.00  0.00     0.001 N 
ATOM     30  N   UNL     1      32.060  31.467  25.101  1.00  0.00    -0.003 NA
ENDBRANCH  27  28
ENDBRANCH  26  27
ENDBRANCH  25  26
ENDBRANCH  19  25
BRANCH  20  31
ATOM     31  O   UNL     1      31.147  32.202  20.134  1.00  0.00    -0.387 OA
ATOM     32  H   UNL     1      31.904  32.267  20.799  1.00  0.00     0.211 HD
ENDBRANCH  20  31
BRANCH  21  33
ATOM     33  O   UNL     1      29.762  30.795  23.040  1.00  0.00    -0.385 OA
ATOM     34  H   UNL     1      29.997  29.998  23.566  1.00  0.00     0.211 HD
ENDBRANCH  21  33
ENDBRANCH  15  16
ENDBRANCH  10  15
BRANCH  12  35
ATOM     35  O   UNL     1      26.646  32.248  17.161  1.00  0.00    -0.385 OA
ATOM     36  H   UNL     1      26.383  31.272  17.184  1.00  0.00     0.211 HD
ENDBRANCH  12  35
BRANCH  13  37
ATOM     37  O   UNL     1      28.547  34.034  15.530  1.00  0.00    -0.387 OA
ATOM     38  H   UNL     1      28.713  34.314  14.616  1.00  0.00     0.211 HD
ENDBRANCH  13  37
BRANCH  14  39
ATOM     39  O   UNL     1      30.372  32.615  14.295  1.00  0.00    -0.387 OA
ATOM     40  H   UNL     1      30.564  31.954  13.606  1.00  0.00     0.211 HD
ENDBRANCH  14  39
ENDBRANCH   8   9
ENDBRANCH   7   8
ENDBRANCH   1   7
BRANCH   1  41
ATOM     41  C   UNL     1      32.888  35.623  17.967  1.00  0.00     0.364 C 
ATOM     42  O   UNL     1      33.665  35.768  16.998  1.00  0.00    -0.246 OA
BRANCH  41  43
ATOM     43  O   UNL     1      33.346  35.895  19.232  1.00  0.00    -0.477 OA
ATOM     44  H   UNL     1      33.644  35.180  19.893  1.00  0.00     0.296 HD
ENDBRANCH  41  43
ENDBRANCH   1  41
BRANCH   3  45
ATOM     45  O   UNL     1      28.375  35.781  19.431  1.00  0.00    -0.391 OA
ATOM     46  H   UNL     1      28.604  35.614  20.365  1.00  0.00     0.211 HD
ENDBRANCH   3  45
BRANCH   5  47
ATOM     47  C   UNL     1      30.297  37.432  15.300  1.00  0.00     0.176 C 
BRANCH  47  48
ATOM     48  O   UNL     1      29.895  38.754  15.429  1.00  0.00    -0.388 OA
ATOM     49  H   UNL     1      30.483  39.307  16.000  1.00  0.00     0.211 HD
ENDBRANCH  47  48
BRANCH  47  50
ATOM     50  C   UNL     1      31.373  37.288  14.310  1.00  0.00     0.165 C 
BRANCH  50  51
ATOM     51  O   UNL     1      31.511  38.599  13.724  1.00  0.00    -0.388 OA
ATOM     52  H   UNL     1      31.472  39.285  14.432  1.00  0.00     0.211 HD
ENDBRANCH  50  51
BRANCH  50  53
ATOM     53  C   UNL     1      30.980  36.447  13.105  1.00  0.00     0.154 C 
BRANCH  53  54
ATOM     54  N   UNL     1      29.927  35.504  13.361  1.00  0.00    -0.319 N 
ATOM     55  C   UNL     1      28.717  35.614  12.630  1.00  0.00     0.407 C 
ATOM     56  H   UNL     1      30.002  34.733  14.068  1.00  0.00     0.167 HD
ATOM     57  O   UNL     1      28.535  36.529  11.770  1.00  0.00    -0.225 OA
BRANCH  55  58
ATOM     58  O   UNL     1      27.684  34.719  12.830  1.00  0.00    -0.443 OA
BRANCH  58  59
ATOM     59  C   UNL     1      26.334  35.148  13.027  1.00  0.00     0.294 C 
BRANCH  59  60
ATOM     60  C   UNL     1      25.506  34.022  13.547  1.00  0.00     0.121 A 
ATOM     61  C   UNL     1      24.648  33.241  12.786  1.00  0.00     0.144 A 
ATOM     62  N   UNL     1      25.433  33.562  14.804  1.00  0.00    -0.131 NA
ATOM     63  N   UNL     1      24.084  32.339  13.599  1.00  0.00    -0.220 N 
ATOM     64  N   UNL     1      24.567  32.552  14.789  1.00  0.00    -0.062 NA
BRANCH  63  65
ATOM     65  C   UNL     1      23.140  31.370  13.138  1.00  0.00     0.066 A 
ATOM     66  C   UNL     1      21.842  31.715  12.857  1.00  0.00     0.030 A 
ATOM     67  C   UNL     1      23.516  30.066  12.964  1.00  0.00     0.030 A 
ATOM     68  C   UNL     1      20.897  30.791  12.405  1.00  0.00     0.023 A 
ATOM     69  C   UNL     1      22.598  29.127  12.517  1.00  0.00     0.023 A 
ATOM     70  C   UNL     1      21.280  29.487  12.234  1.00  0.00     0.041 A 
ATOM     71  Cl  UNL     1      20.122  28.282  11.666  1.00  0.00    -0.084 Cl
ENDBRANCH  63  65
ENDBRANCH  59  60
ENDBRANCH  58  59
ENDBRANCH  55  58
ENDBRANCH  53  54
ENDBRANCH  50  53
ENDBRANCH  47  50
ENDBRANCH   5  47
BRANCH   4  72
ATOM     72  N   UNL     1      28.097  37.472  17.153  1.00  0.00    -0.348 N 
ATOM     73  C   UNL     1      26.752  37.021  16.904  1.00  0.00     0.217 C 
ATOM     74  H   UNL     1      28.218  38.497  17.184  1.00  0.00     0.163 HD
ATOM     75  C   UNL     1      25.643  37.994  16.692  1.00  0.00     0.114 C 
ATOM     76  O   UNL     1      26.536  35.782  16.870  1.00  0.00    -0.275 OA
ENDBRANCH   4  72
TORSDOF 30
BEGIN_RES LYS A 131
REMARK  4 active torsions:
REMARK  status: ('A' for Active; 'I' for Inactive)
REMARK    1  A    between atoms: CA   and  CB  
REMARK    2  A    between atoms: CB   and  CG  
REMARK    3  A    between atoms: CG   and  CD  
REMARK    4  A    between atoms: CD   and  CE  
ROOT
ATOM      1  CA  LYS A 131      29.867  25.555  16.977  1.00 20.52     0.186 C 
ENDROOT
BRANCH   1   2
ATOM      2  CB  LYS A 131      28.345  25.722  17.026  1.00 20.94     0.034 C 
BRANCH   2   3
ATOM      3  CG  LYS A 131      27.601  24.401  16.901  1.00 22.96     0.005 C 
BRANCH   3   4
ATOM      4  CD  LYS A 131      26.199  24.488  17.437  1.00 24.33     0.041 C 
BRANCH   4   5
ATOM      5  CE  LYS A 131      26.200  25.284  18.738  1.00 26.91     0.338 C 
ATOM      6  NZ  LYS A 131      24.834  25.767  19.051  1.00 27.40     0.618 N 
ENDBRANCH   4   5
ENDBRANCH   3   4
ENDBRANCH   2   3
ENDBRANCH   1   2
END_RES LYS A 131
BEGIN_RES LYS A 135
REMARK  4 active torsions:
REMARK  status: ('A' for Active; 'I' for Inactive)
REMARK    5  A    between atoms: CA   and  CB  
REMARK    6  A    between atoms: CB   and  CG  
REMARK    7  A    between atoms: CG   and  CD  
REMARK    8  A    between atoms: CD   and  CE  
ROOT
ATOM      7  CA  LYS A 135      33.193  34.663   9.290  1.00 25.02     0.186 C 
ENDROOT
BRANCH   7   8
ATOM      8  CB  LYS A 135      32.060  35.360  10.034  1.00 26.63     0.034 C 
BRANCH   8   9
ATOM      9  CG  LYS A 135      30.710  34.734   9.798  1.00 29.45     0.005 C 
BRANCH   9  10
ATOM     10  CD  LYS A 135      30.478  34.501   8.314  1.00 32.00     0.041 C 
BRANCH  10  11
ATOM     11  CE  LYS A 135      29.040  34.812   7.943  1.00 34.25     0.338 C 
ATOM     12  NZ  LYS A 135      28.095  34.259   8.952  1.00 35.99     0.618 N 
ENDBRANCH  10  11
ENDBRANCH   9  10
ENDBRANCH   8   9
ENDBRANCH   7   8
END_RES LYS A 135
