REMARK VINA RESULT:    -4.114      2.166      2.742
REMARK INTER + INTRA:         -21.306
REMARK INTER:                 -11.157
REMARK INTRA:                 -10.149
REMARK UNBOUND:               -10.939
REMARK SMILES CC(=O)N[C@@H]1[C@@H](O)C[C@](OC[C@H]2O[C@@H](O[C@H]3[C@H](O)[C@@H](O)[C@H](OCCN=[N+]=[N-])O[C@@H]3CO)[C@H](O)[C@@H](O)[C@H]2O)(C(=O)O)O[C@H]1C(O)[C@H](O)CNC(=O)OCc1cn(Cc2ccsc2)nn1
REMARK SMILES IDX 9 1 8 2 6 3 5 4 42 5 41 6 10 7 11 8 12 9 14 10 13 11 32 12
REMARK SMILES IDX 34 13 36 14 15 15 16 16 29 17 28 18 21 19 17 20 19 21 30 22
REMARK SMILES IDX 31 23 22 25 23 26 24 27 25 28 26 29 27 30 18 31 20 33 33 35
REMARK SMILES IDX 35 37 37 39 38 41 39 42 40 43 7 45 43 47 44 48 45 50 46 51
REMARK SMILES IDX 47 53 48 54 49 55 50 57 51 58 52 59 53 60 54 61 63 62 55 63
REMARK SMILES IDX 62 64 56 65 57 66 58 67 61 68 59 69 60 70 4 71 2 72 1 74
REMARK SMILES IDX 3 75
REMARK H PARENT 31 24 18 32 20 34 33 36 35 38 37 40 40 44 7 46 44 49 46 52
REMARK H PARENT 48 56 4 73
REMARK Flexibility Score: inf
ROOT
ATOM      1  C   UNL     1      28.344  31.503  16.291  1.00  0.00     0.272 C 
ATOM      2  C   UNL     1      28.461  30.026  16.526  1.00  0.00     0.113 C 
ATOM      3  C   UNL     1      27.336  29.419  17.320  1.00  0.00     0.145 C 
ATOM      4  C   UNL     1      26.003  29.922  16.921  1.00  0.00     0.142 C 
ATOM      5  C   UNL     1      26.002  31.322  16.338  1.00  0.00     0.178 C 
ATOM      6  O   UNL     1      27.079  31.662  15.600  1.00  0.00    -0.332 OA
ENDROOT
BRANCH   1   7
ATOM      7  O   UNL     1      29.220  31.886  15.339  1.00  0.00    -0.338 OA
BRANCH   7   8
ATOM      8  C   UNL     1      30.532  31.941  15.473  1.00  0.00     0.199 C 
BRANCH   8   9
ATOM      9  C   UNL     1      31.392  33.021  14.962  1.00  0.00     0.179 C 
ATOM     10  C   UNL     1      31.370  34.483  13.220  1.00  0.00     0.282 C 
ATOM     11  O   UNL     1      30.526  33.866  14.172  1.00  0.00    -0.341 OA
ATOM     12  C   UNL     1      32.582  35.096  13.833  1.00  0.00     0.202 C 
ATOM     13  C   UNL     1      32.647  35.100  15.317  1.00  0.00     0.179 C 
ATOM     14  C   UNL     1      31.893  34.001  16.009  1.00  0.00     0.177 C 
BRANCH  10  15
ATOM     15  O   UNL     1      30.609  35.366  12.496  1.00  0.00    -0.341 OA
BRANCH  15  16
ATOM     16  C   UNL     1      29.445  35.788  13.160  1.00  0.00     0.184 C 
ATOM     17  C   UNL     1      28.212  35.405  12.423  1.00  0.00     0.178 C 
ATOM     18  O   UNL     1      27.655  36.336  11.602  1.00  0.00    -0.341 OA
ATOM     19  C   UNL     1      28.383  37.533  11.482  1.00  0.00     0.281 C 
ATOM     20  C   UNL     1      29.530  37.220  13.585  1.00  0.00     0.180 C 
ATOM     21  C   UNL     1      28.480  38.087  12.877  1.00  0.00     0.202 C 
BRANCH  17  22
ATOM     22  C   UNL     1      27.126  34.867  13.341  1.00  0.00     0.191 C 
BRANCH  22  23
ATOM     23  O   UNL     1      27.770  34.342  14.461  1.00  0.00    -0.394 OA
ATOM     24  H   UNL     1      28.359  35.024  14.901  1.00  0.00     0.210 HD
ENDBRANCH  22  23
ENDBRANCH  17  22
BRANCH  19  25
ATOM     25  O   UNL     1      27.723  38.321  10.579  1.00  0.00    -0.350 OA
BRANCH  25  26
ATOM     26  C   UNL     1      27.716  37.822   9.291  1.00  0.00     0.169 C 
BRANCH  26  27
ATOM     27  C   UNL     1      26.405  37.882   8.578  1.00  0.00     0.119 C 
BRANCH  27  28
ATOM     28  N   UNL     1      25.917  36.564   8.274  1.00  0.00    -0.092 NA
ATOM     29  N   UNL     1      25.069  36.065   9.030  1.00  0.00     0.001 N 
ATOM     30  N   UNL     1      24.177  35.378   9.528  1.00  0.00    -0.003 NA
ENDBRANCH  27  28
ENDBRANCH  26  27
ENDBRANCH  25  26
ENDBRANCH  19  25
BRANCH  20  31
ATOM     31  O   UNL     1      29.488  37.413  14.949  1.00  0.00    -0.387 OA
ATOM     32  H   UNL     1      30.386  37.395  15.342  1.00  0.00     0.211 HD
ENDBRANCH  20  31
BRANCH  21  33
ATOM     33  O   UNL     1      28.798  39.420  12.898  1.00  0.00    -0.385 OA
ATOM     34  H   UNL     1      29.043  39.742  13.808  1.00  0.00     0.211 HD
ENDBRANCH  21  33
ENDBRANCH  15  16
ENDBRANCH  10  15
BRANCH  12  35
ATOM     35  O   UNL     1      33.772  34.575  13.259  1.00  0.00    -0.385 OA
ATOM     36  H   UNL     1      34.250  34.020  13.930  1.00  0.00     0.211 HD
ENDBRANCH  12  35
BRANCH  13  37
ATOM     37  O   UNL     1      32.117  36.318  15.789  1.00  0.00    -0.387 OA
ATOM     38  H   UNL     1      32.767  37.032  15.593  1.00  0.00     0.211 HD
ENDBRANCH  13  37
BRANCH  14  39
ATOM     39  O   UNL     1      30.718  34.513  16.612  1.00  0.00    -0.387 OA
ATOM     40  H   UNL     1      30.072  33.741  16.593  1.00  0.00     0.211 HD
ENDBRANCH  14  39
ENDBRANCH   8   9
ENDBRANCH   7   8
ENDBRANCH   1   7
BRANCH   1  41
ATOM     41  C   UNL     1      28.190  32.313  17.499  1.00  0.00     0.364 C 
ATOM     42  O   UNL     1      28.391  31.874  18.647  1.00  0.00    -0.246 OA
BRANCH  41  43
ATOM     43  O   UNL     1      27.795  33.663  17.446  1.00  0.00    -0.477 OA
ATOM     44  H   UNL     1      27.291  34.027  16.650  1.00  0.00     0.296 HD
ENDBRANCH  41  43
ENDBRANCH   1  41
BRANCH   3  45
ATOM     45  O   UNL     1      27.394  28.034  17.004  1.00  0.00    -0.391 OA
ATOM     46  H   UNL     1      26.533  27.594  17.252  1.00  0.00     0.211 HD
ENDBRANCH   3  45
BRANCH   5  47
ATOM     47  C   UNL     1      24.800  31.426  15.367  1.00  0.00     0.176 C 
BRANCH  47  48
ATOM     48  O   UNL     1      25.117  30.761  14.185  1.00  0.00    -0.388 OA
ATOM     49  H   UNL     1      24.837  29.819  14.243  1.00  0.00     0.211 HD
ENDBRANCH  47  48
BRANCH  47  50
ATOM     50  C   UNL     1      24.590  32.864  15.054  1.00  0.00     0.165 C 
BRANCH  50  51
ATOM     51  O   UNL     1      25.149  33.637  16.070  1.00  0.00    -0.388 OA
ATOM     52  H   UNL     1      25.845  34.241  15.715  1.00  0.00     0.211 HD
ENDBRANCH  50  51
BRANCH  50  53
ATOM     53  C   UNL     1      23.147  33.271  14.906  1.00  0.00     0.154 C 
BRANCH  53  54
ATOM     54  N   UNL     1      22.322  32.244  14.346  1.00  0.00    -0.319 N 
ATOM     55  C   UNL     1      21.926  32.162  13.005  1.00  0.00     0.407 C 
ATOM     56  H   UNL     1      21.982  31.480  15.004  1.00  0.00     0.167 HD
ATOM     57  O   UNL     1      22.306  33.041  12.203  1.00  0.00    -0.225 OA
BRANCH  55  58
ATOM     58  O   UNL     1      21.125  31.116  12.597  1.00  0.00    -0.443 OA
BRANCH  58  59
ATOM     59  C   UNL     1      21.574  29.803  12.424  1.00  0.00     0.294 C 
BRANCH  59  60
ATOM     60  C   UNL     1      21.221  29.007  13.617  1.00  0.00     0.120 A 
ATOM     61  C   UNL     1      20.283  28.026  13.696  1.00  0.00     0.138 A 
ATOM     62  N   UNL     1      21.788  29.136  14.825  1.00  0.00    -0.132 NA
ATOM     63  N   UNL     1      20.296  27.573  14.962  1.00  0.00    -0.248 N 
ATOM     64  N   UNL     1      21.206  28.247  15.635  1.00  0.00    -0.067 NA
BRANCH  63  65
ATOM     65  C   UNL     1      19.451  26.525  15.476  1.00  0.00     0.182 C 
BRANCH  65  66
ATOM     66  C   UNL     1      20.034  25.174  15.042  1.00  0.00    -0.016 A 
ATOM     67  C   UNL     1      21.219  24.736  15.413  1.00  0.00     0.017 A 
ATOM     68  C   UNL     1      19.249  24.381  14.207  1.00  0.00     0.070 A 
ATOM     69  C   UNL     1      21.697  23.508  14.992  1.00  0.00     0.065 A 
ATOM     70  S   UNL     1      20.297  22.935  13.959  1.00  0.00    -0.152 S 
ENDBRANCH  65  66
ENDBRANCH  63  65
ENDBRANCH  59  60
ENDBRANCH  58  59
ENDBRANCH  55  58
ENDBRANCH  53  54
ENDBRANCH  50  53
ENDBRANCH  47  50
ENDBRANCH   5  47
BRANCH   4  71
ATOM     71  N   UNL     1      25.013  29.885  17.954  1.00  0.00    -0.348 N 
ATOM     72  C   UNL     1      24.096  28.812  18.102  1.00  0.00     0.217 C 
ATOM     73  H   UNL     1      24.944  30.669  18.640  1.00  0.00     0.163 HD
ATOM     74  C   UNL     1      23.058  28.762  19.177  1.00  0.00     0.114 C 
ATOM     75  O   UNL     1      24.208  27.879  17.254  1.00  0.00    -0.275 OA
ENDBRANCH   4  71
TORSDOF 31
BEGIN_RES LYS A 131
REMARK  4 active torsions:
REMARK  status: ('A' for Active; 'I' for Inactive)
REMARK    1  A    between atoms: CA   and  CB  
REMARK    2  A    between atoms: CB   and  CG  
REMARK    3  A    between atoms: CG   and  CD  
REMARK    4  A    between atoms: CD   and  CE  
ROOT
ATOM      1  CA  LYS A 131      29.867  25.555  16.977  1.00 20.52     0.186 C 
ENDROOT
BRANCH   1   2
ATOM      2  CB  LYS A 131      28.345  25.722  17.026  1.00 20.94     0.034 C 
BRANCH   2   3
ATOM      3  CG  LYS A 131      27.600  24.416  16.800  1.00 22.96     0.005 C 
BRANCH   3   4
ATOM      4  CD  LYS A 131      26.845  23.975  18.023  1.00 24.33     0.041 C 
BRANCH   4   5
ATOM      5  CE  LYS A 131      25.509  24.708  18.089  1.00 26.91     0.338 C 
ATOM      6  NZ  LYS A 131      24.675  24.374  16.910  1.00 27.40     0.618 N 
ENDBRANCH   4   5
ENDBRANCH   3   4
ENDBRANCH   2   3
ENDBRANCH   1   2
END_RES LYS A 131
BEGIN_RES LYS A 135
REMARK  4 active torsions:
REMARK  status: ('A' for Active; 'I' for Inactive)
REMARK    5  A    between atoms: CA   and  CB  
REMARK    6  A    between atoms: CB   and  CG  
REMARK    7  A    between atoms: CG   and  CD  
REMARK    8  A    between atoms: CD   and  CE  
ROOT
ATOM      7  CA  LYS A 135      33.193  34.663   9.290  1.00 25.02     0.186 C 
ENDROOT
BRANCH   7   8
ATOM      8  CB  LYS A 135      32.060  35.360  10.034  1.00 26.63     0.034 C 
BRANCH   8   9
ATOM      9  CG  LYS A 135      30.797  35.491   9.222  1.00 29.45     0.005 C 
BRANCH   9  10
ATOM     10  CD  LYS A 135      30.089  34.149   9.111  1.00 32.00     0.041 C 
BRANCH  10  11
ATOM     11  CE  LYS A 135      28.663  34.338   8.631  1.00 34.25     0.338 C 
ATOM     12  NZ  LYS A 135      27.702  33.609   9.505  1.00 35.99     0.618 N 
ENDBRANCH  10  11
ENDBRANCH   9  10
ENDBRANCH   8   9
ENDBRANCH   7   8
END_RES LYS A 135
