REMARK VINA RESULT:    -3.900      5.191     11.774
REMARK INTER + INTRA:         -22.759
REMARK INTER:                  -9.988
REMARK INTRA:                 -12.771
REMARK UNBOUND:               -13.046
REMARK SMILES CC(=O)N[C@@H]1[C@@H](O)C[C@](OC[C@H]2O[C@@H](O[C@H]3[C@H](O)[C@@H](O)[C@H](OCCN=[N+]=[N-])O[C@@H]3CO)[C@H](O)[C@@H](O)[C@H]2O)(C(=O)O)O[C@H]1C(O)[C@H](O)CNC(=O)OCc1cn(-c2nc(C)nc(N)n2)nn1
REMARK SMILES IDX 9 1 8 2 6 3 5 4 42 5 41 6 10 7 11 8 12 9 14 10 13 11 32 12
REMARK SMILES IDX 34 13 36 14 15 15 16 16 29 17 28 18 21 19 17 20 19 21 30 22
REMARK SMILES IDX 31 23 22 25 23 26 24 27 25 28 26 29 27 30 18 31 20 33 33 35
REMARK SMILES IDX 35 37 37 39 38 41 39 42 40 43 7 45 43 47 44 48 45 50 46 51
REMARK SMILES IDX 47 53 48 54 49 55 50 57 51 58 52 59 53 60 54 61 65 62 55 63
REMARK SMILES IDX 64 64 56 65 63 66 57 67 61 68 58 69 60 70 59 71 62 72 4 75
REMARK SMILES IDX 2 76 1 78 3 79
REMARK H PARENT 31 24 18 32 20 34 33 36 35 38 37 40 40 44 7 46 44 49 46 52
REMARK H PARENT 48 56 62 73 62 74 4 77
REMARK Flexibility Score: inf
ROOT
ATOM      1  C   UNL     1      26.688  35.990   9.534  1.00  0.00     0.272 C 
ATOM      2  C   UNL     1      26.973  36.713  10.805  1.00  0.00     0.113 C 
ATOM      3  C   UNL     1      27.308  38.152  10.556  1.00  0.00     0.145 C 
ATOM      4  C   UNL     1      28.470  38.217   9.600  1.00  0.00     0.142 C 
ATOM      5  C   UNL     1      28.322  37.282   8.423  1.00  0.00     0.178 C 
ATOM      6  O   UNL     1      27.857  36.060   8.728  1.00  0.00    -0.332 OA
ENDROOT
BRANCH   1   7
ATOM      7  O   UNL     1      25.590  36.220   8.903  1.00  0.00    -0.338 OA
BRANCH   7   8
ATOM      8  C   UNL     1      24.324  36.062   8.936  1.00  0.00     0.199 C 
BRANCH   8   9
ATOM      9  C   UNL     1      23.273  37.032   9.357  1.00  0.00     0.179 C 
ATOM     10  C   UNL     1      22.541  38.502  10.854  1.00  0.00     0.282 C 
ATOM     11  O   UNL     1      23.695  37.824  10.375  1.00  0.00    -0.341 OA
ATOM     12  C   UNL     1      22.343  39.620   9.863  1.00  0.00     0.202 C 
ATOM     13  C   UNL     1      21.978  39.032   8.522  1.00  0.00     0.179 C 
ATOM     14  C   UNL     1      22.471  37.662   8.266  1.00  0.00     0.177 C 
BRANCH  10  15
ATOM     15  O   UNL     1      22.733  38.982  12.122  1.00  0.00    -0.341 OA
BRANCH  15  16
ATOM     16  C   UNL     1      23.812  38.417  12.780  1.00  0.00     0.184 C 
ATOM     17  C   UNL     1      23.472  37.634  14.003  1.00  0.00     0.178 C 
ATOM     18  O   UNL     1      24.168  38.046  15.131  1.00  0.00    -0.341 OA
ATOM     19  C   UNL     1      25.544  38.125  14.957  1.00  0.00     0.281 C 
ATOM     20  C   UNL     1      24.697  39.611  13.188  1.00  0.00     0.180 C 
ATOM     21  C   UNL     1      25.936  39.033  13.830  1.00  0.00     0.202 C 
BRANCH  17  22
ATOM     22  C   UNL     1      23.539  36.139  13.834  1.00  0.00     0.191 C 
BRANCH  22  23
ATOM     23  O   UNL     1      24.221  35.899  12.621  1.00  0.00    -0.394 OA
ATOM     24  H   UNL     1      23.610  35.684  11.883  1.00  0.00     0.210 HD
ENDBRANCH  22  23
ENDBRANCH  17  22
BRANCH  19  25
ATOM     25  O   UNL     1      26.143  36.909  14.781  1.00  0.00    -0.350 OA
BRANCH  25  26
ATOM     26  C   UNL     1      27.454  36.794  15.134  1.00  0.00     0.169 C 
BRANCH  26  27
ATOM     27  C   UNL     1      27.785  35.496  15.817  1.00  0.00     0.119 C 
BRANCH  27  28
ATOM     28  N   UNL     1      27.946  34.466  14.781  1.00  0.00    -0.092 NA
ATOM     29  N   UNL     1      28.711  33.538  15.039  1.00  0.00     0.001 N 
ATOM     30  N   UNL     1      29.677  32.775  14.823  1.00  0.00    -0.003 NA
ENDBRANCH  27  28
ENDBRANCH  26  27
ENDBRANCH  25  26
ENDBRANCH  19  25
BRANCH  20  31
ATOM     31  O   UNL     1      24.975  40.386  12.082  1.00  0.00    -0.387 OA
ATOM     32  H   UNL     1      24.638  41.316  12.198  1.00  0.00     0.211 HD
ENDBRANCH  20  31
BRANCH  21  33
ATOM     33  O   UNL     1      26.708  40.109  14.270  1.00  0.00    -0.385 OA
ATOM     34  H   UNL     1      26.884  40.749  13.535  1.00  0.00     0.211 HD
ENDBRANCH  21  33
ENDBRANCH  15  16
ENDBRANCH  10  15
BRANCH  12  35
ATOM     35  O   UNL     1      21.389  40.547  10.276  1.00  0.00    -0.385 OA
ATOM     36  H   UNL     1      20.606  40.464   9.675  1.00  0.00     0.211 HD
ENDBRANCH  12  35
BRANCH  13  37
ATOM     37  O   UNL     1      22.367  39.962   7.553  1.00  0.00    -0.387 OA
ATOM     38  H   UNL     1      21.670  40.641   7.371  1.00  0.00     0.211 HD
ENDBRANCH  13  37
BRANCH  14  39
ATOM     39  O   UNL     1      23.037  37.589   6.997  1.00  0.00    -0.387 OA
ATOM     40  H   UNL     1      23.537  36.719   6.972  1.00  0.00     0.211 HD
ENDBRANCH  14  39
ENDBRANCH   8   9
ENDBRANCH   7   8
ENDBRANCH   1   7
BRANCH   1  41
ATOM     41  C   UNL     1      26.779  34.500   9.971  1.00  0.00     0.364 C 
ATOM     42  O   UNL     1      27.340  33.741   9.192  1.00  0.00    -0.246 OA
BRANCH  41  43
ATOM     43  O   UNL     1      26.252  34.100  11.159  1.00  0.00    -0.477 OA
ATOM     44  H   UNL     1      26.820  33.791  11.960  1.00  0.00     0.296 HD
ENDBRANCH  41  43
ENDBRANCH   1  41
BRANCH   3  45
ATOM     45  O   UNL     1      26.286  38.885   9.996  1.00  0.00    -0.391 OA
ATOM     46  H   UNL     1      26.564  39.390   9.213  1.00  0.00     0.211 HD
ENDBRANCH   3  45
BRANCH   5  47
ATOM     47  C   UNL     1      27.672  37.926   7.222  1.00  0.00     0.176 C 
BRANCH  47  48
ATOM     48  O   UNL     1      28.016  39.264   7.137  1.00  0.00    -0.388 OA
ATOM     49  H   UNL     1      28.920  39.444   6.823  1.00  0.00     0.211 HD
ENDBRANCH  47  48
BRANCH  47  50
ATOM     50  C   UNL     1      28.071  37.182   5.987  1.00  0.00     0.165 C 
BRANCH  50  51
ATOM     51  O   UNL     1      29.071  36.252   6.327  1.00  0.00    -0.388 OA
ATOM     52  H   UNL     1      29.249  36.325   7.280  1.00  0.00     0.211 HD
ENDBRANCH  50  51
BRANCH  50  53
ATOM     53  C   UNL     1      28.587  38.025   4.871  1.00  0.00     0.154 C 
BRANCH  53  54
ATOM     54  N   UNL     1      27.563  38.870   4.296  1.00  0.00    -0.319 N 
ATOM     55  C   UNL     1      27.653  40.271   4.197  1.00  0.00     0.407 C 
ATOM     56  H   UNL     1      26.671  38.437   3.914  1.00  0.00     0.167 HD
ATOM     57  O   UNL     1      28.652  40.867   4.612  1.00  0.00    -0.225 OA
BRANCH  55  58
ATOM     58  O   UNL     1      26.635  41.038   3.638  1.00  0.00    -0.443 OA
BRANCH  58  59
ATOM     59  C   UNL     1      25.375  41.220   4.231  1.00  0.00     0.294 C 
BRANCH  59  60
ATOM     60  C   UNL     1      25.443  41.120   5.720  1.00  0.00     0.121 A 
ATOM     61  C   UNL     1      25.890  42.097   6.586  1.00  0.00     0.148 A 
ATOM     62  N   UNL     1      25.086  40.070   6.484  1.00  0.00    -0.131 NA
ATOM     63  N   UNL     1      25.793  41.616   7.837  1.00  0.00    -0.185 N 
ATOM     64  N   UNL     1      25.307  40.396   7.746  1.00  0.00    -0.059 NA
BRANCH  63  65
ATOM     65  C   UNL     1      26.163  42.345   9.000  1.00  0.00     0.257 A 
ATOM     66  N   UNL     1      26.861  41.728   9.973  1.00  0.00    -0.175 NA
ATOM     67  N   UNL     1      25.862  43.640   9.202  1.00  0.00    -0.196 NA
ATOM     68  C   UNL     1      27.244  42.375  11.103  1.00  0.00     0.225 A 
ATOM     69  C   UNL     1      26.222  44.310  10.302  1.00  0.00     0.133 A 
ATOM     70  N   UNL     1      26.909  43.676  11.246  1.00  0.00    -0.198 NA
ATOM     71  C   UNL     1      25.862  45.760  10.485  1.00  0.00     0.090 C 
BRANCH  68  72
ATOM     72  N   UNL     1      27.975  41.681  12.093  1.00  0.00    -0.368 N 
ATOM     73  H   UNL     1      28.693  40.973  11.842  1.00  0.00     0.159 HD
ATOM     74  H   UNL     1      27.807  41.866  13.101  1.00  0.00     0.159 HD
ENDBRANCH  68  72
ENDBRANCH  63  65
ENDBRANCH  59  60
ENDBRANCH  58  59
ENDBRANCH  55  58
ENDBRANCH  53  54
ENDBRANCH  50  53
ENDBRANCH  47  50
ENDBRANCH   5  47
BRANCH   4  75
ATOM     75  N   UNL     1      29.685  37.914  10.327  1.00  0.00    -0.348 N 
ATOM     76  C   UNL     1      30.945  38.400   9.878  1.00  0.00     0.217 C 
ATOM     77  H   UNL     1      29.688  37.331  11.202  1.00  0.00     0.163 HD
ATOM     78  C   UNL     1      32.168  38.082  10.627  1.00  0.00     0.114 C 
ATOM     79  O   UNL     1      31.003  39.098   8.843  1.00  0.00    -0.275 OA
ENDBRANCH   4  75
TORSDOF 31
BEGIN_RES LYS A 131
REMARK  4 active torsions:
REMARK  status: ('A' for Active; 'I' for Inactive)
REMARK    1  A    between atoms: CA   and  CB  
REMARK    2  A    between atoms: CB   and  CG  
REMARK    3  A    between atoms: CG   and  CD  
REMARK    4  A    between atoms: CD   and  CE  
ROOT
ATOM      1  CA  LYS A 131      29.867  25.555  16.977  1.00 20.52     0.186 C 
ENDROOT
BRANCH   1   2
ATOM      2  CB  LYS A 131      28.345  25.722  17.026  1.00 20.94     0.034 C 
BRANCH   2   3
ATOM      3  CG  LYS A 131      27.601  24.406  16.860  1.00 22.96     0.005 C 
BRANCH   3   4
ATOM      4  CD  LYS A 131      26.156  24.518  17.263  1.00 24.33     0.041 C 
BRANCH   4   5
ATOM      5  CE  LYS A 131      25.973  25.731  18.169  1.00 26.91     0.338 C 
ATOM      6  NZ  LYS A 131      24.818  26.544  17.720  1.00 27.40     0.618 N 
ENDBRANCH   4   5
ENDBRANCH   3   4
ENDBRANCH   2   3
ENDBRANCH   1   2
END_RES LYS A 131
BEGIN_RES LYS A 135
REMARK  4 active torsions:
REMARK  status: ('A' for Active; 'I' for Inactive)
REMARK    5  A    between atoms: CA   and  CB  
REMARK    6  A    between atoms: CB   and  CG  
REMARK    7  A    between atoms: CG   and  CD  
REMARK    8  A    between atoms: CD   and  CE  
ROOT
ATOM      7  CA  LYS A 135      33.193  34.663   9.290  1.00 25.02     0.186 C 
ENDROOT
BRANCH   7   8
ATOM      8  CB  LYS A 135      32.060  35.360  10.034  1.00 26.63     0.034 C 
BRANCH   8   9
ATOM      9  CG  LYS A 135      30.776  34.571  10.053  1.00 29.45     0.005 C 
BRANCH   9  10
ATOM     10  CD  LYS A 135      30.110  34.663  11.417  1.00 32.00     0.041 C 
BRANCH  10  11
ATOM     11  CE  LYS A 135      31.120  35.058  12.478  1.00 34.25     0.338 C 
ATOM     12  NZ  LYS A 135      30.614  36.186  13.307  1.00 35.99     0.618 N 
ENDBRANCH  10  11
ENDBRANCH   9  10
ENDBRANCH   8   9
ENDBRANCH   7   8
END_RES LYS A 135
