REMARK VINA RESULT:    -3.609      3.236      8.089
REMARK INTER + INTRA:         -22.034
REMARK INTER:                  -9.009
REMARK INTRA:                 -13.025
REMARK UNBOUND:               -13.046
REMARK SMILES CC(=O)N[C@@H]1[C@@H](O)C[C@](OC[C@H]2O[C@@H](O[C@H]3[C@H](O)[C@@H](O)[C@H](OCCN=[N+]=[N-])O[C@@H]3CO)[C@H](O)[C@@H](O)[C@H]2O)(C(=O)O)O[C@H]1C(O)[C@H](O)CNC(=O)OCc1cn(-c2nc(C)nc(N)n2)nn1
REMARK SMILES IDX 9 1 8 2 6 3 5 4 42 5 41 6 10 7 11 8 12 9 14 10 13 11 32 12
REMARK SMILES IDX 34 13 36 14 15 15 16 16 29 17 28 18 21 19 17 20 19 21 30 22
REMARK SMILES IDX 31 23 22 25 23 26 24 27 25 28 26 29 27 30 18 31 20 33 33 35
REMARK SMILES IDX 35 37 37 39 38 41 39 42 40 43 7 45 43 47 44 48 45 50 46 51
REMARK SMILES IDX 47 53 48 54 49 55 50 57 51 58 52 59 53 60 54 61 65 62 55 63
REMARK SMILES IDX 64 64 56 65 63 66 57 67 61 68 58 69 60 70 59 71 62 72 4 75
REMARK SMILES IDX 2 76 1 78 3 79
REMARK H PARENT 31 24 18 32 20 34 33 36 35 38 37 40 40 44 7 46 44 49 46 52
REMARK H PARENT 48 56 62 73 62 74 4 77
REMARK Flexibility Score: inf
ROOT
ATOM      1  C   UNL     1      28.956  31.893  20.709  1.00  0.00     0.272 C 
ATOM      2  C   UNL     1      30.314  31.999  20.105  1.00  0.00     0.113 C 
ATOM      3  C   UNL     1      30.732  30.712  19.462  1.00  0.00     0.145 C 
ATOM      4  C   UNL     1      30.659  29.615  20.491  1.00  0.00     0.142 C 
ATOM      5  C   UNL     1      29.388  29.651  21.307  1.00  0.00     0.178 C 
ATOM      6  O   UNL     1      29.005  30.876  21.701  1.00  0.00    -0.332 OA
ENDROOT
BRANCH   1   7
ATOM      7  O   UNL     1      27.922  31.845  19.946  1.00  0.00    -0.338 OA
BRANCH   7   8
ATOM      8  C   UNL     1      26.716  31.432  19.859  1.00  0.00     0.199 C 
BRANCH   8   9
ATOM      9  C   UNL     1      25.481  32.030  20.439  1.00  0.00     0.179 C 
ATOM     10  C   UNL     1      23.342  32.579  20.187  1.00  0.00     0.282 C 
ATOM     11  O   UNL     1      24.383  31.747  19.693  1.00  0.00    -0.341 OA
ATOM     12  C   UNL     1      22.871  31.866  21.429  1.00  0.00     0.202 C 
ATOM     13  C   UNL     1      23.973  31.888  22.459  1.00  0.00     0.179 C 
ATOM     14  C   UNL     1      25.349  31.979  21.926  1.00  0.00     0.177 C 
BRANCH  10  15
ATOM     15  O   UNL     1      22.333  32.715  19.272  1.00  0.00    -0.341 OA
BRANCH  15  16
ATOM     16  C   UNL     1      22.717  32.451  17.968  1.00  0.00     0.184 C 
ATOM     17  C   UNL     1      22.608  33.603  17.027  1.00  0.00     0.178 C 
ATOM     18  O   UNL     1      21.854  33.319  15.896  1.00  0.00    -0.341 OA
ATOM     19  C   UNL     1      22.240  32.165  15.226  1.00  0.00     0.281 C 
ATOM     20  C   UNL     1      21.767  31.334  17.494  1.00  0.00     0.180 C 
ATOM     21  C   UNL     1      22.211  30.948  16.103  1.00  0.00     0.202 C 
BRANCH  17  22
ATOM     22  C   UNL     1      23.918  34.249  16.664  1.00  0.00     0.191 C 
BRANCH  22  23
ATOM     23  O   UNL     1      24.936  33.388  17.130  1.00  0.00    -0.394 OA
ATOM     24  H   UNL     1      25.602  33.184  16.438  1.00  0.00     0.210 HD
ENDBRANCH  22  23
ENDBRANCH  17  22
BRANCH  19  25
ATOM     25  O   UNL     1      23.468  32.261  14.634  1.00  0.00    -0.350 OA
BRANCH  25  26
ATOM     26  C   UNL     1      23.576  31.863  13.335  1.00  0.00     0.169 C 
BRANCH  26  27
ATOM     27  C   UNL     1      24.429  30.639  13.147  1.00  0.00     0.119 C 
BRANCH  27  28
ATOM     28  N   UNL     1      23.577  29.458  13.344  1.00  0.00    -0.092 NA
ATOM     29  N   UNL     1      22.691  29.271  12.513  1.00  0.00     0.001 N 
ATOM     30  N   UNL     1      21.516  29.068  12.138  1.00  0.00    -0.003 NA
ENDBRANCH  27  28
ENDBRANCH  26  27
ENDBRANCH  25  26
ENDBRANCH  19  25
BRANCH  20  31
ATOM     31  O   UNL     1      21.805  30.280  18.382  1.00  0.00    -0.387 OA
ATOM     32  H   UNL     1      22.503  30.419  19.080  1.00  0.00     0.211 HD
ENDBRANCH  20  31
BRANCH  21  33
ATOM     33  O   UNL     1      21.310  29.990  15.637  1.00  0.00    -0.385 OA
ATOM     34  H   UNL     1      20.702  29.689  16.357  1.00  0.00     0.211 HD
ENDBRANCH  21  33
ENDBRANCH  15  16
ENDBRANCH  10  15
BRANCH  12  35
ATOM     35  O   UNL     1      21.694  32.403  21.947  1.00  0.00    -0.385 OA
ATOM     36  H   UNL     1      21.026  31.674  21.996  1.00  0.00     0.211 HD
ENDBRANCH  12  35
BRANCH  13  37
ATOM     37  O   UNL     1      23.765  30.789  23.297  1.00  0.00    -0.387 OA
ATOM     38  H   UNL     1      23.034  30.936  23.948  1.00  0.00     0.211 HD
ENDBRANCH  13  37
BRANCH  14  39
ATOM     39  O   UNL     1      26.168  31.052  22.561  1.00  0.00    -0.387 OA
ATOM     40  H   UNL     1      26.276  30.294  21.911  1.00  0.00     0.211 HD
ENDBRANCH  14  39
ENDBRANCH   8   9
ENDBRANCH   7   8
ENDBRANCH   1   7
BRANCH   1  41
ATOM     41  C   UNL     1      28.907  33.140  21.638  1.00  0.00     0.364 C 
ATOM     42  O   UNL     1      29.218  34.208  21.126  1.00  0.00    -0.246 OA
BRANCH  41  43
ATOM     43  O   UNL     1      28.536  33.012  22.940  1.00  0.00    -0.477 OA
ATOM     44  H   UNL     1      28.471  33.804  23.595  1.00  0.00     0.296 HD
ENDBRANCH  41  43
ENDBRANCH   1  41
BRANCH   3  45
ATOM     45  O   UNL     1      29.943  30.323  18.403  1.00  0.00    -0.391 OA
ATOM     46  H   UNL     1      30.424  29.790  17.746  1.00  0.00     0.211 HD
ENDBRANCH   3  45
BRANCH   5  47
ATOM     47  C   UNL     1      28.284  28.794  20.737  1.00  0.00     0.176 C 
BRANCH  47  48
ATOM     48  O   UNL     1      28.723  28.108  19.617  1.00  0.00    -0.388 OA
ATOM     49  H   UNL     1      29.543  28.447  19.214  1.00  0.00     0.211 HD
ENDBRANCH  47  48
BRANCH  47  50
ATOM     50  C   UNL     1      27.795  27.853  21.792  1.00  0.00     0.165 C 
BRANCH  50  51
ATOM     51  O   UNL     1      28.586  26.690  21.759  1.00  0.00    -0.388 OA
ATOM     52  H   UNL     1      28.145  26.035  21.191  1.00  0.00     0.211 HD
ENDBRANCH  50  51
BRANCH  50  53
ATOM     53  C   UNL     1      26.367  27.443  21.672  1.00  0.00     0.154 C 
BRANCH  53  54
ATOM     54  N   UNL     1      25.971  27.210  20.301  1.00  0.00    -0.319 N 
ATOM     55  C   UNL     1      24.661  27.377  19.812  1.00  0.00     0.407 C 
ATOM     56  H   UNL     1      26.691  26.891  19.587  1.00  0.00     0.167 HD
ATOM     57  O   UNL     1      23.754  27.747  20.564  1.00  0.00    -0.225 OA
BRANCH  55  58
ATOM     58  O   UNL     1      24.333  27.135  18.482  1.00  0.00    -0.443 OA
BRANCH  58  59
ATOM     59  C   UNL     1      24.238  28.137  17.503  1.00  0.00     0.294 C 
BRANCH  59  60
ATOM     60  C   UNL     1      25.575  28.709  17.162  1.00  0.00     0.121 A 
ATOM     61  C   UNL     1      25.820  29.961  16.638  1.00  0.00     0.148 A 
ATOM     62  N   UNL     1      26.776  28.115  17.301  1.00  0.00    -0.131 NA
ATOM     63  N   UNL     1      27.147  30.090  16.474  1.00  0.00    -0.185 N 
ATOM     64  N   UNL     1      27.697  28.964  16.882  1.00  0.00    -0.059 NA
BRANCH  63  65
ATOM     65  C   UNL     1      27.776  31.253  15.953  1.00  0.00     0.257 A 
ATOM     66  N   UNL     1      27.017  32.280  15.527  1.00  0.00    -0.175 NA
ATOM     67  N   UNL     1      29.109  31.407  15.856  1.00  0.00    -0.196 NA
ATOM     68  C   UNL     1      27.563  33.417  15.023  1.00  0.00     0.225 A 
ATOM     69  C   UNL     1      29.682  32.510  15.366  1.00  0.00     0.133 A 
ATOM     70  N   UNL     1      28.909  33.509  14.952  1.00  0.00    -0.198 NA
ATOM     71  C   UNL     1      31.179  32.638  15.276  1.00  0.00     0.090 C 
BRANCH  68  72
ATOM     72  N   UNL     1      26.720  34.465  14.590  1.00  0.00    -0.368 N 
ATOM     73  H   UNL     1      26.938  35.020  13.739  1.00  0.00     0.159 HD
ATOM     74  H   UNL     1      25.859  34.704  15.118  1.00  0.00     0.159 HD
ENDBRANCH  68  72
ENDBRANCH  63  65
ENDBRANCH  59  60
ENDBRANCH  58  59
ENDBRANCH  55  58
ENDBRANCH  53  54
ENDBRANCH  50  53
ENDBRANCH  47  50
ENDBRANCH   5  47
BRANCH   4  75
ATOM     75  N   UNL     1      31.812  29.719  21.360  1.00  0.00    -0.348 N 
ATOM     76  C   UNL     1      32.301  28.581  22.064  1.00  0.00     0.217 C 
ATOM     77  H   UNL     1      32.329  30.622  21.507  1.00  0.00     0.163 HD
ATOM     78  C   UNL     1      33.471  28.704  22.942  1.00  0.00     0.114 C 
ATOM     79  O   UNL     1      31.727  27.479  21.928  1.00  0.00    -0.275 OA
ENDBRANCH   4  75
TORSDOF 31
BEGIN_RES LYS A 131
REMARK  4 active torsions:
REMARK  status: ('A' for Active; 'I' for Inactive)
REMARK    1  A    between atoms: CA   and  CB  
REMARK    2  A    between atoms: CB   and  CG  
REMARK    3  A    between atoms: CG   and  CD  
REMARK    4  A    between atoms: CD   and  CE  
ROOT
ATOM      1  CA  LYS A 131      29.867  25.555  16.977  1.00 20.52     0.186 C 
ENDROOT
BRANCH   1   2
ATOM      2  CB  LYS A 131      28.345  25.722  17.026  1.00 20.94     0.034 C 
BRANCH   2   3
ATOM      3  CG  LYS A 131      27.601  24.401  16.906  1.00 22.96     0.005 C 
BRANCH   3   4
ATOM      4  CD  LYS A 131      26.150  24.532  17.275  1.00 24.33     0.041 C 
BRANCH   4   5
ATOM      5  CE  LYS A 131      25.722  23.320  18.095  1.00 26.91     0.338 C 
ATOM      6  NZ  LYS A 131      25.487  23.705  19.507  1.00 27.40     0.618 N 
ENDBRANCH   4   5
ENDBRANCH   3   4
ENDBRANCH   2   3
ENDBRANCH   1   2
END_RES LYS A 131
BEGIN_RES LYS A 135
REMARK  4 active torsions:
REMARK  status: ('A' for Active; 'I' for Inactive)
REMARK    5  A    between atoms: CA   and  CB  
REMARK    6  A    between atoms: CB   and  CG  
REMARK    7  A    between atoms: CG   and  CD  
REMARK    8  A    between atoms: CD   and  CE  
ROOT
ATOM      7  CA  LYS A 135      33.193  34.663   9.290  1.00 25.02     0.186 C 
ENDROOT
BRANCH   7   8
ATOM      8  CB  LYS A 135      32.060  35.360  10.034  1.00 26.63     0.034 C 
BRANCH   8   9
ATOM      9  CG  LYS A 135      30.709  34.736   9.796  1.00 29.45     0.005 C 
BRANCH   9  10
ATOM     10  CD  LYS A 135      30.467  34.532   8.308  1.00 32.00     0.041 C 
BRANCH  10  11
ATOM     11  CE  LYS A 135      29.021  34.829   7.958  1.00 34.25     0.338 C 
ATOM     12  NZ  LYS A 135      28.920  35.539   6.653  1.00 35.99     0.618 N 
ENDBRANCH  10  11
ENDBRANCH   9  10
ENDBRANCH   8   9
ENDBRANCH   7   8
END_RES LYS A 135
