REMARK VINA RESULT:    -5.289      7.215     12.813
REMARK INTER + INTRA:         -25.481
REMARK INTER:                 -14.678
REMARK INTRA:                 -10.803
REMARK UNBOUND:               -11.071
REMARK SMILES CC(=O)N[C@@H]1[C@@H](O)C[C@](OC[C@H]2O[C@@H](O[C@H]3[C@H](O)[C@@H](O)[C@H](OCCN=[N+]=[N-])O[C@@H]3CO)[C@H](O)[C@@H](O)[C@H]2O)(C(=O)O)O[C@H]1C(O)[C@H](O)CNC(=O)OCc1cn(CC(O)CCc2ccccc2)nn1
REMARK SMILES IDX 43 1 42 2 9 3 8 4 41 5 6 6 5 7 10 8 11 9 12 10 14 11 13 12
REMARK SMILES IDX 32 13 34 14 36 15 15 16 16 17 29 18 28 19 21 20 17 21 19 22
REMARK SMILES IDX 30 23 31 24 22 26 23 27 24 28 25 29 26 30 27 31 18 32 20 34
REMARK SMILES IDX 33 36 35 38 37 40 38 42 39 43 40 44 7 46 4 48 2 49 1 51 3 52
REMARK SMILES IDX 44 53 45 55 46 56 47 58 48 59 49 60 50 62 51 63 52 64 53 65
REMARK SMILES IDX 54 66 68 67 55 68 67 69 56 70 57 71 58 72 59 74 60 75 61 76
REMARK SMILES IDX 62 77 66 78 63 79 65 80 64 81
REMARK H PARENT 31 25 18 33 20 35 33 37 35 39 37 41 40 45 7 47 4 50 44 54
REMARK H PARENT 46 57 48 61 58 73
REMARK Flexibility Score: inf
ROOT
ATOM      1  C   UNL     1      30.250  31.339  16.773  1.00  0.00     0.176 C 
ENDROOT
BRANCH   1   2
ATOM      2  C   UNL     1      30.635  32.579  17.601  1.00  0.00     0.178 C 
ATOM      3  C   UNL     1      30.269  32.916  19.921  1.00  0.00     0.272 C 
ATOM      4  C   UNL     1      28.903  33.393  19.553  1.00  0.00     0.113 C 
ATOM      5  O   UNL     1      30.798  32.211  18.873  1.00  0.00    -0.332 OA
ATOM      6  C   UNL     1      28.943  34.272  18.355  1.00  0.00     0.145 C 
ATOM      7  C   UNL     1      29.736  33.693  17.221  1.00  0.00     0.142 C 
BRANCH   3   8
ATOM      8  O   UNL     1      30.227  32.146  21.100  1.00  0.00    -0.338 OA
BRANCH   8   9
ATOM      9  C   UNL     1      31.364  31.513  21.455  1.00  0.00     0.199 C 
BRANCH   9  10
ATOM     10  C   UNL     1      31.089  30.042  21.845  1.00  0.00     0.179 C 
ATOM     11  C   UNL     1      29.492  28.479  22.241  1.00  0.00     0.282 C 
ATOM     12  O   UNL     1      29.782  29.811  22.086  1.00  0.00    -0.341 OA
ATOM     13  C   UNL     1      29.854  27.834  20.874  1.00  0.00     0.202 C 
ATOM     14  C   UNL     1      31.382  27.763  20.949  1.00  0.00     0.179 C 
ATOM     15  C   UNL     1      31.822  29.198  20.867  1.00  0.00     0.177 C 
BRANCH  11  16
ATOM     16  O   UNL     1      28.173  28.279  22.446  1.00  0.00    -0.341 OA
BRANCH  16  17
ATOM     17  C   UNL     1      27.278  29.273  22.127  1.00  0.00     0.184 C 
ATOM     18  C   UNL     1      26.526  29.802  23.302  1.00  0.00     0.178 C 
ATOM     19  O   UNL     1      25.168  29.753  23.250  1.00  0.00    -0.341 OA
ATOM     20  C   UNL     1      24.563  29.861  22.034  1.00  0.00     0.281 C 
ATOM     21  C   UNL     1      26.452  28.770  20.978  1.00  0.00     0.180 C 
ATOM     22  C   UNL     1      24.987  28.673  21.206  1.00  0.00     0.202 C 
BRANCH  18  23
ATOM     23  C   UNL     1      26.922  31.244  23.539  1.00  0.00     0.191 C 
BRANCH  23  24
ATOM     24  O   UNL     1      27.571  31.782  22.430  1.00  0.00    -0.394 OA
ATOM     25  H   UNL     1      28.411  32.205  22.784  1.00  0.00     0.210 HD
ENDBRANCH  23  24
ENDBRANCH  18  23
BRANCH  20  26
ATOM     26  O   UNL     1      24.787  31.067  21.392  1.00  0.00    -0.350 OA
BRANCH  26  27
ATOM     27  C   UNL     1      23.629  31.846  21.442  1.00  0.00     0.169 C 
BRANCH  27  28
ATOM     28  C   UNL     1      23.684  32.792  20.244  1.00  0.00     0.119 C 
BRANCH  28  29
ATOM     29  N   UNL     1      24.056  34.122  20.644  1.00  0.00    -0.092 NA
ATOM     30  N   UNL     1      25.212  34.328  21.068  1.00  0.00     0.001 N 
ATOM     31  N   UNL     1      26.247  34.465  21.747  1.00  0.00    -0.003 NA
ENDBRANCH  28  29
ENDBRANCH  27  28
ENDBRANCH  26  27
ENDBRANCH  20  26
BRANCH  21  32
ATOM     32  O   UNL     1      26.611  29.597  19.834  1.00  0.00    -0.387 OA
ATOM     33  H   UNL     1      25.873  30.242  19.739  1.00  0.00     0.211 HD
ENDBRANCH  21  32
BRANCH  22  34
ATOM     34  O   UNL     1      24.667  27.518  21.926  1.00  0.00    -0.385 OA
ATOM     35  H   UNL     1      23.936  27.012  21.515  1.00  0.00     0.211 HD
ENDBRANCH  22  34
ENDBRANCH  16  17
ENDBRANCH  11  16
BRANCH  13  36
ATOM     36  O   UNL     1      29.259  26.635  20.664  1.00  0.00    -0.385 OA
ATOM     37  H   UNL     1      28.857  26.183  21.424  1.00  0.00     0.211 HD
ENDBRANCH  13  36
BRANCH  14  38
ATOM     38  O   UNL     1      31.898  26.990  19.912  1.00  0.00    -0.387 OA
ATOM     39  H   UNL     1      31.561  26.068  19.970  1.00  0.00     0.211 HD
ENDBRANCH  14  38
BRANCH  15  40
ATOM     40  O   UNL     1      31.541  29.621  19.564  1.00  0.00    -0.387 OA
ATOM     41  H   UNL     1      30.775  30.241  19.545  1.00  0.00     0.211 HD
ENDBRANCH  15  40
ENDBRANCH   9  10
ENDBRANCH   8   9
ENDBRANCH   3   8
BRANCH   3  42
ATOM     42  C   UNL     1      31.100  34.083  20.306  1.00  0.00     0.364 C 
ATOM     43  O   UNL     1      32.215  34.251  19.735  1.00  0.00    -0.246 OA
BRANCH  42  44
ATOM     44  O   UNL     1      30.726  34.997  21.251  1.00  0.00    -0.477 OA
ATOM     45  H   UNL     1      30.911  34.813  22.226  1.00  0.00     0.296 HD
ENDBRANCH  42  44
ENDBRANCH   3  42
BRANCH   6  46
ATOM     46  O   UNL     1      27.585  34.480  17.987  1.00  0.00    -0.391 OA
ATOM     47  H   UNL     1      27.026  33.706  18.199  1.00  0.00     0.211 HD
ENDBRANCH   6  46
BRANCH   7  48
ATOM     48  N   UNL     1      30.403  34.694  16.428  1.00  0.00    -0.348 N 
ATOM     49  C   UNL     1      29.800  35.361  15.327  1.00  0.00     0.217 C 
ATOM     50  H   UNL     1      31.407  34.970  16.644  1.00  0.00     0.163 HD
ATOM     51  C   UNL     1      30.589  36.375  14.594  1.00  0.00     0.114 C 
ATOM     52  O   UNL     1      28.640  35.104  14.989  1.00  0.00    -0.275 OA
ENDBRANCH   7  48
ENDBRANCH   1   2
BRANCH   1  53
ATOM     53  O   UNL     1      30.538  31.555  15.439  1.00  0.00    -0.388 OA
ATOM     54  H   UNL     1      30.761  32.496  15.238  1.00  0.00     0.211 HD
ENDBRANCH   1  53
BRANCH   1  55
ATOM     55  C   UNL     1      28.913  30.775  17.073  1.00  0.00     0.165 C 
BRANCH  55  56
ATOM     56  O   UNL     1      28.981  29.952  18.169  1.00  0.00    -0.388 OA
ATOM     57  H   UNL     1      28.131  29.859  18.643  1.00  0.00     0.211 HD
ENDBRANCH  55  56
BRANCH  55  58
ATOM     58  C   UNL     1      28.456  30.021  15.845  1.00  0.00     0.154 C 
BRANCH  58  59
ATOM     59  N   UNL     1      27.079  30.083  15.532  1.00  0.00    -0.319 N 
ATOM     60  C   UNL     1      26.000  29.480  16.233  1.00  0.00     0.407 C 
ATOM     61  H   UNL     1      26.753  30.643  14.669  1.00  0.00     0.167 HD
ATOM     62  O   UNL     1      26.211  28.821  17.258  1.00  0.00    -0.225 OA
BRANCH  60  63
ATOM     63  O   UNL     1      24.695  29.615  15.787  1.00  0.00    -0.443 OA
BRANCH  63  64
ATOM     64  C   UNL     1      24.260  30.108  14.574  1.00  0.00     0.294 C 
BRANCH  64  65
ATOM     65  C   UNL     1      24.419  31.551  14.336  1.00  0.00     0.120 A 
ATOM     66  C   UNL     1      24.257  32.227  13.133  1.00  0.00     0.138 A 
ATOM     67  N   UNL     1      24.788  32.474  15.248  1.00  0.00    -0.132 NA
ATOM     68  N   UNL     1      24.535  33.505  13.376  1.00  0.00    -0.250 N 
ATOM     69  N   UNL     1      24.848  33.640  14.640  1.00  0.00    -0.067 NA
BRANCH  68  70
ATOM     70  C   UNL     1      24.498  34.558  12.328  1.00  0.00     0.177 C 
BRANCH  70  71
ATOM     71  C   UNL     1      25.826  34.520  11.650  1.00  0.00     0.136 C 
BRANCH  71  72
ATOM     72  O   UNL     1      26.857  34.952  12.501  1.00  0.00    -0.391 OA
ATOM     73  H   UNL     1      26.964  34.367  13.280  1.00  0.00     0.211 HD
ENDBRANCH  71  72
BRANCH  71  74
ATOM     74  C   UNL     1      25.892  35.219  10.350  1.00  0.00     0.038 C 
BRANCH  74  75
ATOM     75  C   UNL     1      26.383  34.571   9.139  1.00  0.00     0.038 C 
BRANCH  75  76
ATOM     76  C   UNL     1      27.792  34.611   8.809  1.00  0.00    -0.048 A 
ATOM     77  C   UNL     1      28.230  35.174   7.613  1.00  0.00     0.004 A 
ATOM     78  C   UNL     1      28.753  34.021   9.631  1.00  0.00     0.004 A 
ATOM     79  C   UNL     1      29.550  35.143   7.270  1.00  0.00     0.000 A 
ATOM     80  C   UNL     1      30.074  34.007   9.256  1.00  0.00     0.000 A 
ATOM     81  C   UNL     1      30.512  34.567   8.063  1.00  0.00     0.000 A 
ENDBRANCH  75  76
ENDBRANCH  74  75
ENDBRANCH  71  74
ENDBRANCH  70  71
ENDBRANCH  68  70
ENDBRANCH  64  65
ENDBRANCH  63  64
ENDBRANCH  60  63
ENDBRANCH  58  59
ENDBRANCH  55  58
ENDBRANCH   1  55
TORSDOF 35
BEGIN_RES LYS A 131
REMARK  4 active torsions:
REMARK  status: ('A' for Active; 'I' for Inactive)
REMARK    1  A    between atoms: CA   and  CB  
REMARK    2  A    between atoms: CB   and  CG  
REMARK    3  A    between atoms: CG   and  CD  
REMARK    4  A    between atoms: CD   and  CE  
ROOT
ATOM      1  CA  LYS A 131      29.867  25.555  16.977  1.00 20.52     0.186 C 
ENDROOT
BRANCH   1   2
ATOM      2  CB  LYS A 131      28.345  25.722  17.026  1.00 20.94     0.034 C 
BRANCH   2   3
ATOM      3  CG  LYS A 131      27.601  24.401  16.905  1.00 22.96     0.005 C 
BRANCH   3   4
ATOM      4  CD  LYS A 131      26.212  24.479  17.473  1.00 24.33     0.041 C 
BRANCH   4   5
ATOM      5  CE  LYS A 131      26.178  25.510  18.597  1.00 26.91     0.338 C 
ATOM      6  NZ  LYS A 131      24.820  26.087  18.731  1.00 27.40     0.618 N 
ENDBRANCH   4   5
ENDBRANCH   3   4
ENDBRANCH   2   3
ENDBRANCH   1   2
END_RES LYS A 131
BEGIN_RES LYS A 135
REMARK  4 active torsions:
REMARK  status: ('A' for Active; 'I' for Inactive)
REMARK    5  A    between atoms: CA   and  CB  
REMARK    6  A    between atoms: CB   and  CG  
REMARK    7  A    between atoms: CG   and  CD  
REMARK    8  A    between atoms: CD   and  CE  
ROOT
ATOM      7  CA  LYS A 135      33.193  34.663   9.290  1.00 25.02     0.186 C 
ENDROOT
BRANCH   7   8
ATOM      8  CB  LYS A 135      32.060  35.360  10.034  1.00 26.63     0.034 C 
BRANCH   8   9
ATOM      9  CG  LYS A 135      32.518  36.126  11.248  1.00 29.45     0.005 C 
BRANCH   9  10
ATOM     10  CD  LYS A 135      31.816  37.473  11.329  1.00 32.00     0.041 C 
BRANCH  10  11
ATOM     11  CE  LYS A 135      31.347  37.913   9.955  1.00 34.25     0.338 C 
ATOM     12  NZ  LYS A 135      32.206  39.006   9.421  1.00 35.99     0.618 N 
ENDBRANCH  10  11
ENDBRANCH   9  10
ENDBRANCH   8   9
ENDBRANCH   7   8
END_RES LYS A 135
