REMARK VINA RESULT:    -3.964      2.618      8.128
REMARK INTER + INTRA:         -21.829
REMARK INTER:                 -11.860
REMARK INTRA:                  -9.969
REMARK UNBOUND:               -12.070
REMARK SMILES CC(=O)N[C@@H]1[C@@H](O)C[C@](OC[C@H]2O[C@@H](O[C@H]3[C@H](O)[C@@H](O)[C@H](OCCN=[N+]=[N-])O[C@@H]3CO)[C@H](O)[C@@H](O)[C@H]2O)(C(=O)O)O[C@H]1C(O)[C@H](O)CNC(=O)OCc1cn(-c2ccccc2I)nn1
REMARK SMILES IDX 9 1 8 2 6 3 5 4 42 5 41 6 10 7 11 8 12 9 14 10 13 11 32 12
REMARK SMILES IDX 34 13 36 14 15 15 16 16 29 17 28 18 21 19 17 20 19 21 30 22
REMARK SMILES IDX 31 23 22 25 23 26 24 27 25 28 26 29 27 30 18 31 20 33 33 35
REMARK SMILES IDX 35 37 37 39 38 41 39 42 40 43 7 45 43 47 44 48 45 50 46 51
REMARK SMILES IDX 47 53 48 54 49 55 50 57 51 58 52 59 53 60 54 61 64 62 55 63
REMARK SMILES IDX 63 64 56 65 57 66 61 67 58 68 60 69 62 70 59 71 4 72 2 73
REMARK SMILES IDX 1 75 3 76
REMARK H PARENT 31 24 18 32 20 34 33 36 35 38 37 40 40 44 7 46 44 49 46 52
REMARK H PARENT 48 56 4 74
REMARK Flexibility Score: inf
ROOT
ATOM      1  C   UNL     1      28.569  34.894   8.738  1.00  0.00     0.272 C 
ATOM      2  C   UNL     1      28.073  33.746   9.571  1.00  0.00     0.113 C 
ATOM      3  C   UNL     1      27.132  34.232  10.687  1.00  0.00     0.145 C 
ATOM      4  C   UNL     1      28.029  35.115  11.602  1.00  0.00     0.142 C 
ATOM      5  C   UNL     1      28.740  36.122  10.742  1.00  0.00     0.178 C 
ATOM      6  O   UNL     1      28.175  36.070   9.462  1.00  0.00    -0.332 OA
ENDROOT
BRANCH   1   7
ATOM      7  O   UNL     1      28.005  35.087   7.516  1.00  0.00    -0.338 OA
BRANCH   7   8
ATOM      8  C   UNL     1      27.435  36.155   7.042  1.00  0.00     0.199 C 
BRANCH   8   9
ATOM      9  C   UNL     1      28.009  36.908   5.909  1.00  0.00     0.179 C 
ATOM     10  C   UNL     1      27.115  39.006   5.782  1.00  0.00     0.282 C 
ATOM     11  O   UNL     1      27.207  37.759   5.226  1.00  0.00    -0.341 OA
ATOM     12  C   UNL     1      28.374  39.816   5.501  1.00  0.00     0.202 C 
ATOM     13  C   UNL     1      29.561  38.828   5.417  1.00  0.00     0.179 C 
ATOM     14  C   UNL     1      29.274  37.689   6.377  1.00  0.00     0.177 C 
BRANCH  10  15
ATOM     15  O   UNL     1      26.600  39.121   7.033  1.00  0.00    -0.341 OA
BRANCH  15  16
ATOM     16  C   UNL     1      25.452  39.871   7.149  1.00  0.00     0.184 C 
ATOM     17  C   UNL     1      25.544  41.075   8.049  1.00  0.00     0.178 C 
ATOM     18  O   UNL     1      24.280  41.428   8.516  1.00  0.00    -0.341 OA
ATOM     19  C   UNL     1      23.241  41.086   7.643  1.00  0.00     0.281 C 
ATOM     20  C   UNL     1      24.424  38.971   7.870  1.00  0.00     0.180 C 
ATOM     21  C   UNL     1      23.075  39.592   7.533  1.00  0.00     0.202 C 
BRANCH  17  22
ATOM     22  C   UNL     1      26.292  42.236   7.479  1.00  0.00     0.191 C 
BRANCH  22  23
ATOM     23  O   UNL     1      26.069  42.227   6.097  1.00  0.00    -0.394 OA
ATOM     24  H   UNL     1      26.492  43.044   5.716  1.00  0.00     0.210 HD
ENDBRANCH  22  23
ENDBRANCH  17  22
BRANCH  19  25
ATOM     25  O   UNL     1      23.319  41.730   6.446  1.00  0.00    -0.350 OA
BRANCH  25  26
ATOM     26  C   UNL     1      22.396  42.720   6.314  1.00  0.00     0.169 C 
BRANCH  26  27
ATOM     27  C   UNL     1      21.229  42.697   7.250  1.00  0.00     0.119 C 
BRANCH  27  28
ATOM     28  N   UNL     1      20.260  41.660   7.037  1.00  0.00    -0.092 NA
ATOM     29  N   UNL     1      19.165  42.011   6.560  1.00  0.00     0.001 N 
ATOM     30  N   UNL     1      18.003  42.142   6.172  1.00  0.00    -0.003 NA
ENDBRANCH  27  28
ENDBRANCH  26  27
ENDBRANCH  25  26
ENDBRANCH  19  25
BRANCH  20  31
ATOM     31  O   UNL     1      24.510  37.669   7.418  1.00  0.00    -0.387 OA
ATOM     32  H   UNL     1      23.578  37.341   7.305  1.00  0.00     0.211 HD
ENDBRANCH  20  31
BRANCH  21  33
ATOM     33  O   UNL     1      22.071  39.087   8.357  1.00  0.00    -0.385 OA
ATOM     34  H   UNL     1      22.133  38.077   8.337  1.00  0.00     0.211 HD
ENDBRANCH  21  33
ENDBRANCH  15  16
ENDBRANCH  10  15
BRANCH  12  35
ATOM     35  O   UNL     1      28.341  40.456   4.270  1.00  0.00    -0.385 OA
ATOM     36  H   UNL     1      28.078  41.398   4.445  1.00  0.00     0.211 HD
ENDBRANCH  12  35
BRANCH  13  37
ATOM     37  O   UNL     1      30.770  39.403   5.648  1.00  0.00    -0.387 OA
ATOM     38  H   UNL     1      30.745  40.330   6.037  1.00  0.00     0.211 HD
ENDBRANCH  13  37
BRANCH  14  39
ATOM     39  O   UNL     1      28.955  38.215   7.617  1.00  0.00    -0.387 OA
ATOM     40  H   UNL     1      28.942  37.476   8.303  1.00  0.00     0.211 HD
ENDBRANCH  14  39
ENDBRANCH   8   9
ENDBRANCH   7   8
ENDBRANCH   1   7
BRANCH   1  41
ATOM     41  C   UNL     1      30.041  34.879   8.681  1.00  0.00     0.364 C 
ATOM     42  O   UNL     1      30.752  35.830   8.312  1.00  0.00    -0.246 OA
BRANCH  41  43
ATOM     43  O   UNL     1      30.761  33.724   9.059  1.00  0.00    -0.477 OA
ATOM     44  H   UNL     1      30.455  32.807   8.702  1.00  0.00     0.296 HD
ENDBRANCH  41  43
ENDBRANCH   1  41
BRANCH   3  45
ATOM     45  O   UNL     1      26.069  34.959  10.197  1.00  0.00    -0.391 OA
ATOM     46  H   UNL     1      26.352  35.506   9.427  1.00  0.00     0.211 HD
ENDBRANCH   3  45
BRANCH   5  47
ATOM     47  C   UNL     1      28.371  37.553  11.218  1.00  0.00     0.176 C 
BRANCH  47  48
ATOM     48  O   UNL     1      27.745  37.366  12.510  1.00  0.00    -0.388 OA
ATOM     49  H   UNL     1      28.199  36.555  12.895  1.00  0.00     0.211 HD
ENDBRANCH  47  48
BRANCH  47  50
ATOM     50  C   UNL     1      27.250  38.137  10.411  1.00  0.00     0.165 C 
BRANCH  50  51
ATOM     51  O   UNL     1      27.714  39.312   9.762  1.00  0.00    -0.388 OA
ATOM     52  H   UNL     1      28.627  39.545  10.065  1.00  0.00     0.211 HD
ENDBRANCH  50  51
BRANCH  50  53
ATOM     53  C   UNL     1      25.982  38.450  11.081  1.00  0.00     0.154 C 
BRANCH  53  54
ATOM     54  N   UNL     1      25.125  37.315  11.372  1.00  0.00    -0.319 N 
ATOM     55  C   UNL     1      23.709  37.492  11.336  1.00  0.00     0.407 C 
ATOM     56  H   UNL     1      25.476  36.366  11.608  1.00  0.00     0.167 HD
ATOM     57  O   UNL     1      23.236  38.643  11.060  1.00  0.00    -0.225 OA
BRANCH  55  58
ATOM     58  O   UNL     1      22.782  36.499  11.580  1.00  0.00    -0.443 OA
BRANCH  58  59
ATOM     59  C   UNL     1      22.593  35.430  10.664  1.00  0.00     0.294 C 
BRANCH  59  60
ATOM     60  C   UNL     1      21.626  35.896   9.606  1.00  0.00     0.121 A 
ATOM     61  C   UNL     1      20.328  36.322   9.768  1.00  0.00     0.144 A 
ATOM     62  N   UNL     1      21.883  35.966   8.288  1.00  0.00    -0.131 NA
ATOM     63  N   UNL     1      19.883  36.623   8.533  1.00  0.00    -0.219 N 
ATOM     64  N   UNL     1      20.830  36.406   7.641  1.00  0.00    -0.062 NA
BRANCH  63  65
ATOM     65  C   UNL     1      18.586  37.099   8.191  1.00  0.00     0.080 A 
ATOM     66  C   UNL     1      18.361  38.452   7.971  1.00  0.00     0.029 A 
ATOM     67  C   UNL     1      17.521  36.236   8.078  1.00  0.00     0.039 A 
ATOM     68  C   UNL     1      17.067  38.876   7.644  1.00  0.00     0.002 A 
ATOM     69  C   UNL     1      16.233  36.679   7.749  1.00  0.00     0.017 A 
ATOM     70  I   UNL     1      17.832  34.172   8.410  1.00  0.00    -0.042 I 
ATOM     71  C   UNL     1      16.004  38.013   7.529  1.00  0.00     0.001 A 
ENDBRANCH  63  65
ENDBRANCH  59  60
ENDBRANCH  58  59
ENDBRANCH  55  58
ENDBRANCH  53  54
ENDBRANCH  50  53
ENDBRANCH  47  50
ENDBRANCH   5  47
BRANCH   4  72
ATOM     72  N   UNL     1      28.849  34.209  12.320  1.00  0.00    -0.348 N 
ATOM     73  C   UNL     1      29.392  34.509  13.620  1.00  0.00     0.217 C 
ATOM     74  H   UNL     1      29.109  33.274  11.958  1.00  0.00     0.163 HD
ATOM     75  C   UNL     1      30.247  33.573  14.375  1.00  0.00     0.114 C 
ATOM     76  O   UNL     1      29.097  35.637  14.096  1.00  0.00    -0.275 OA
ENDBRANCH   4  72
TORSDOF 30
BEGIN_RES LYS A 131
REMARK  4 active torsions:
REMARK  status: ('A' for Active; 'I' for Inactive)
REMARK    1  A    between atoms: CA   and  CB  
REMARK    2  A    between atoms: CB   and  CG  
REMARK    3  A    between atoms: CG   and  CD  
REMARK    4  A    between atoms: CD   and  CE  
ROOT
ATOM      1  CA  LYS A 131      29.867  25.555  16.977  1.00 20.52     0.186 C 
ENDROOT
BRANCH   1   2
ATOM      2  CB  LYS A 131      28.345  25.722  17.026  1.00 20.94     0.034 C 
BRANCH   2   3
ATOM      3  CG  LYS A 131      27.601  24.401  16.900  1.00 22.96     0.005 C 
BRANCH   3   4
ATOM      4  CD  LYS A 131      26.525  24.255  17.940  1.00 24.33     0.041 C 
BRANCH   4   5
ATOM      5  CE  LYS A 131      25.186  24.007  17.255  1.00 26.91     0.338 C 
ATOM      6  NZ  LYS A 131      24.151  24.923  17.791  1.00 27.40     0.618 N 
ENDBRANCH   4   5
ENDBRANCH   3   4
ENDBRANCH   2   3
ENDBRANCH   1   2
END_RES LYS A 131
BEGIN_RES LYS A 135
REMARK  4 active torsions:
REMARK  status: ('A' for Active; 'I' for Inactive)
REMARK    5  A    between atoms: CA   and  CB  
REMARK    6  A    between atoms: CB   and  CG  
REMARK    7  A    between atoms: CG   and  CD  
REMARK    8  A    between atoms: CD   and  CE  
ROOT
ATOM      7  CA  LYS A 135      33.193  34.663   9.290  1.00 25.02     0.186 C 
ENDROOT
BRANCH   7   8
ATOM      8  CB  LYS A 135      32.060  35.360  10.034  1.00 26.63     0.034 C 
BRANCH   8   9
ATOM      9  CG  LYS A 135      32.352  35.593  11.494  1.00 29.45     0.005 C 
BRANCH   9  10
ATOM     10  CD  LYS A 135      32.055  37.035  11.877  1.00 32.00     0.041 C 
BRANCH  10  11
ATOM     11  CE  LYS A 135      32.004  37.914  10.642  1.00 34.25     0.338 C 
ATOM     12  NZ  LYS A 135      31.569  39.297  10.985  1.00 35.99     0.618 N 
ENDBRANCH  10  11
ENDBRANCH   9  10
ENDBRANCH   8   9
ENDBRANCH   7   8
END_RES LYS A 135
