REMARK VINA RESULT:    -4.519      5.003     12.294
REMARK INTER + INTRA:         -24.708
REMARK INTER:                 -13.460
REMARK INTRA:                 -11.248
REMARK UNBOUND:               -12.132
REMARK SMILES CCOCCc1c(-c2ccccc2)nc(N)nc1-n1cc(COC(=O)NC[C@@H](O)C(O)[C@@H]2O[C@@](OC[C@H]3O[C@@H](O[C@H]4[C@H](O)[C@@H](O)[C@H](OCCN=[N+]=[N-])O[C@@H]4CO)[C@H](O)[C@@H](O)[C@H]3O)(C(=O)O)C[C@H](O)[C@H]2NC(C)=O)nn1
REMARK SMILES IDX 30 1 32 2 34 3 66 4 33 5 67 6 69 7 35 8 36 9 37 10 39 11
REMARK SMILES IDX 38 12 57 13 59 14 61 15 40 16 41 17 54 18 53 19 46 20 42 21
REMARK SMILES IDX 44 22 55 23 56 24 47 26 48 27 49 28 50 29 51 30 52 31 43 32
REMARK SMILES IDX 45 34 58 36 60 38 62 40 63 42 64 43 65 44 68 46 70 48 71 49
REMARK SMILES IDX 72 51 73 52 31 53 28 55 29 56 27 58 26 59 24 60 25 62 23 63
REMARK SMILES IDX 22 64 21 65 20 66 74 67 19 68 75 69 18 70 17 71 6 72 15 73
REMARK SMILES IDX 7 74 14 75 5 76 4 77 3 78 2 79 1 80 16 81 8 84 9 85 13 86
REMARK SMILES IDX 10 87 12 88 11 89
REMARK H PARENT 56 25 43 33 45 35 58 37 60 39 62 41 65 45 68 47 70 50 31 54
REMARK H PARENT 29 57 26 61 16 82 16 83
REMARK Flexibility Score: inf
ROOT
ATOM      1  C   UNL     1      29.982  38.246   9.101  1.00  0.00     0.176 C 
ENDROOT
BRANCH   1   2
ATOM      2  C   UNL     1      29.558  38.313   7.664  1.00  0.00     0.178 C 
ATOM      3  C   UNL     1      28.473  39.875   6.299  1.00  0.00     0.272 C 
ATOM      4  C   UNL     1      28.730  38.789   5.251  1.00  0.00     0.113 C 
ATOM      5  O   UNL     1      29.137  39.660   7.453  1.00  0.00    -0.332 OA
ATOM      6  C   UNL     1      28.364  37.422   5.742  1.00  0.00     0.145 C 
ATOM      7  C   UNL     1      28.413  37.449   7.259  1.00  0.00     0.142 C 
BRANCH   3   8
ATOM      8  O   UNL     1      27.107  40.000   6.422  1.00  0.00    -0.338 OA
BRANCH   8   9
ATOM      9  C   UNL     1      26.450  40.504   5.331  1.00  0.00     0.199 C 
BRANCH   9  10
ATOM     10  C   UNL     1      25.119  41.141   5.702  1.00  0.00     0.179 C 
ATOM     11  C   UNL     1      23.992  41.474   7.717  1.00  0.00     0.282 C 
ATOM     12  O   UNL     1      24.741  40.657   6.920  1.00  0.00    -0.341 OA
ATOM     13  C   UNL     1      24.825  42.743   7.937  1.00  0.00     0.202 C 
ATOM     14  C   UNL     1      24.733  43.480   6.602  1.00  0.00     0.179 C 
ATOM     15  C   UNL     1      25.018  42.590   5.444  1.00  0.00     0.177 C 
BRANCH  11  16
ATOM     16  O   UNL     1      23.685  40.836   8.897  1.00  0.00    -0.341 OA
BRANCH  16  17
ATOM     17  C   UNL     1      24.270  39.583   8.988  1.00  0.00     0.184 C 
ATOM     18  C   UNL     1      23.267  38.539   9.343  1.00  0.00     0.178 C 
ATOM     19  O   UNL     1      23.369  37.986  10.580  1.00  0.00    -0.341 OA
ATOM     20  C   UNL     1      24.597  37.637  11.047  1.00  0.00     0.281 C 
ATOM     21  C   UNL     1      25.472  39.599   9.882  1.00  0.00     0.180 C 
ATOM     22  C   UNL     1      25.781  38.195  10.330  1.00  0.00     0.202 C 
BRANCH  18  23
ATOM     23  C   UNL     1      23.134  37.485   8.243  1.00  0.00     0.191 C 
BRANCH  23  24
ATOM     24  O   UNL     1      23.927  37.791   7.151  1.00  0.00    -0.394 OA
ATOM     25  H   UNL     1      24.065  36.953   6.642  1.00  0.00     0.210 HD
ENDBRANCH  23  24
ENDBRANCH  18  23
BRANCH  20  26
ATOM     26  O   UNL     1      24.674  36.249  11.040  1.00  0.00    -0.350 OA
BRANCH  26  27
ATOM     27  C   UNL     1      23.540  35.617  11.488  1.00  0.00     0.169 C 
BRANCH  27  28
ATOM     28  C   UNL     1      23.804  34.348  12.260  1.00  0.00     0.119 C 
BRANCH  28  29
ATOM     29  N   UNL     1      24.396  34.697  13.550  1.00  0.00    -0.092 NA
ATOM     30  N   UNL     1      25.135  33.910  14.155  1.00  0.00     0.001 N 
ATOM     31  N   UNL     1      25.739  32.981  14.690  1.00  0.00    -0.003 NA
ENDBRANCH  28  29
ENDBRANCH  27  28
ENDBRANCH  26  27
ENDBRANCH  20  26
BRANCH  21  32
ATOM     32  O   UNL     1      26.606  40.107   9.243  1.00  0.00    -0.387 OA
ATOM     33  H   UNL     1      27.426  39.985   9.794  1.00  0.00     0.211 HD
ENDBRANCH  21  32
BRANCH  22  34
ATOM     34  O   UNL     1      26.847  38.263  11.225  1.00  0.00    -0.385 OA
ATOM     35  H   UNL     1      27.667  37.838  10.867  1.00  0.00     0.211 HD
ENDBRANCH  22  34
ENDBRANCH  16  17
ENDBRANCH  11  16
BRANCH  13  36
ATOM     36  O   UNL     1      24.331  43.535   8.944  1.00  0.00    -0.385 OA
ATOM     37  H   UNL     1      23.343  43.444   9.036  1.00  0.00     0.211 HD
ENDBRANCH  13  36
BRANCH  14  38
ATOM     38  O   UNL     1      25.407  44.680   6.598  1.00  0.00    -0.387 OA
ATOM     39  H   UNL     1      24.783  45.460   6.712  1.00  0.00     0.211 HD
ENDBRANCH  14  38
BRANCH  15  40
ATOM     40  O   UNL     1      26.225  43.031   4.859  1.00  0.00    -0.387 OA
ATOM     41  H   UNL     1      26.023  43.745   4.201  1.00  0.00     0.211 HD
ENDBRANCH  15  40
ENDBRANCH   9  10
ENDBRANCH   8   9
ENDBRANCH   3   8
BRANCH   3  42
ATOM     42  C   UNL     1      29.023  41.110   5.655  1.00  0.00     0.364 C 
ATOM     43  O   UNL     1      28.870  42.183   6.338  1.00  0.00    -0.246 OA
BRANCH  42  44
ATOM     44  O   UNL     1      29.649  41.163   4.443  1.00  0.00    -0.477 OA
ATOM     45  H   UNL     1      29.918  40.299   3.980  1.00  0.00     0.296 HD
ENDBRANCH  42  44
ENDBRANCH   3  42
BRANCH   6  46
ATOM     46  O   UNL     1      27.070  37.151   5.271  1.00  0.00    -0.391 OA
ATOM     47  H   UNL     1      26.424  37.817   5.579  1.00  0.00     0.211 HD
ENDBRANCH   6  46
BRANCH   7  48
ATOM     48  N   UNL     1      28.367  36.131   7.811  1.00  0.00    -0.348 N 
ATOM     49  C   UNL     1      27.164  35.430   8.084  1.00  0.00     0.217 C 
ATOM     50  H   UNL     1      29.283  35.669   8.000  1.00  0.00     0.163 HD
ATOM     51  C   UNL     1      27.235  34.069   8.653  1.00  0.00     0.114 C 
ATOM     52  O   UNL     1      26.061  35.965   7.841  1.00  0.00    -0.275 OA
ENDBRANCH   7  48
ENDBRANCH   1   2
BRANCH   1  53
ATOM     53  O   UNL     1      29.184  39.234   9.773  1.00  0.00    -0.388 OA
ATOM     54  H   UNL     1      28.878  39.845   9.070  1.00  0.00     0.211 HD
ENDBRANCH   1  53
BRANCH   1  55
ATOM     55  C   UNL     1      31.388  38.536   9.442  1.00  0.00     0.165 C 
BRANCH  55  56
ATOM     56  O   UNL     1      31.602  37.900  10.699  1.00  0.00    -0.388 OA
ATOM     57  H   UNL     1      31.213  37.003  10.654  1.00  0.00     0.211 HD
ENDBRANCH  55  56
BRANCH  55  58
ATOM     58  C   UNL     1      31.796  39.944   9.560  1.00  0.00     0.154 C 
BRANCH  58  59
ATOM     59  N   UNL     1      31.837  40.478  10.866  1.00  0.00    -0.319 N 
ATOM     60  C   UNL     1      31.011  41.499  11.371  1.00  0.00     0.407 C 
ATOM     61  H   UNL     1      32.552  40.113  11.600  1.00  0.00     0.167 HD
ATOM     62  O   UNL     1      30.128  42.051  10.679  1.00  0.00    -0.225 OA
BRANCH  60  63
ATOM     63  O   UNL     1      31.117  41.964  12.686  1.00  0.00    -0.443 OA
BRANCH  63  64
ATOM     64  C   UNL     1      30.409  41.369  13.752  1.00  0.00     0.294 C 
BRANCH  64  65
ATOM     65  C   UNL     1      30.252  39.908  13.555  1.00  0.00     0.121 A 
ATOM     66  C   UNL     1      31.006  38.911  14.116  1.00  0.00     0.146 A 
ATOM     67  N   UNL     1      29.354  39.271  12.769  1.00  0.00    -0.131 NA
ATOM     68  N   UNL     1      30.555  37.683  13.659  1.00  0.00    -0.202 N 
ATOM     69  N   UNL     1      29.571  37.972  12.862  1.00  0.00    -0.060 NA
BRANCH  68  70
ATOM     70  C   UNL     1      31.205  36.515  14.093  1.00  0.00     0.164 A 
ATOM     71  N   UNL     1      32.265  36.060  13.380  1.00  0.00    -0.193 NA
ATOM     72  C   UNL     1      30.883  35.820  15.269  1.00  0.00     0.026 A 
ATOM     73  C   UNL     1      33.000  35.007  13.741  1.00  0.00     0.222 A 
ATOM     74  C   UNL     1      31.623  34.744  15.659  1.00  0.00     0.081 A 
ATOM     75  N   UNL     1      32.679  34.363  14.865  1.00  0.00    -0.213 NA
BRANCH  72  76
ATOM     76  C   UNL     1      29.660  36.257  15.952  1.00  0.00     0.070 C 
BRANCH  76  77
ATOM     77  C   UNL     1      28.408  35.528  15.514  1.00  0.00     0.165 C 
BRANCH  77  78
ATOM     78  O   UNL     1      27.274  36.269  15.378  1.00  0.00    -0.381 OA
BRANCH  78  79
ATOM     79  C   UNL     1      27.349  37.608  15.617  1.00  0.00     0.156 C 
ATOM     80  C   UNL     1      26.403  38.394  14.692  1.00  0.00     0.035 C 
ENDBRANCH  78  79
ENDBRANCH  77  78
ENDBRANCH  76  77
ENDBRANCH  72  76
BRANCH  73  81
ATOM     81  N   UNL     1      34.109  34.564  12.952  1.00  0.00    -0.368 N 
ATOM     82  H   UNL     1      34.176  33.570  12.655  1.00  0.00     0.159 HD
ATOM     83  H   UNL     1      34.870  35.195  12.651  1.00  0.00     0.159 HD
ENDBRANCH  73  81
BRANCH  74  84
ATOM     84  C   UNL     1      31.372  33.991  16.868  1.00  0.00     0.001 A 
ATOM     85  C   UNL     1      31.821  34.524  18.074  1.00  0.00     0.010 A 
ATOM     86  C   UNL     1      30.688  32.788  16.867  1.00  0.00     0.010 A 
ATOM     87  C   UNL     1      31.595  33.873  19.279  1.00  0.00     0.001 A 
ATOM     88  C   UNL     1      30.476  32.160  18.071  1.00  0.00     0.001 A 
ATOM     89  C   UNL     1      30.913  32.679  19.264  1.00  0.00     0.000 A 
ENDBRANCH  74  84
ENDBRANCH  68  70
ENDBRANCH  64  65
ENDBRANCH  63  64
ENDBRANCH  60  63
ENDBRANCH  58  59
ENDBRANCH  55  58
ENDBRANCH   1  55
TORSDOF 36
BEGIN_RES LYS A 131
REMARK  4 active torsions:
REMARK  status: ('A' for Active; 'I' for Inactive)
REMARK    1  A    between atoms: CA   and  CB  
REMARK    2  A    between atoms: CB   and  CG  
REMARK    3  A    between atoms: CG   and  CD  
REMARK    4  A    between atoms: CD   and  CE  
ROOT
ATOM      1  CA  LYS A 131      29.867  25.555  16.977  1.00 20.52     0.186 C 
ENDROOT
BRANCH   1   2
ATOM      2  CB  LYS A 131      28.345  25.722  17.026  1.00 20.94     0.034 C 
BRANCH   2   3
ATOM      3  CG  LYS A 131      27.850  26.233  18.370  1.00 22.96     0.005 C 
BRANCH   3   4
ATOM      4  CD  LYS A 131      26.778  27.277  18.220  1.00 24.33     0.041 C 
BRANCH   4   5
ATOM      5  CE  LYS A 131      25.539  26.850  19.000  1.00 26.91     0.338 C 
ATOM      6  NZ  LYS A 131      25.721  25.490  19.560  1.00 27.40     0.618 N 
ENDBRANCH   4   5
ENDBRANCH   3   4
ENDBRANCH   2   3
ENDBRANCH   1   2
END_RES LYS A 131
BEGIN_RES LYS A 135
REMARK  4 active torsions:
REMARK  status: ('A' for Active; 'I' for Inactive)
REMARK    5  A    between atoms: CA   and  CB  
REMARK    6  A    between atoms: CB   and  CG  
REMARK    7  A    between atoms: CG   and  CD  
REMARK    8  A    between atoms: CD   and  CE  
ROOT
ATOM      7  CA  LYS A 135      33.193  34.663   9.290  1.00 25.02     0.186 C 
ENDROOT
BRANCH   7   8
ATOM      8  CB  LYS A 135      32.060  35.360  10.034  1.00 26.63     0.034 C 
BRANCH   8   9
ATOM      9  CG  LYS A 135      30.721  34.692   9.855  1.00 29.45     0.005 C 
BRANCH   9  10
ATOM     10  CD  LYS A 135      30.027  34.513  11.196  1.00 32.00     0.041 C 
BRANCH  10  11
ATOM     11  CE  LYS A 135      28.862  35.476  11.326  1.00 34.25     0.338 C 
ATOM     12  NZ  LYS A 135      27.746  34.866  12.101  1.00 35.99     0.618 N 
ENDBRANCH  10  11
ENDBRANCH   9  10
ENDBRANCH   8   9
ENDBRANCH   7   8
END_RES LYS A 135
