REMARK VINA RESULT:    -4.071      3.477      7.167
REMARK INTER + INTRA:         -21.944
REMARK INTER:                 -10.133
REMARK INTRA:                 -11.811
REMARK UNBOUND:               -10.971
REMARK SMILES C=CCCCCn1cc(COC(=O)NC[C@@H](O)C(O)[C@@H]2O[C@@](OC[C@H]3O[C@@H](O[C@H]4[C@H](O)[C@@H](O)[C@H](OCCN=[N+]=[N-])O[C@@H]4CO)[C@H](O)[C@@H](O)[C@H]3O)(C(=O)O)C[C@H](O)[C@H]2NC(C)=O)nn1
REMARK SMILES IDX 18 1 20 2 22 3 54 4 21 5 55 6 57 7 23 8 24 9 25 10 27 11
REMARK SMILES IDX 26 12 45 13 47 14 49 15 28 16 29 17 42 18 41 19 34 20 30 21
REMARK SMILES IDX 32 22 43 23 44 24 35 26 36 27 37 28 38 29 39 30 40 31 31 32
REMARK SMILES IDX 33 34 46 36 48 38 50 40 51 42 52 43 53 44 56 46 58 48 59 49
REMARK SMILES IDX 60 51 61 52 19 53 16 55 17 56 15 58 14 59 12 60 13 62 11 63
REMARK SMILES IDX 10 64 9 65 8 66 62 67 7 68 63 69 6 70 5 71 4 72 3 73 2 74
REMARK SMILES IDX 1 75
REMARK H PARENT 44 25 31 33 33 35 46 37 48 39 50 41 53 45 56 47 58 50 19 54
REMARK H PARENT 17 57 14 61
REMARK Flexibility Score: inf
ROOT
ATOM      1  C   UNL     1      29.459  33.632  17.162  1.00  0.00     0.176 C 
ENDROOT
BRANCH   1   2
ATOM      2  C   UNL     1      29.277  33.776  18.675  1.00  0.00     0.178 C 
ATOM      3  C   UNL     1      30.199  33.096  20.670  1.00  0.00     0.272 C 
ATOM      4  C   UNL     1      28.857  32.944  21.254  1.00  0.00     0.113 C 
ATOM      5  O   UNL     1      30.058  32.839  19.253  1.00  0.00    -0.332 OA
ATOM      6  C   UNL     1      27.807  33.788  20.675  1.00  0.00     0.145 C 
ATOM      7  C   UNL     1      27.943  34.048  19.184  1.00  0.00     0.142 C 
BRANCH   3   8
ATOM      8  O   UNL     1      31.076  32.072  20.996  1.00  0.00    -0.338 OA
BRANCH   8   9
ATOM      9  C   UNL     1      30.910  31.277  22.034  1.00  0.00     0.199 C 
BRANCH   9  10
ATOM     10  C   UNL     1      30.757  29.813  21.883  1.00  0.00     0.179 C 
ATOM     11  C   UNL     1      29.261  28.256  20.974  1.00  0.00     0.282 C 
ATOM     12  O   UNL     1      29.421  29.487  21.547  1.00  0.00    -0.341 OA
ATOM     13  C   UNL     1      30.400  27.335  21.172  1.00  0.00     0.202 C 
ATOM     14  C   UNL     1      31.739  27.898  20.777  1.00  0.00     0.179 C 
ATOM     15  C   UNL     1      31.619  29.389  20.700  1.00  0.00     0.177 C 
BRANCH  11  16
ATOM     16  O   UNL     1      28.791  28.442  19.702  1.00  0.00    -0.341 OA
BRANCH  16  17
ATOM     17  C   UNL     1      27.505  28.874  19.570  1.00  0.00     0.184 C 
ATOM     18  C   UNL     1      26.825  28.071  18.486  1.00  0.00     0.178 C 
ATOM     19  O   UNL     1      25.986  28.884  17.707  1.00  0.00    -0.341 OA
ATOM     20  C   UNL     1      26.805  29.604  16.842  1.00  0.00     0.281 C 
ATOM     21  C   UNL     1      27.453  30.342  19.088  1.00  0.00     0.180 C 
ATOM     22  C   UNL     1      27.803  30.411  17.619  1.00  0.00     0.202 C 
BRANCH  18  23
ATOM     23  C   UNL     1      26.055  26.877  19.027  1.00  0.00     0.191 C 
BRANCH  23  24
ATOM     24  O   UNL     1      26.806  26.188  19.963  1.00  0.00    -0.394 OA
ATOM     25  H   UNL     1      27.647  25.890  19.541  1.00  0.00     0.210 HD
ENDBRANCH  23  24
ENDBRANCH  18  23
BRANCH  20  26
ATOM     26  O   UNL     1      25.967  30.440  16.103  1.00  0.00    -0.350 OA
BRANCH  26  27
ATOM     27  C   UNL     1      26.634  31.466  15.459  1.00  0.00     0.169 C 
BRANCH  27  28
ATOM     28  C   UNL     1      25.687  32.651  15.395  1.00  0.00     0.119 C 
BRANCH  28  29
ATOM     29  N   UNL     1      24.309  32.240  15.430  1.00  0.00    -0.092 NA
ATOM     30  N   UNL     1      23.437  32.956  15.907  1.00  0.00     0.001 N 
ATOM     31  N   UNL     1      22.644  33.835  16.244  1.00  0.00    -0.003 NA
ENDBRANCH  28  29
ENDBRANCH  27  28
ENDBRANCH  26  27
ENDBRANCH  20  26
BRANCH  21  32
ATOM     32  O   UNL     1      26.123  30.735  19.217  1.00  0.00    -0.387 OA
ATOM     33  H   UNL     1      25.593  30.636  18.401  1.00  0.00     0.211 HD
ENDBRANCH  21  32
BRANCH  22  34
ATOM     34  O   UNL     1      29.121  30.014  17.410  1.00  0.00    -0.385 OA
ATOM     35  H   UNL     1      29.215  29.099  17.793  1.00  0.00     0.211 HD
ENDBRANCH  22  34
ENDBRANCH  16  17
ENDBRANCH  11  16
BRANCH  13  36
ATOM     36  O   UNL     1      30.457  27.016  22.536  1.00  0.00    -0.385 OA
ATOM     37  H   UNL     1      30.455  27.807  23.105  1.00  0.00     0.211 HD
ENDBRANCH  13  36
BRANCH  14  38
ATOM     38  O   UNL     1      32.205  27.359  19.576  1.00  0.00    -0.387 OA
ATOM     39  H   UNL     1      31.547  27.582  18.887  1.00  0.00     0.211 HD
ENDBRANCH  14  38
BRANCH  15  40
ATOM     40  O   UNL     1      31.045  29.813  19.495  1.00  0.00    -0.387 OA
ATOM     41  H   UNL     1      31.308  29.268  18.731  1.00  0.00     0.211 HD
ENDBRANCH  15  40
ENDBRANCH   9  10
ENDBRANCH   8   9
ENDBRANCH   3   8
BRANCH   3  42
ATOM     42  C   UNL     1      30.700  34.461  20.747  1.00  0.00     0.364 C 
ATOM     43  O   UNL     1      31.537  34.891  19.923  1.00  0.00    -0.246 OA
BRANCH  42  44
ATOM     44  O   UNL     1      30.298  35.334  21.714  1.00  0.00    -0.477 OA
ATOM     45  H   UNL     1      30.926  35.997  22.134  1.00  0.00     0.296 HD
ENDBRANCH  42  44
ENDBRANCH   3  42
BRANCH   6  46
ATOM     46  O   UNL     1      26.548  33.193  20.942  1.00  0.00    -0.391 OA
ATOM     47  H   UNL     1      26.642  32.252  21.233  1.00  0.00     0.211 HD
ENDBRANCH   6  46
BRANCH   7  48
ATOM     48  N   UNL     1      27.585  35.455  18.917  1.00  0.00    -0.348 N 
ATOM     49  C   UNL     1      26.346  35.845  18.358  1.00  0.00     0.217 C 
ATOM     50  H   UNL     1      28.251  36.246  19.132  1.00  0.00     0.163 HD
ATOM     51  C   UNL     1      26.043  37.301  18.099  1.00  0.00     0.114 C 
ATOM     52  O   UNL     1      25.501  34.958  18.079  1.00  0.00    -0.275 OA
ENDBRANCH   7  48
ENDBRANCH   1   2
BRANCH   1  53
ATOM     53  O   UNL     1      29.742  35.032  16.726  1.00  0.00    -0.388 OA
ATOM     54  H   UNL     1      30.748  35.029  16.820  1.00  0.00     0.211 HD
ENDBRANCH   1  53
BRANCH   1  55
ATOM     55  C   UNL     1      30.684  32.960  16.732  1.00  0.00     0.165 C 
BRANCH  55  56
ATOM     56  O   UNL     1      31.886  33.655  16.999  1.00  0.00    -0.388 OA
ATOM     57  H   UNL     1      31.941  34.347  16.295  1.00  0.00     0.211 HD
ENDBRANCH  55  56
BRANCH  55  58
ATOM     58  C   UNL     1      30.758  32.354  15.394  1.00  0.00     0.154 C 
BRANCH  58  59
ATOM     59  N   UNL     1      31.069  33.228  14.330  1.00  0.00    -0.319 N 
ATOM     60  C   UNL     1      30.273  34.102  13.580  1.00  0.00     0.407 C 
ATOM     61  H   UNL     1      32.117  33.231  14.034  1.00  0.00     0.167 HD
ATOM     62  O   UNL     1      29.054  34.209  13.795  1.00  0.00    -0.225 OA
BRANCH  60  63
ATOM     63  O   UNL     1      30.819  34.892  12.559  1.00  0.00    -0.443 OA
BRANCH  63  64
ATOM     64  C   UNL     1      32.083  35.514  12.796  1.00  0.00     0.294 C 
BRANCH  64  65
ATOM     65  C   UNL     1      32.099  36.179  14.124  1.00  0.00     0.120 A 
ATOM     66  C   UNL     1      31.551  37.433  14.388  1.00  0.00     0.138 A 
ATOM     67  N   UNL     1      32.614  35.752  15.286  1.00  0.00    -0.132 NA
ATOM     68  N   UNL     1      31.760  37.696  15.682  1.00  0.00    -0.252 N 
ATOM     69  N   UNL     1      32.397  36.687  16.217  1.00  0.00    -0.067 NA
BRANCH  68  70
ATOM     70  C   UNL     1      31.320  38.935  16.339  1.00  0.00     0.146 C 
BRANCH  70  71
ATOM     71  C   UNL     1      31.063  38.648  17.794  1.00  0.00     0.024 C 
BRANCH  71  72
ATOM     72  C   UNL     1      29.574  38.459  17.987  1.00  0.00     0.006 C 
BRANCH  72  73
ATOM     73  C   UNL     1      28.842  39.725  17.603  1.00  0.00     0.027 C 
BRANCH  73  74
ATOM     74  C   UNL     1      28.175  40.338  18.773  1.00  0.00    -0.035 C 
ATOM     75  C   UNL     1      27.709  41.570  18.706  1.00  0.00     0.004 C 
ENDBRANCH  73  74
ENDBRANCH  72  73
ENDBRANCH  71  72
ENDBRANCH  70  71
ENDBRANCH  68  70
ENDBRANCH  64  65
ENDBRANCH  63  64
ENDBRANCH  60  63
ENDBRANCH  58  59
ENDBRANCH  55  58
ENDBRANCH   1  55
TORSDOF 34
BEGIN_RES LYS A 131
REMARK  4 active torsions:
REMARK  status: ('A' for Active; 'I' for Inactive)
REMARK    1  A    between atoms: CA   and  CB  
REMARK    2  A    between atoms: CB   and  CG  
REMARK    3  A    between atoms: CG   and  CD  
REMARK    4  A    between atoms: CD   and  CE  
ROOT
ATOM      1  CA  LYS A 131      29.867  25.555  16.977  1.00 20.52     0.186 C 
ENDROOT
BRANCH   1   2
ATOM      2  CB  LYS A 131      28.345  25.722  17.026  1.00 20.94     0.034 C 
BRANCH   2   3
ATOM      3  CG  LYS A 131      27.599  24.476  16.574  1.00 22.96     0.005 C 
BRANCH   3   4
ATOM      4  CD  LYS A 131      27.254  23.573  17.725  1.00 24.33     0.041 C 
BRANCH   4   5
ATOM      5  CE  LYS A 131      25.762  23.258  17.696  1.00 26.91     0.338 C 
ATOM      6  NZ  LYS A 131      25.035  24.264  16.887  1.00 27.40     0.618 N 
ENDBRANCH   4   5
ENDBRANCH   3   4
ENDBRANCH   2   3
ENDBRANCH   1   2
END_RES LYS A 131
BEGIN_RES LYS A 135
REMARK  4 active torsions:
REMARK  status: ('A' for Active; 'I' for Inactive)
REMARK    5  A    between atoms: CA   and  CB  
REMARK    6  A    between atoms: CB   and  CG  
REMARK    7  A    between atoms: CG   and  CD  
REMARK    8  A    between atoms: CD   and  CE  
ROOT
ATOM      7  CA  LYS A 135      33.193  34.663   9.290  1.00 25.02     0.186 C 
ENDROOT
BRANCH   7   8
ATOM      8  CB  LYS A 135      32.060  35.360  10.034  1.00 26.63     0.034 C 
BRANCH   8   9
ATOM      9  CG  LYS A 135      30.857  35.642   9.172  1.00 29.45     0.005 C 
BRANCH   9  10
ATOM     10  CD  LYS A 135      30.274  34.348   8.625  1.00 32.00     0.041 C 
BRANCH  10  11
ATOM     11  CE  LYS A 135      28.781  34.491   8.397  1.00 34.25     0.338 C 
ATOM     12  NZ  LYS A 135      28.007  33.752   9.432  1.00 35.99     0.618 N 
ENDBRANCH  10  11
ENDBRANCH   9  10
ENDBRANCH   8   9
ENDBRANCH   7   8
END_RES LYS A 135
