REMARK VINA RESULT:    -4.766      2.395      6.942
REMARK INTER + INTRA:         -23.583
REMARK INTER:                 -12.119
REMARK INTRA:                 -11.464
REMARK UNBOUND:               -10.737
REMARK SMILES CC(=O)N[C@@H]1[C@@H](O)C[C@](OC[C@H]2O[C@@H](O[C@H]3[C@H](O)[C@@H](O)[C@H](OCCN=[N+]=[N-])O[C@@H]3CO)[C@H](O)[C@@H](O)[C@H]2O)(C(=O)O)O[C@H]1C(O)[C@H](O)CNC(=O)OCc1cn(CCNC(=O)NCc2ccco2)nn1
REMARK SMILES IDX 43 1 42 2 9 3 8 4 41 5 6 6 5 7 10 8 11 9 12 10 14 11 13 12
REMARK SMILES IDX 32 13 34 14 36 15 15 16 16 17 29 18 28 19 21 20 17 21 19 22
REMARK SMILES IDX 30 23 31 24 22 26 23 27 24 28 25 29 26 30 27 31 18 32 20 34
REMARK SMILES IDX 33 36 35 38 37 40 38 42 39 43 40 44 7 46 4 48 2 49 1 51 3 52
REMARK SMILES IDX 44 53 45 55 46 56 47 58 48 59 49 60 50 62 51 63 52 64 53 65
REMARK SMILES IDX 54 66 69 67 55 68 68 69 56 70 57 71 58 72 59 73 60 75 61 76
REMARK SMILES IDX 62 78 63 79 64 80 67 81 65 82 66 83
REMARK H PARENT 31 25 18 33 20 35 33 37 35 39 37 41 40 45 7 47 4 50 44 54
REMARK H PARENT 46 57 48 61 58 74 61 77
REMARK Flexibility Score: inf
ROOT
ATOM      1  C   UNL     1      31.511  32.679  16.046  1.00  0.00     0.176 C 
ENDROOT
BRANCH   1   2
ATOM      2  C   UNL     1      31.547  34.172  16.135  1.00  0.00     0.178 C 
ATOM      3  C   UNL     1      30.137  35.022  14.420  1.00  0.00     0.272 C 
ATOM      4  C   UNL     1      31.393  34.713  13.543  1.00  0.00     0.113 C 
ATOM      5  O   UNL     1      30.403  34.781  15.720  1.00  0.00    -0.332 OA
ATOM      6  C   UNL     1      32.654  35.145  14.179  1.00  0.00     0.145 C 
ATOM      7  C   UNL     1      32.790  34.824  15.647  1.00  0.00     0.142 C 
BRANCH   3   8
ATOM      8  O   UNL     1      29.212  34.097  13.987  1.00  0.00    -0.338 OA
BRANCH   8   9
ATOM      9  C   UNL     1      27.922  34.407  13.885  1.00  0.00     0.199 C 
BRANCH   9  10
ATOM     10  C   UNL     1      26.838  33.952  14.733  1.00  0.00     0.179 C 
ATOM     11  C   UNL     1      25.765  32.264  15.855  1.00  0.00     0.282 C 
ATOM     12  O   UNL     1      26.963  32.687  15.280  1.00  0.00    -0.341 OA
ATOM     13  C   UNL     1      24.824  33.350  16.224  1.00  0.00     0.202 C 
ATOM     14  C   UNL     1      25.449  34.655  16.621  1.00  0.00     0.179 C 
ATOM     15  C   UNL     1      26.771  34.892  15.953  1.00  0.00     0.177 C 
BRANCH  11  16
ATOM     16  O   UNL     1      25.972  31.440  16.950  1.00  0.00    -0.341 OA
BRANCH  16  17
ATOM     17  C   UNL     1      26.124  30.086  16.590  1.00  0.00     0.184 C 
ATOM     18  C   UNL     1      24.876  29.369  17.016  1.00  0.00     0.178 C 
ATOM     19  O   UNL     1      25.129  28.061  17.421  1.00  0.00    -0.341 OA
ATOM     20  C   UNL     1      25.875  28.147  18.590  1.00  0.00     0.281 C 
ATOM     21  C   UNL     1      27.390  29.593  17.207  1.00  0.00     0.180 C 
ATOM     22  C   UNL     1      27.271  28.557  18.260  1.00  0.00     0.202 C 
BRANCH  18  23
ATOM     23  C   UNL     1      23.953  29.264  15.801  1.00  0.00     0.191 C 
BRANCH  23  24
ATOM     24  O   UNL     1      23.094  30.384  15.841  1.00  0.00    -0.394 OA
ATOM     25  H   UNL     1      23.701  31.154  16.050  1.00  0.00     0.210 HD
ENDBRANCH  23  24
ENDBRANCH  18  23
BRANCH  20  26
ATOM     26  O   UNL     1      25.928  26.853  19.115  1.00  0.00    -0.350 OA
BRANCH  26  27
ATOM     27  C   UNL     1      24.729  26.502  19.734  1.00  0.00     0.169 C 
BRANCH  27  28
ATOM     28  C   UNL     1      25.047  25.324  20.658  1.00  0.00     0.119 C 
BRANCH  28  29
ATOM     29  N   UNL     1      24.274  25.530  21.870  1.00  0.00    -0.092 NA
ATOM     30  N   UNL     1      24.403  24.773  22.843  1.00  0.00     0.001 N 
ATOM     31  N   UNL     1      24.770  24.208  23.888  1.00  0.00    -0.003 NA
ENDBRANCH  28  29
ENDBRANCH  27  28
ENDBRANCH  26  27
ENDBRANCH  20  26
BRANCH  21  32
ATOM     32  O   UNL     1      28.207  29.124  16.158  1.00  0.00    -0.387 OA
ATOM     33  H   UNL     1      29.054  28.767  16.482  1.00  0.00     0.211 HD
ENDBRANCH  21  32
BRANCH  22  34
ATOM     34  O   UNL     1      27.818  29.082  19.458  1.00  0.00    -0.385 OA
ATOM     35  H   UNL     1      27.023  29.379  19.997  1.00  0.00     0.211 HD
ENDBRANCH  22  34
ENDBRANCH  16  17
ENDBRANCH  11  16
BRANCH  13  36
ATOM     36  O   UNL     1      23.795  33.522  15.288  1.00  0.00    -0.385 OA
ATOM     37  H   UNL     1      23.436  32.663  14.973  1.00  0.00     0.211 HD
ENDBRANCH  13  36
BRANCH  14  38
ATOM     38  O   UNL     1      25.570  34.775  18.012  1.00  0.00    -0.387 OA
ATOM     39  H   UNL     1      24.928  34.110  18.387  1.00  0.00     0.211 HD
ENDBRANCH  14  38
BRANCH  15  40
ATOM     40  O   UNL     1      27.856  34.716  16.778  1.00  0.00    -0.387 OA
ATOM     41  H   UNL     1      28.373  33.960  16.444  1.00  0.00     0.211 HD
ENDBRANCH  15  40
ENDBRANCH   9  10
ENDBRANCH   8   9
ENDBRANCH   3   8
BRANCH   3  42
ATOM     42  C   UNL     1      29.774  36.381  14.024  1.00  0.00     0.364 C 
ATOM     43  O   UNL     1      29.406  37.223  14.856  1.00  0.00    -0.246 OA
BRANCH  42  44
ATOM     44  O   UNL     1      29.812  36.832  12.701  1.00  0.00    -0.477 OA
ATOM     45  H   UNL     1      30.311  37.697  12.487  1.00  0.00     0.296 HD
ENDBRANCH  42  44
ENDBRANCH   3  42
BRANCH   6  46
ATOM     46  O   UNL     1      33.710  34.525  13.485  1.00  0.00    -0.391 OA
ATOM     47  H   UNL     1      33.341  33.812  12.905  1.00  0.00     0.211 HD
ENDBRANCH   6  46
BRANCH   7  48
ATOM     48  N   UNL     1      33.066  36.066  16.370  1.00  0.00    -0.348 N 
ATOM     49  C   UNL     1      34.379  36.502  16.593  1.00  0.00     0.217 C 
ATOM     50  H   UNL     1      32.254  36.620  16.715  1.00  0.00     0.163 HD
ATOM     51  C   UNL     1      34.712  37.761  17.327  1.00  0.00     0.114 C 
ATOM     52  O   UNL     1      35.321  35.776  16.143  1.00  0.00    -0.275 OA
ENDBRANCH   7  48
ENDBRANCH   1   2
BRANCH   1  53
ATOM     53  O   UNL     1      31.210  32.331  14.681  1.00  0.00    -0.388 OA
ATOM     54  H   UNL     1      30.541  32.972  14.395  1.00  0.00     0.211 HD
ENDBRANCH   1  53
BRANCH   1  55
ATOM     55  C   UNL     1      30.415  31.992  16.807  1.00  0.00     0.165 C 
BRANCH  55  56
ATOM     56  O   UNL     1      29.162  32.009  16.242  1.00  0.00    -0.388 OA
ATOM     57  H   UNL     1      29.171  31.958  15.253  1.00  0.00     0.211 HD
ENDBRANCH  55  56
BRANCH  55  58
ATOM     58  C   UNL     1      30.358  32.480  18.258  1.00  0.00     0.154 C 
BRANCH  58  59
ATOM     59  N   UNL     1      29.216  31.926  18.944  1.00  0.00    -0.319 N 
ATOM     60  C   UNL     1      28.173  32.717  19.479  1.00  0.00     0.407 C 
ATOM     61  H   UNL     1      29.156  30.894  19.047  1.00  0.00     0.167 HD
ATOM     62  O   UNL     1      28.226  33.969  19.359  1.00  0.00    -0.225 OA
BRANCH  60  63
ATOM     63  O   UNL     1      27.084  32.155  20.138  1.00  0.00    -0.443 OA
BRANCH  63  64
ATOM     64  C   UNL     1      27.045  32.201  21.561  1.00  0.00     0.294 C 
BRANCH  64  65
ATOM     65  C   UNL     1      26.761  30.798  21.991  1.00  0.00     0.120 A 
ATOM     66  C   UNL     1      27.467  30.103  22.936  1.00  0.00     0.138 A 
ATOM     67  N   UNL     1      25.773  29.990  21.533  1.00  0.00    -0.132 NA
ATOM     68  N   UNL     1      26.898  28.909  23.022  1.00  0.00    -0.250 N 
ATOM     69  N   UNL     1      25.874  28.847  22.171  1.00  0.00    -0.067 NA
BRANCH  68  70
ATOM     70  C   UNL     1      27.344  27.835  23.909  1.00  0.00     0.167 C 
BRANCH  70  71
ATOM     71  C   UNL     1      27.563  26.599  23.036  1.00  0.00     0.141 C 
BRANCH  71  72
ATOM     72  N   UNL     1      28.289  27.026  21.876  1.00  0.00    -0.336 N 
ATOM     73  C   UNL     1      29.694  27.125  21.820  1.00  0.00     0.315 C 
ATOM     74  H   UNL     1      27.713  27.277  21.028  1.00  0.00     0.165 HD
ATOM     75  O   UNL     1      30.403  26.856  22.814  1.00  0.00    -0.249 OA
ATOM     76  N   UNL     1      30.307  27.542  20.590  1.00  0.00    -0.331 N 
ATOM     77  H   UNL     1      29.671  27.757  19.780  1.00  0.00     0.165 HD
BRANCH  76  78
ATOM     78  C   UNL     1      31.736  27.652  20.492  1.00  0.00     0.193 C 
BRANCH  78  79
ATOM     79  C   UNL     1      32.187  28.983  20.978  1.00  0.00     0.122 A 
ATOM     80  C   UNL     1      31.418  30.139  20.923  1.00  0.00     0.047 A 
ATOM     81  O   UNL     1      33.325  29.273  21.512  1.00  0.00    -0.467 OA
ATOM     82  C   UNL     1      32.187  31.128  21.463  1.00  0.00     0.042 A 
ATOM     83  C   UNL     1      33.375  30.550  21.821  1.00  0.00     0.195 A 
ENDBRANCH  78  79
ENDBRANCH  76  78
ENDBRANCH  71  72
ENDBRANCH  70  71
ENDBRANCH  68  70
ENDBRANCH  64  65
ENDBRANCH  63  64
ENDBRANCH  60  63
ENDBRANCH  58  59
ENDBRANCH  55  58
ENDBRANCH   1  55
TORSDOF 34
BEGIN_RES LYS A 131
REMARK  4 active torsions:
REMARK  status: ('A' for Active; 'I' for Inactive)
REMARK    1  A    between atoms: CA   and  CB  
REMARK    2  A    between atoms: CB   and  CG  
REMARK    3  A    between atoms: CG   and  CD  
REMARK    4  A    between atoms: CD   and  CE  
ROOT
ATOM      1  CA  LYS A 131      29.867  25.555  16.977  1.00 20.52     0.186 C 
ENDROOT
BRANCH   1   2
ATOM      2  CB  LYS A 131      28.345  25.722  17.026  1.00 20.94     0.034 C 
BRANCH   2   3
ATOM      3  CG  LYS A 131      27.599  24.444  16.675  1.00 22.96     0.005 C 
BRANCH   3   4
ATOM      4  CD  LYS A 131      27.026  23.770  17.891  1.00 24.33     0.041 C 
BRANCH   4   5
ATOM      5  CE  LYS A 131      25.639  23.226  17.565  1.00 26.91     0.338 C 
ATOM      6  NZ  LYS A 131      24.801  24.279  16.944  1.00 27.40     0.618 N 
ENDBRANCH   4   5
ENDBRANCH   3   4
ENDBRANCH   2   3
ENDBRANCH   1   2
END_RES LYS A 131
BEGIN_RES LYS A 135
REMARK  4 active torsions:
REMARK  status: ('A' for Active; 'I' for Inactive)
REMARK    5  A    between atoms: CA   and  CB  
REMARK    6  A    between atoms: CB   and  CG  
REMARK    7  A    between atoms: CG   and  CD  
REMARK    8  A    between atoms: CD   and  CE  
ROOT
ATOM      7  CA  LYS A 135      33.193  34.663   9.290  1.00 25.02     0.186 C 
ENDROOT
BRANCH   7   8
ATOM      8  CB  LYS A 135      32.060  35.360  10.034  1.00 26.63     0.034 C 
BRANCH   8   9
ATOM      9  CG  LYS A 135      30.818  35.548   9.201  1.00 29.45     0.005 C 
BRANCH   9  10
ATOM     10  CD  LYS A 135      30.061  34.236   9.063  1.00 32.00     0.041 C 
BRANCH  10  11
ATOM     11  CE  LYS A 135      28.724  34.462   8.383  1.00 34.25     0.338 C 
ATOM     12  NZ  LYS A 135      28.876  35.312   7.169  1.00 35.99     0.618 N 
ENDBRANCH  10  11
ENDBRANCH   9  10
ENDBRANCH   8   9
ENDBRANCH   7   8
END_RES LYS A 135
