REMARK VINA RESULT:    -5.197      6.998     13.164
REMARK INTER + INTRA:         -23.303
REMARK INTER:                 -11.435
REMARK INTRA:                 -11.868
REMARK UNBOUND:                -9.598
REMARK SMILES CC(=O)N[C@@H]1[C@@H](O)C[C@](OC[C@H]2O[C@@H](O[C@H]3[C@H](O)[C@@H](O)[C@H](OCCN=[N+]=[N-])O[C@@H]3CO)[C@H](O)[C@@H](O)[C@H]2O)(C(=O)O)O[C@H]1C(O)[C@H](O)CNC(=O)OCc1cn(Cc2ccccc2OC(C)=O)nn1
REMARK SMILES IDX 43 1 42 2 9 3 8 4 41 5 6 6 5 7 10 8 11 9 12 10 14 11 13 12
REMARK SMILES IDX 32 13 34 14 36 15 15 16 16 17 29 18 28 19 21 20 17 21 19 22
REMARK SMILES IDX 30 23 31 24 22 26 23 27 24 28 25 29 26 30 27 31 18 32 20 34
REMARK SMILES IDX 33 36 35 38 37 40 38 42 39 43 40 44 7 46 4 48 2 49 1 51 3 52
REMARK SMILES IDX 44 53 45 55 46 56 47 58 48 59 49 60 50 62 51 63 52 64 53 65
REMARK SMILES IDX 54 66 68 67 55 68 67 69 56 70 57 71 62 72 58 73 61 74 59 75
REMARK SMILES IDX 60 76 63 77 64 78 66 79 65 80
REMARK H PARENT 31 25 18 33 20 35 33 37 35 39 37 41 40 45 7 47 4 50 44 54
REMARK H PARENT 46 57 48 61
REMARK Flexibility Score: inf
ROOT
ATOM      1  C   UNL     1      30.576  30.006  20.222  1.00  0.00     0.176 C 
ENDROOT
BRANCH   1   2
ATOM      2  C   UNL     1      29.140  29.621  20.543  1.00  0.00     0.178 C 
ATOM      3  C   UNL     1      27.272  28.621  19.570  1.00  0.00     0.272 C 
ATOM      4  C   UNL     1      26.649  29.309  20.780  1.00  0.00     0.113 C 
ATOM      5  O   UNL     1      28.573  29.146  19.382  1.00  0.00    -0.332 OA
ATOM      6  C   UNL     1      27.016  30.779  20.668  1.00  0.00     0.145 C 
ATOM      7  C   UNL     1      28.454  30.911  20.994  1.00  0.00     0.142 C 
BRANCH   3   8
ATOM      8  O   UNL     1      26.602  28.864  18.408  1.00  0.00    -0.338 OA
BRANCH   8   9
ATOM      9  C   UNL     1      27.159  28.465  17.235  1.00  0.00     0.199 C 
BRANCH   9  10
ATOM     10  C   UNL     1      26.900  29.570  16.196  1.00  0.00     0.179 C 
ATOM     11  C   UNL     1      25.408  31.241  15.680  1.00  0.00     0.282 C 
ATOM     12  O   UNL     1      25.783  30.267  16.668  1.00  0.00    -0.341 OA
ATOM     13  C   UNL     1      26.435  32.312  15.787  1.00  0.00     0.202 C 
ATOM     14  C   UNL     1      27.757  31.689  15.305  1.00  0.00     0.179 C 
ATOM     15  C   UNL     1      28.099  30.453  16.066  1.00  0.00     0.177 C 
BRANCH  11  16
ATOM     16  O   UNL     1      24.112  31.560  16.005  1.00  0.00    -0.341 OA
BRANCH  16  17
ATOM     17  C   UNL     1      23.218  31.154  14.998  1.00  0.00     0.184 C 
ATOM     18  C   UNL     1      23.671  29.969  14.228  1.00  0.00     0.178 C 
ATOM     19  O   UNL     1      23.516  30.121  12.847  1.00  0.00    -0.341 OA
ATOM     20  C   UNL     1      22.277  30.620  12.466  1.00  0.00     0.281 C 
ATOM     21  C   UNL     1      23.215  32.318  13.937  1.00  0.00     0.180 C 
ATOM     22  C   UNL     1      22.045  32.016  13.041  1.00  0.00     0.202 C 
BRANCH  18  23
ATOM     23  C   UNL     1      23.171  28.641  14.704  1.00  0.00     0.191 C 
BRANCH  23  24
ATOM     24  O   UNL     1      23.315  28.565  16.081  1.00  0.00    -0.394 OA
ATOM     25  H   UNL     1      22.558  28.997  16.529  1.00  0.00     0.210 HD
ENDBRANCH  23  24
ENDBRANCH  18  23
BRANCH  20  26
ATOM     26  O   UNL     1      21.270  29.828  12.890  1.00  0.00    -0.350 OA
BRANCH  26  27
ATOM     27  C   UNL     1      20.057  29.862  12.308  1.00  0.00     0.169 C 
BRANCH  27  28
ATOM     28  C   UNL     1      18.857  30.063  13.161  1.00  0.00     0.119 C 
BRANCH  28  29
ATOM     29  N   UNL     1      18.017  31.087  12.638  1.00  0.00    -0.092 NA
ATOM     30  N   UNL     1      18.447  32.076  12.087  1.00  0.00     0.001 N 
ATOM     31  N   UNL     1      18.980  32.890  11.326  1.00  0.00    -0.003 NA
ENDBRANCH  28  29
ENDBRANCH  27  28
ENDBRANCH  26  27
ENDBRANCH  20  26
BRANCH  21  32
ATOM     32  O   UNL     1      23.131  33.525  14.586  1.00  0.00    -0.387 OA
ATOM     33  H   UNL     1      23.455  33.427  15.538  1.00  0.00     0.211 HD
ENDBRANCH  21  32
BRANCH  22  34
ATOM     34  O   UNL     1      21.856  32.977  12.073  1.00  0.00    -0.385 OA
ATOM     35  H   UNL     1      21.506  33.793  12.533  1.00  0.00     0.211 HD
ENDBRANCH  22  34
ENDBRANCH  16  17
ENDBRANCH  11  16
BRANCH  13  36
ATOM     36  O   UNL     1      26.216  33.383  14.937  1.00  0.00    -0.385 OA
ATOM     37  H   UNL     1      25.309  33.434  14.570  1.00  0.00     0.211 HD
ENDBRANCH  13  36
BRANCH  14  38
ATOM     38  O   UNL     1      28.778  32.641  15.353  1.00  0.00    -0.387 OA
ATOM     39  H   UNL     1      29.570  32.221  14.911  1.00  0.00     0.211 HD
ENDBRANCH  14  38
BRANCH  15  40
ATOM     40  O   UNL     1      28.627  30.832  17.298  1.00  0.00    -0.387 OA
ATOM     41  H   UNL     1      29.129  30.123  17.742  1.00  0.00     0.211 HD
ENDBRANCH  15  40
ENDBRANCH   9  10
ENDBRANCH   8   9
ENDBRANCH   3   8
BRANCH   3  42
ATOM     42  C   UNL     1      27.384  27.191  19.929  1.00  0.00     0.364 C 
ATOM     43  O   UNL     1      26.407  26.501  20.212  1.00  0.00    -0.246 OA
BRANCH  42  44
ATOM     44  O   UNL     1      28.653  26.606  19.946  1.00  0.00    -0.477 OA
ATOM     45  H   UNL     1      29.321  26.749  19.175  1.00  0.00     0.296 HD
ENDBRANCH  42  44
ENDBRANCH   3  42
BRANCH   6  46
ATOM     46  O   UNL     1      26.841  31.111  19.321  1.00  0.00    -0.391 OA
ATOM     47  H   UNL     1      26.277  31.907  19.179  1.00  0.00     0.211 HD
ENDBRANCH   6  46
BRANCH   7  48
ATOM     48  N   UNL     1      28.803  31.223  22.316  1.00  0.00    -0.348 N 
ATOM     49  C   UNL     1      29.127  32.532  22.772  1.00  0.00     0.217 C 
ATOM     50  H   UNL     1      28.827  30.430  23.019  1.00  0.00     0.163 HD
ATOM     51  C   UNL     1      29.489  32.820  24.169  1.00  0.00     0.114 C 
ATOM     52  O   UNL     1      29.089  33.438  21.928  1.00  0.00    -0.275 OA
ENDBRANCH   7  48
ENDBRANCH   1   2
BRANCH   1  53
ATOM     53  O   UNL     1      30.626  31.388  20.234  1.00  0.00    -0.388 OA
ATOM     54  H   UNL     1      31.165  31.785  19.518  1.00  0.00     0.211 HD
ENDBRANCH   1  53
BRANCH   1  55
ATOM     55  C   UNL     1      31.588  29.327  21.083  1.00  0.00     0.165 C 
BRANCH  55  56
ATOM     56  O   UNL     1      31.025  28.134  21.543  1.00  0.00    -0.388 OA
ATOM     57  H   UNL     1      31.420  27.838  22.377  1.00  0.00     0.211 HD
ENDBRANCH  55  56
BRANCH  55  58
ATOM     58  C   UNL     1      32.056  30.185  22.234  1.00  0.00     0.154 C 
BRANCH  58  59
ATOM     59  N   UNL     1      33.046  31.151  21.891  1.00  0.00    -0.319 N 
ATOM     60  C   UNL     1      34.442  30.961  22.060  1.00  0.00     0.407 C 
ATOM     61  H   UNL     1      32.742  32.076  21.482  1.00  0.00     0.167 HD
ATOM     62  O   UNL     1      34.830  29.871  22.548  1.00  0.00    -0.225 OA
BRANCH  60  63
ATOM     63  O   UNL     1      35.387  31.902  21.724  1.00  0.00    -0.443 OA
BRANCH  63  64
ATOM     64  C   UNL     1      35.339  33.245  22.203  1.00  0.00     0.294 C 
BRANCH  64  65
ATOM     65  C   UNL     1      35.105  34.199  21.110  1.00  0.00     0.120 A 
ATOM     66  C   UNL     1      33.858  34.538  20.641  1.00  0.00     0.138 A 
ATOM     67  N   UNL     1      35.976  34.906  20.380  1.00  0.00    -0.132 NA
ATOM     68  N   UNL     1      33.994  35.425  19.654  1.00  0.00    -0.248 N 
ATOM     69  N   UNL     1      35.318  35.630  19.519  1.00  0.00    -0.067 NA
BRANCH  68  70
ATOM     70  C   UNL     1      32.990  36.077  18.834  1.00  0.00     0.185 C 
BRANCH  70  71
ATOM     71  C   UNL     1      32.790  35.379  17.560  1.00  0.00     0.016 A 
ATOM     72  C   UNL     1      31.895  34.374  17.422  1.00  0.00     0.135 A 
ATOM     73  C   UNL     1      33.560  35.809  16.476  1.00  0.00     0.009 A 
ATOM     74  C   UNL     1      31.750  33.768  16.173  1.00  0.00     0.047 A 
ATOM     75  C   UNL     1      33.409  35.206  15.254  1.00  0.00     0.001 A 
ATOM     76  C   UNL     1      32.504  34.182  15.092  1.00  0.00     0.004 A 
BRANCH  72  77
ATOM     77  O   UNL     1      31.114  33.913  18.462  1.00  0.00    -0.426 OA
BRANCH  77  78
ATOM     78  C   UNL     1      29.745  34.199  18.428  1.00  0.00     0.308 C 
ATOM     79  O   UNL     1      28.932  33.249  18.462  1.00  0.00    -0.252 OA
ATOM     80  C   UNL     1      29.290  35.590  18.355  1.00  0.00     0.139 C 
ENDBRANCH  77  78
ENDBRANCH  72  77
ENDBRANCH  70  71
ENDBRANCH  68  70
ENDBRANCH  64  65
ENDBRANCH  63  64
ENDBRANCH  60  63
ENDBRANCH  58  59
ENDBRANCH  55  58
ENDBRANCH   1  55
TORSDOF 33
BEGIN_RES LYS A 131
REMARK  4 active torsions:
REMARK  status: ('A' for Active; 'I' for Inactive)
REMARK    1  A    between atoms: CA   and  CB  
REMARK    2  A    between atoms: CB   and  CG  
REMARK    3  A    between atoms: CG   and  CD  
REMARK    4  A    between atoms: CD   and  CE  
ROOT
ATOM      1  CA  LYS A 131      29.867  25.555  16.977  1.00 20.52     0.186 C 
ENDROOT
BRANCH   1   2
ATOM      2  CB  LYS A 131      28.345  25.722  17.026  1.00 20.94     0.034 C 
BRANCH   2   3
ATOM      3  CG  LYS A 131      27.601  24.402  16.889  1.00 22.96     0.005 C 
BRANCH   3   4
ATOM      4  CD  LYS A 131      26.145  24.534  17.240  1.00 24.33     0.041 C 
BRANCH   4   5
ATOM      5  CE  LYS A 131      25.570  23.156  17.549  1.00 26.91     0.338 C 
ATOM      6  NZ  LYS A 131      24.155  23.074  17.114  1.00 27.40     0.618 N 
ENDBRANCH   4   5
ENDBRANCH   3   4
ENDBRANCH   2   3
ENDBRANCH   1   2
END_RES LYS A 131
BEGIN_RES LYS A 135
REMARK  4 active torsions:
REMARK  status: ('A' for Active; 'I' for Inactive)
REMARK    5  A    between atoms: CA   and  CB  
REMARK    6  A    between atoms: CB   and  CG  
REMARK    7  A    between atoms: CG   and  CD  
REMARK    8  A    between atoms: CD   and  CE  
ROOT
ATOM      7  CA  LYS A 135      33.193  34.663   9.290  1.00 25.02     0.186 C 
ENDROOT
BRANCH   7   8
ATOM      8  CB  LYS A 135      32.060  35.360  10.034  1.00 26.63     0.034 C 
BRANCH   8   9
ATOM      9  CG  LYS A 135      30.775  35.426   9.250  1.00 29.45     0.005 C 
BRANCH   9  10
ATOM     10  CD  LYS A 135      30.144  34.047   9.136  1.00 32.00     0.041 C 
BRANCH  10  11
ATOM     11  CE  LYS A 135      28.634  34.158   9.050  1.00 34.25     0.338 C 
ATOM     12  NZ  LYS A 135      28.221  34.947   7.857  1.00 35.99     0.618 N 
ENDBRANCH  10  11
ENDBRANCH   9  10
ENDBRANCH   8   9
ENDBRANCH   7   8
END_RES LYS A 135
