REMARK VINA RESULT:    -4.252      2.664      7.966
REMARK INTER + INTRA:         -22.022
REMARK INTER:                 -10.436
REMARK INTRA:                 -11.586
REMARK UNBOUND:               -10.809
REMARK SMILES COc1ccc(Cn2cc(COC(=O)NC[C@@H](O)C(O)[C@@H]3O[C@@](OC[C@H]4O[C@@H](O[C@H]5[C@H](O)[C@@H](O)[C@H](OCCN=[N+]=[N-])O[C@@H]5CO)[C@H](O)[C@@H](O)[C@H]4O)(C(=O)O)C[C@H](O)[C@H]3NC(C)=O)nn2)cc1OC
REMARK SMILES IDX 23 1 55 2 56 3 58 4 21 5 22 6 24 7 25 8 26 9 28 10 27 11
REMARK SMILES IDX 46 12 48 13 50 14 29 15 30 16 43 17 42 18 35 19 31 20 33 21
REMARK SMILES IDX 44 22 45 23 36 25 37 26 38 27 39 28 40 29 41 30 32 31 34 33
REMARK SMILES IDX 47 35 49 37 51 39 52 41 53 42 54 43 57 45 19 47 20 48 17 50
REMARK SMILES IDX 18 51 16 53 15 54 13 55 14 57 12 58 11 59 10 60 9 61 63 62
REMARK SMILES IDX 8 63 64 64 7 65 6 66 65 67 5 68 66 69 4 70 3 71 67 72 68 73
REMARK SMILES IDX 2 74 1 75 59 76 60 77 61 79 62 80
REMARK H PARENT 45 24 32 32 34 34 47 36 49 38 51 40 54 44 57 46 20 49 18 52
REMARK H PARENT 15 56 59 78
REMARK Flexibility Score: inf
ROOT
ATOM      1  C   UNL     1      21.517  36.706   8.670  1.00  0.00     0.272 C 
ATOM      2  C   UNL     1      20.923  38.100   8.766  1.00  0.00     0.113 C 
ATOM      3  C   UNL     1      21.378  38.993   9.862  1.00  0.00     0.145 C 
ATOM      4  C   UNL     1      21.970  38.157  10.993  1.00  0.00     0.142 C 
ATOM      5  C   UNL     1      21.226  36.881  10.966  1.00  0.00     0.178 C 
ATOM      6  O   UNL     1      21.697  36.098   9.928  1.00  0.00    -0.332 OA
ENDROOT
BRANCH   1   7
ATOM      7  O   UNL     1      22.772  36.904   8.109  1.00  0.00    -0.338 OA
BRANCH   7   8
ATOM      8  C   UNL     1      23.831  36.288   8.702  1.00  0.00     0.199 C 
BRANCH   8   9
ATOM      9  C   UNL     1      24.901  37.280   9.066  1.00  0.00     0.179 C 
ATOM     10  C   UNL     1      26.998  37.589   9.885  1.00  0.00     0.282 C 
ATOM     11  O   UNL     1      26.159  36.658   9.160  1.00  0.00    -0.341 OA
ATOM     12  C   UNL     1      27.334  38.717   9.025  1.00  0.00     0.202 C 
ATOM     13  C   UNL     1      26.132  39.256   8.268  1.00  0.00     0.179 C 
ATOM     14  C   UNL     1      25.098  38.264   7.904  1.00  0.00     0.177 C 
BRANCH  10  15
ATOM     15  O   UNL     1      28.071  36.854  10.346  1.00  0.00    -0.341 OA
BRANCH  15  16
ATOM     16  C   UNL     1      27.953  36.634  11.719  1.00  0.00     0.184 C 
ATOM     17  C   UNL     1      29.206  36.865  12.465  1.00  0.00     0.178 C 
ATOM     18  O   UNL     1      28.900  36.890  13.823  1.00  0.00    -0.341 OA
ATOM     19  C   UNL     1      27.956  35.995  14.179  1.00  0.00     0.281 C 
ATOM     20  C   UNL     1      27.503  35.179  11.898  1.00  0.00     0.180 C 
ATOM     21  C   UNL     1      27.870  34.750  13.326  1.00  0.00     0.202 C 
BRANCH  17  22
ATOM     22  C   UNL     1      29.931  38.119  12.037  1.00  0.00     0.191 C 
BRANCH  22  23
ATOM     23  O   UNL     1      29.046  39.177  12.243  1.00  0.00    -0.394 OA
ATOM     24  H   UNL     1      28.879  39.271  13.228  1.00  0.00     0.210 HD
ENDBRANCH  22  23
ENDBRANCH  17  22
BRANCH  19  25
ATOM     25  O   UNL     1      26.669  36.632  14.054  1.00  0.00    -0.350 OA
BRANCH  25  26
ATOM     26  C   UNL     1      26.578  37.563  15.109  1.00  0.00     0.169 C 
BRANCH  26  27
ATOM     27  C   UNL     1      26.226  38.960  14.632  1.00  0.00     0.119 C 
BRANCH  27  28
ATOM     28  N   UNL     1      27.412  39.771  14.654  1.00  0.00    -0.092 NA
ATOM     29  N   UNL     1      27.379  40.979  14.905  1.00  0.00     0.001 N 
ATOM     30  N   UNL     1      27.010  42.167  15.008  1.00  0.00    -0.003 NA
ENDBRANCH  27  28
ENDBRANCH  26  27
ENDBRANCH  25  26
ENDBRANCH  19  25
BRANCH  20  31
ATOM     31  O   UNL     1      26.121  35.161  11.810  1.00  0.00    -0.387 OA
ATOM     32  H   UNL     1      25.764  34.716  12.637  1.00  0.00     0.211 HD
ENDBRANCH  20  31
BRANCH  21  33
ATOM     33  O   UNL     1      29.096  34.128  13.285  1.00  0.00    -0.385 OA
ATOM     34  H   UNL     1      29.835  34.760  13.068  1.00  0.00     0.211 HD
ENDBRANCH  21  33
ENDBRANCH  15  16
ENDBRANCH  10  15
BRANCH  12  35
ATOM     35  O   UNL     1      27.837  39.785   9.750  1.00  0.00    -0.385 OA
ATOM     36  H   UNL     1      27.537  39.766  10.705  1.00  0.00     0.211 HD
ENDBRANCH  12  35
BRANCH  13  37
ATOM     37  O   UNL     1      26.625  39.927   7.117  1.00  0.00    -0.387 OA
ATOM     38  H   UNL     1      27.327  39.341   6.729  1.00  0.00     0.211 HD
ENDBRANCH  13  37
BRANCH  14  39
ATOM     39  O   UNL     1      25.505  37.467   6.811  1.00  0.00    -0.387 OA
ATOM     40  H   UNL     1      25.156  37.853   5.936  1.00  0.00     0.211 HD
ENDBRANCH  14  39
ENDBRANCH   8   9
ENDBRANCH   7   8
ENDBRANCH   1   7
BRANCH   1  41
ATOM     41  C   UNL     1      20.589  35.863   7.874  1.00  0.00     0.364 C 
ATOM     42  O   UNL     1      19.524  36.307   7.437  1.00  0.00    -0.246 OA
BRANCH  41  43
ATOM     43  O   UNL     1      20.844  34.501   7.560  1.00  0.00    -0.477 OA
ATOM     44  H   UNL     1      20.835  34.272   6.539  1.00  0.00     0.296 HD
ENDBRANCH  41  43
ENDBRANCH   1  41
BRANCH   3  45
ATOM     45  O   UNL     1      22.336  39.881   9.434  1.00  0.00    -0.391 OA
ATOM     46  H   UNL     1      23.182  39.756   9.955  1.00  0.00     0.211 HD
ENDBRANCH   3  45
BRANCH   5  47
ATOM     47  C   UNL     1      21.067  36.242  12.267  1.00  0.00     0.176 C 
BRANCH  47  48
ATOM     48  O   UNL     1      20.060  35.291  12.372  1.00  0.00    -0.388 OA
ATOM     49  H   UNL     1      19.902  34.946  13.258  1.00  0.00     0.211 HD
ENDBRANCH  47  48
BRANCH  47  50
ATOM     50  C   UNL     1      22.327  35.238  12.469  1.00  0.00     0.165 C 
BRANCH  50  51
ATOM     51  O   UNL     1      21.896  34.002  12.181  1.00  0.00    -0.388 OA
ATOM     52  H   UNL     1      21.602  33.896  11.229  1.00  0.00     0.211 HD
ENDBRANCH  50  51
BRANCH  50  53
ATOM     53  C   UNL     1      23.041  35.572  13.679  1.00  0.00     0.154 C 
BRANCH  53  54
ATOM     54  N   UNL     1      24.277  34.990  14.083  1.00  0.00    -0.319 N 
ATOM     55  C   UNL     1      24.271  34.297  15.318  1.00  0.00     0.407 C 
ATOM     56  H   UNL     1      25.163  35.034  13.586  1.00  0.00     0.167 HD
ATOM     57  O   UNL     1      23.206  34.224  16.015  1.00  0.00    -0.225 OA
BRANCH  55  58
ATOM     58  O   UNL     1      25.366  33.652  15.884  1.00  0.00    -0.443 OA
BRANCH  58  59
ATOM     59  C   UNL     1      25.715  32.347  15.307  1.00  0.00     0.294 C 
BRANCH  59  60
ATOM     60  C   UNL     1      26.832  31.895  16.187  1.00  0.00     0.120 A 
ATOM     61  C   UNL     1      28.164  31.687  15.758  1.00  0.00     0.138 A 
ATOM     62  N   UNL     1      26.804  31.686  17.497  1.00  0.00    -0.132 NA
ATOM     63  N   UNL     1      28.857  31.366  16.876  1.00  0.00    -0.248 N 
ATOM     64  N   UNL     1      28.057  31.366  17.885  1.00  0.00    -0.067 NA
BRANCH  63  65
ATOM     65  C   UNL     1      30.324  31.125  16.904  1.00  0.00     0.181 C 
BRANCH  65  66
ATOM     66  C   UNL     1      30.899  32.516  16.633  1.00  0.00    -0.023 A 
ATOM     67  C   UNL     1      30.925  33.500  17.597  1.00  0.00     0.056 A 
ATOM     68  C   UNL     1      31.504  32.714  15.434  1.00  0.00     0.010 A 
ATOM     69  C   UNL     1      31.620  34.689  17.236  1.00  0.00     0.161 A 
ATOM     70  C   UNL     1      32.197  33.916  15.091  1.00  0.00     0.051 A 
ATOM     71  C   UNL     1      32.221  34.884  16.060  1.00  0.00     0.160 A 
BRANCH  69  72
ATOM     72  O   UNL     1      31.677  35.728  18.167  1.00  0.00    -0.493 OA
ATOM     73  C   UNL     1      30.502  36.432  18.586  1.00  0.00     0.278 C 
ENDBRANCH  69  72
BRANCH  71  74
ATOM     74  O   UNL     1      32.911  36.106  15.824  1.00  0.00    -0.493 OA
ATOM     75  C   UNL     1      32.255  37.112  15.024  1.00  0.00     0.278 C 
ENDBRANCH  71  74
ENDBRANCH  65  66
ENDBRANCH  63  65
ENDBRANCH  59  60
ENDBRANCH  58  59
ENDBRANCH  55  58
ENDBRANCH  53  54
ENDBRANCH  50  53
ENDBRANCH  47  50
ENDBRANCH   5  47
BRANCH   4  76
ATOM     76  N   UNL     1      21.859  38.903  12.218  1.00  0.00    -0.348 N 
ATOM     77  C   UNL     1      22.939  39.680  12.651  1.00  0.00     0.217 C 
ATOM     78  H   UNL     1      20.987  38.920  12.815  1.00  0.00     0.163 HD
ATOM     79  C   UNL     1      22.994  40.489  13.907  1.00  0.00     0.114 C 
ATOM     80  O   UNL     1      24.044  39.772  11.978  1.00  0.00    -0.275 OA
ENDBRANCH   4  76
TORSDOF 33
BEGIN_RES LYS A 131
REMARK  4 active torsions:
REMARK  status: ('A' for Active; 'I' for Inactive)
REMARK    1  A    between atoms: CA   and  CB  
REMARK    2  A    between atoms: CB   and  CG  
REMARK    3  A    between atoms: CG   and  CD  
REMARK    4  A    between atoms: CD   and  CE  
ROOT
ATOM      1  CA  LYS A 131      29.867  25.555  16.977  1.00 20.52     0.186 C 
ENDROOT
BRANCH   1   2
ATOM      2  CB  LYS A 131      28.345  25.722  17.026  1.00 20.94     0.034 C 
BRANCH   2   3
ATOM      3  CG  LYS A 131      27.599  24.419  16.781  1.00 22.96     0.005 C 
BRANCH   3   4
ATOM      4  CD  LYS A 131      26.950  23.894  18.031  1.00 24.33     0.041 C 
BRANCH   4   5
ATOM      5  CE  LYS A 131      25.610  23.257  17.679  1.00 26.91     0.338 C 
ATOM      6  NZ  LYS A 131      24.759  24.216  16.936  1.00 27.40     0.618 N 
ENDBRANCH   4   5
ENDBRANCH   3   4
ENDBRANCH   2   3
ENDBRANCH   1   2
END_RES LYS A 131
BEGIN_RES LYS A 135
REMARK  4 active torsions:
REMARK  status: ('A' for Active; 'I' for Inactive)
REMARK    5  A    between atoms: CA   and  CB  
REMARK    6  A    between atoms: CB   and  CG  
REMARK    7  A    between atoms: CG   and  CD  
REMARK    8  A    between atoms: CD   and  CE  
ROOT
ATOM      7  CA  LYS A 135      33.193  34.663   9.290  1.00 25.02     0.186 C 
ENDROOT
BRANCH   7   8
ATOM      8  CB  LYS A 135      32.060  35.360  10.034  1.00 26.63     0.034 C 
BRANCH   8   9
ATOM      9  CG  LYS A 135      30.709  34.735   9.796  1.00 29.45     0.005 C 
BRANCH   9  10
ATOM     10  CD  LYS A 135      30.466  34.532   8.309  1.00 32.00     0.041 C 
BRANCH  10  11
ATOM     11  CE  LYS A 135      29.009  34.779   7.969  1.00 34.25     0.338 C 
ATOM     12  NZ  LYS A 135      28.879  35.628   6.752  1.00 35.99     0.618 N 
ENDBRANCH  10  11
ENDBRANCH   9  10
ENDBRANCH   8   9
ENDBRANCH   7   8
END_RES LYS A 135
