REMARK VINA RESULT:    -3.831      5.058     10.525
REMARK INTER + INTRA:         -22.589
REMARK INTER:                 -11.903
REMARK INTRA:                 -10.685
REMARK UNBOUND:               -13.046
REMARK SMILES CC(=O)N[C@@H]1[C@@H](O)C[C@](OC[C@H]2O[C@@H](O[C@H]3[C@H](O)[C@@H](O)[C@H](OCCN=[N+]=[N-])O[C@@H]3CO)[C@H](O)[C@@H](O)[C@H]2O)(C(=O)O)O[C@H]1C(O)[C@H](O)CNC(=O)OCc1cn(-c2nc(C)nc(N)n2)nn1
REMARK SMILES IDX 9 1 8 2 6 3 5 4 42 5 41 6 10 7 11 8 12 9 14 10 13 11 32 12
REMARK SMILES IDX 34 13 36 14 15 15 16 16 29 17 28 18 21 19 17 20 19 21 30 22
REMARK SMILES IDX 31 23 22 25 23 26 24 27 25 28 26 29 27 30 18 31 20 33 33 35
REMARK SMILES IDX 35 37 37 39 38 41 39 42 40 43 7 45 43 47 44 48 45 50 46 51
REMARK SMILES IDX 47 53 48 54 49 55 50 57 51 58 52 59 53 60 54 61 65 62 55 63
REMARK SMILES IDX 64 64 56 65 63 66 57 67 61 68 58 69 60 70 59 71 62 72 4 75
REMARK SMILES IDX 2 76 1 78 3 79
REMARK H PARENT 31 24 18 32 20 34 33 36 35 38 37 40 40 44 7 46 44 49 46 52
REMARK H PARENT 48 56 62 73 62 74 4 77
REMARK Flexibility Score: inf
ROOT
ATOM      1  C   UNL     1      24.313  35.911  10.448  1.00  0.00     0.272 C 
ATOM      2  C   UNL     1      23.071  35.176  10.817  1.00  0.00     0.113 C 
ATOM      3  C   UNL     1      21.934  35.523   9.905  1.00  0.00     0.145 C 
ATOM      4  C   UNL     1      21.733  37.016   9.934  1.00  0.00     0.142 C 
ATOM      5  C   UNL     1      23.026  37.790   9.825  1.00  0.00     0.178 C 
ATOM      6  O   UNL     1      24.039  37.301  10.559  1.00  0.00    -0.332 OA
ENDROOT
BRANCH   1   7
ATOM      7  O   UNL     1      24.958  35.577   9.385  1.00  0.00    -0.338 OA
BRANCH   7   8
ATOM      8  C   UNL     1      25.575  36.029   8.363  1.00  0.00     0.199 C 
BRANCH   8   9
ATOM      9  C   UNL     1      27.004  35.848   7.981  1.00  0.00     0.179 C 
ATOM     10  C   UNL     1      28.985  36.764   7.560  1.00  0.00     0.282 C 
ATOM     11  O   UNL     1      27.733  36.971   8.202  1.00  0.00    -0.341 OA
ATOM     12  C   UNL     1      29.746  35.895   8.528  1.00  0.00     0.202 C 
ATOM     13  C   UNL     1      29.073  34.548   8.617  1.00  0.00     0.179 C 
ATOM     14  C   UNL     1      27.625  34.532   8.321  1.00  0.00     0.177 C 
BRANCH  10  15
ATOM     15  O   UNL     1      29.631  37.949   7.332  1.00  0.00    -0.341 OA
BRANCH  15  16
ATOM     16  C   UNL     1      28.789  38.995   6.997  1.00  0.00     0.184 C 
ATOM     17  C   UNL     1      28.901  39.477   5.590  1.00  0.00     0.178 C 
ATOM     18  O   UNL     1      29.137  40.841   5.493  1.00  0.00    -0.341 OA
ATOM     19  C   UNL     1      28.252  41.628   6.219  1.00  0.00     0.281 C 
ATOM     20  C   UNL     1      29.185  40.143   7.945  1.00  0.00     0.180 C 
ATOM     21  C   UNL     1      28.226  41.278   7.677  1.00  0.00     0.202 C 
BRANCH  17  22
ATOM     22  C   UNL     1      27.776  39.050   4.685  1.00  0.00     0.191 C 
BRANCH  22  23
ATOM     23  O   UNL     1      26.773  38.504   5.516  1.00  0.00    -0.394 OA
ATOM     24  H   UNL     1      26.496  39.122   6.227  1.00  0.00     0.210 HD
ENDBRANCH  22  23
ENDBRANCH  17  22
BRANCH  19  25
ATOM     25  O   UNL     1      26.975  41.607   5.731  1.00  0.00    -0.350 OA
BRANCH  25  26
ATOM     26  C   UNL     1      26.131  42.600   6.128  1.00  0.00     0.169 C 
BRANCH  26  27
ATOM     27  C   UNL     1      25.069  42.931   5.116  1.00  0.00     0.119 C 
BRANCH  27  28
ATOM     28  N   UNL     1      23.761  42.816   5.777  1.00  0.00    -0.092 NA
ATOM     29  N   UNL     1      23.676  43.269   6.916  1.00  0.00     0.001 N 
ATOM     30  N   UNL     1      23.404  43.223   8.135  1.00  0.00    -0.003 NA
ENDBRANCH  27  28
ENDBRANCH  26  27
ENDBRANCH  25  26
ENDBRANCH  19  25
BRANCH  20  31
ATOM     31  O   UNL     1      29.148  39.704   9.251  1.00  0.00    -0.387 OA
ATOM     32  H   UNL     1      28.902  40.442   9.875  1.00  0.00     0.211 HD
ENDBRANCH  20  31
BRANCH  21  33
ATOM     33  O   UNL     1      28.625  42.349   8.478  1.00  0.00    -0.385 OA
ATOM     34  H   UNL     1      28.467  42.158   9.436  1.00  0.00     0.211 HD
ENDBRANCH  21  33
ENDBRANCH  15  16
ENDBRANCH  10  15
BRANCH  12  35
ATOM     35  O   UNL     1      31.091  35.759   8.191  1.00  0.00    -0.385 OA
ATOM     36  H   UNL     1      31.233  34.828   7.887  1.00  0.00     0.211 HD
ENDBRANCH  12  35
BRANCH  13  37
ATOM     37  O   UNL     1      29.400  34.014   9.866  1.00  0.00    -0.387 OA
ATOM     38  H   UNL     1      30.271  33.544   9.867  1.00  0.00     0.211 HD
ENDBRANCH  13  37
BRANCH  14  39
ATOM     39  O   UNL     1      26.950  33.791   9.286  1.00  0.00    -0.387 OA
ATOM     40  H   UNL     1      26.314  34.433   9.726  1.00  0.00     0.211 HD
ENDBRANCH  14  39
ENDBRANCH   8   9
ENDBRANCH   7   8
ENDBRANCH   1   7
BRANCH   1  41
ATOM     41  C   UNL     1      25.195  35.732  11.716  1.00  0.00     0.364 C 
ATOM     42  O   UNL     1      25.087  36.596  12.577  1.00  0.00    -0.246 OA
BRANCH  41  43
ATOM     43  O   UNL     1      26.029  34.664  11.827  1.00  0.00    -0.477 OA
ATOM     44  H   UNL     1      25.757  33.769  12.259  1.00  0.00     0.296 HD
ENDBRANCH  41  43
ENDBRANCH   1  41
BRANCH   3  45
ATOM     45  O   UNL     1      22.132  35.169   8.590  1.00  0.00    -0.391 OA
ATOM     46  H   UNL     1      21.397  34.650   8.221  1.00  0.00     0.211 HD
ENDBRANCH   3  45
BRANCH   5  47
ATOM     47  C   UNL     1      23.390  38.156   8.406  1.00  0.00     0.176 C 
BRANCH  47  48
ATOM     48  O   UNL     1      22.287  38.058   7.576  1.00  0.00    -0.388 OA
ATOM     49  H   UNL     1      21.649  38.791   7.640  1.00  0.00     0.211 HD
ENDBRANCH  47  48
BRANCH  47  50
ATOM     50  C   UNL     1      23.964  39.537   8.386  1.00  0.00     0.165 C 
BRANCH  50  51
ATOM     51  O   UNL     1      23.589  40.161   7.182  1.00  0.00    -0.388 OA
ATOM     52  H   UNL     1      22.803  39.708   6.831  1.00  0.00     0.211 HD
ENDBRANCH  50  51
BRANCH  50  53
ATOM     53  C   UNL     1      25.448  39.615   8.502  1.00  0.00     0.154 C 
BRANCH  53  54
ATOM     54  N   UNL     1      25.914  39.339   9.843  1.00  0.00    -0.319 N 
ATOM     55  C   UNL     1      26.066  40.314  10.847  1.00  0.00     0.407 C 
ATOM     56  H   UNL     1      26.168  38.346  10.122  1.00  0.00     0.167 HD
ATOM     57  O   UNL     1      25.795  41.497  10.620  1.00  0.00    -0.225 OA
BRANCH  55  58
ATOM     58  O   UNL     1      26.523  39.994  12.122  1.00  0.00    -0.443 OA
BRANCH  58  59
ATOM     59  C   UNL     1      27.871  39.744  12.432  1.00  0.00     0.294 C 
BRANCH  59  60
ATOM     60  C   UNL     1      28.183  38.284  12.409  1.00  0.00     0.121 A 
ATOM     61  C   UNL     1      28.341  37.464  13.507  1.00  0.00     0.148 A 
ATOM     62  N   UNL     1      28.368  37.505  11.325  1.00  0.00    -0.131 NA
ATOM     63  N   UNL     1      28.615  36.225  13.064  1.00  0.00    -0.185 N 
ATOM     64  N   UNL     1      28.624  36.280  11.748  1.00  0.00    -0.059 NA
BRANCH  63  65
ATOM     65  C   UNL     1      28.840  35.108  13.912  1.00  0.00     0.257 A 
ATOM     66  N   UNL     1      27.787  34.440  14.420  1.00  0.00    -0.175 NA
ATOM     67  N   UNL     1      30.061  34.657  14.251  1.00  0.00    -0.196 NA
ATOM     68  C   UNL     1      27.943  33.364  15.234  1.00  0.00     0.225 A 
ATOM     69  C   UNL     1      30.254  33.602  15.049  1.00  0.00     0.133 A 
ATOM     70  N   UNL     1      29.196  32.961  15.537  1.00  0.00    -0.198 NA
ATOM     71  C   UNL     1      31.640  33.133  15.402  1.00  0.00     0.090 C 
BRANCH  68  72
ATOM     72  N   UNL     1      26.804  32.698  15.739  1.00  0.00    -0.368 N 
ATOM     73  H   UNL     1      25.849  32.918  15.394  1.00  0.00     0.159 HD
ATOM     74  H   UNL     1      26.900  31.969  16.472  1.00  0.00     0.159 HD
ENDBRANCH  68  72
ENDBRANCH  63  65
ENDBRANCH  59  60
ENDBRANCH  58  59
ENDBRANCH  55  58
ENDBRANCH  53  54
ENDBRANCH  50  53
ENDBRANCH  47  50
ENDBRANCH   5  47
BRANCH   4  75
ATOM     75  N   UNL     1      21.044  37.367  11.157  1.00  0.00    -0.348 N 
ATOM     76  C   UNL     1      19.967  38.299  11.146  1.00  0.00     0.217 C 
ATOM     77  H   UNL     1      21.304  36.957  12.089  1.00  0.00     0.163 HD
ATOM     78  C   UNL     1      19.279  38.645  12.397  1.00  0.00     0.114 C 
ATOM     79  O   UNL     1      19.613  38.819  10.067  1.00  0.00    -0.275 OA
ENDBRANCH   4  75
TORSDOF 31
BEGIN_RES LYS A 131
REMARK  4 active torsions:
REMARK  status: ('A' for Active; 'I' for Inactive)
REMARK    1  A    between atoms: CA   and  CB  
REMARK    2  A    between atoms: CB   and  CG  
REMARK    3  A    between atoms: CG   and  CD  
REMARK    4  A    between atoms: CD   and  CE  
ROOT
ATOM      1  CA  LYS A 131      29.867  25.555  16.977  1.00 20.52     0.186 C 
ENDROOT
BRANCH   1   2
ATOM      2  CB  LYS A 131      28.345  25.722  17.026  1.00 20.94     0.034 C 
BRANCH   2   3
ATOM      3  CG  LYS A 131      27.601  24.401  16.902  1.00 22.96     0.005 C 
BRANCH   3   4
ATOM      4  CD  LYS A 131      26.614  24.200  18.018  1.00 24.33     0.041 C 
BRANCH   4   5
ATOM      5  CE  LYS A 131      25.304  24.901  17.671  1.00 26.91     0.338 C 
ATOM      6  NZ  LYS A 131      24.436  24.010  16.865  1.00 27.40     0.618 N 
ENDBRANCH   4   5
ENDBRANCH   3   4
ENDBRANCH   2   3
ENDBRANCH   1   2
END_RES LYS A 131
BEGIN_RES LYS A 135
REMARK  4 active torsions:
REMARK  status: ('A' for Active; 'I' for Inactive)
REMARK    5  A    between atoms: CA   and  CB  
REMARK    6  A    between atoms: CB   and  CG  
REMARK    7  A    between atoms: CG   and  CD  
REMARK    8  A    between atoms: CD   and  CE  
ROOT
ATOM      7  CA  LYS A 135      33.193  34.663   9.290  1.00 25.02     0.186 C 
ENDROOT
BRANCH   7   8
ATOM      8  CB  LYS A 135      32.060  35.360  10.034  1.00 26.63     0.034 C 
BRANCH   8   9
ATOM      9  CG  LYS A 135      32.215  35.329  11.533  1.00 29.45     0.005 C 
BRANCH   9  10
ATOM     10  CD  LYS A 135      32.266  36.741  12.096  1.00 32.00     0.041 C 
BRANCH  10  11
ATOM     11  CE  LYS A 135      31.912  37.755  11.025  1.00 34.25     0.338 C 
ATOM     12  NZ  LYS A 135      31.545  39.066  11.628  1.00 35.99     0.618 N 
ENDBRANCH  10  11
ENDBRANCH   9  10
ENDBRANCH   8   9
ENDBRANCH   7   8
END_RES LYS A 135
