REMARK VINA RESULT:    -4.462      3.175      8.891
REMARK INTER + INTRA:         -24.765
REMARK INTER:                 -14.686
REMARK INTRA:                 -10.079
REMARK UNBOUND:               -13.000
REMARK SMILES CC(=O)N[C@@H]1[C@@H](O)C[C@](OC[C@H]2O[C@@H](O[C@H]3[C@H](O)[C@@H](O)[C@H](OCCN=[N+]=[N-])O[C@@H]3CO)[C@H](O)[C@@H](O)[C@H]2O)(C(=O)O)O[C@H]1C(O)[C@H](O)CNC(=O)OCc1cn(C(C)CC(=O)c2ccccc2)nn1
REMARK SMILES IDX 43 1 42 2 9 3 8 4 41 5 6 6 5 7 10 8 11 9 12 10 14 11 13 12
REMARK SMILES IDX 32 13 34 14 36 15 15 16 16 17 29 18 28 19 21 20 17 21 19 22
REMARK SMILES IDX 30 23 31 24 22 26 23 27 24 28 25 29 26 30 27 31 18 32 20 34
REMARK SMILES IDX 33 36 35 38 37 40 38 42 39 43 40 44 7 46 4 48 2 49 1 51 3 52
REMARK SMILES IDX 44 53 45 55 46 56 47 58 48 59 49 60 50 62 51 63 52 64 53 65
REMARK SMILES IDX 54 66 68 67 55 68 67 69 56 70 57 71 58 72 59 73 60 74 61 75
REMARK SMILES IDX 62 76 66 77 63 78 65 79 64 80
REMARK H PARENT 31 25 18 33 20 35 33 37 35 39 37 41 40 45 7 47 4 50 44 54
REMARK H PARENT 46 57 48 61
REMARK Flexibility Score: inf
ROOT
ATOM      1  C   UNL     1      26.911  39.125   9.090  1.00  0.00     0.176 C 
ENDROOT
BRANCH   1   2
ATOM      2  C   UNL     1      27.984  38.492   8.319  1.00  0.00     0.178 C 
ATOM      3  C   UNL     1      28.709  36.344   8.972  1.00  0.00     0.272 C 
ATOM      4  C   UNL     1      30.114  36.579   8.535  1.00  0.00     0.113 C 
ATOM      5  O   UNL     1      27.920  37.174   8.093  1.00  0.00    -0.332 OA
ATOM      6  C   UNL     1      30.343  38.028   8.149  1.00  0.00     0.145 C 
ATOM      7  C   UNL     1      29.378  38.929   8.824  1.00  0.00     0.142 C 
BRANCH   3   8
ATOM      8  O   UNL     1      28.302  36.579  10.185  1.00  0.00    -0.338 OA
BRANCH   8   9
ATOM      9  C   UNL     1      28.540  36.196  11.389  1.00  0.00     0.199 C 
BRANCH   9  10
ATOM     10  C   UNL     1      28.057  34.960  12.077  1.00  0.00     0.179 C 
ATOM     11  C   UNL     1      27.977  34.194  14.315  1.00  0.00     0.282 C 
ATOM     12  O   UNL     1      28.487  34.969  13.343  1.00  0.00    -0.341 OA
ATOM     13  C   UNL     1      26.491  34.311  14.387  1.00  0.00     0.202 C 
ATOM     14  C   UNL     1      25.842  34.318  13.078  1.00  0.00     0.179 C 
ATOM     15  C   UNL     1      26.656  34.550  11.850  1.00  0.00     0.177 C 
BRANCH  11  16
ATOM     16  O   UNL     1      28.574  34.668  15.515  1.00  0.00    -0.341 OA
BRANCH  16  17
ATOM     17  C   UNL     1      29.658  33.883  15.823  1.00  0.00     0.184 C 
ATOM     18  C   UNL     1      29.309  32.424  15.788  1.00  0.00     0.178 C 
ATOM     19  O   UNL     1      28.391  32.089  16.771  1.00  0.00    -0.341 OA
ATOM     20  C   UNL     1      28.705  32.419  18.053  1.00  0.00     0.281 C 
ATOM     21  C   UNL     1      30.137  34.251  17.243  1.00  0.00     0.180 C 
ATOM     22  C   UNL     1      29.157  33.821  18.272  1.00  0.00     0.202 C 
BRANCH  18  23
ATOM     23  C   UNL     1      30.547  31.552  15.854  1.00  0.00     0.191 C 
BRANCH  23  24
ATOM     24  O   UNL     1      31.563  32.003  15.020  1.00  0.00    -0.394 OA
ATOM     25  H   UNL     1      32.057  32.734  15.478  1.00  0.00     0.210 HD
ENDBRANCH  23  24
ENDBRANCH  18  23
BRANCH  20  26
ATOM     26  O   UNL     1      29.529  31.530  18.696  1.00  0.00    -0.350 OA
BRANCH  26  27
ATOM     27  C   UNL     1      29.698  31.749  20.036  1.00  0.00     0.169 C 
BRANCH  27  28
ATOM     28  C   UNL     1      31.122  31.559  20.485  1.00  0.00     0.119 C 
BRANCH  28  29
ATOM     29  N   UNL     1      31.530  32.737  21.230  1.00  0.00    -0.092 NA
ATOM     30  N   UNL     1      32.238  33.581  20.687  1.00  0.00     0.001 N 
ATOM     31  N   UNL     1      32.772  34.506  20.072  1.00  0.00    -0.003 NA
ENDBRANCH  28  29
ENDBRANCH  27  28
ENDBRANCH  26  27
ENDBRANCH  20  26
BRANCH  21  32
ATOM     32  O   UNL     1      31.423  33.776  17.467  1.00  0.00    -0.387 OA
ATOM     33  H   UNL     1      31.646  33.719  18.427  1.00  0.00     0.211 HD
ENDBRANCH  21  32
BRANCH  22  34
ATOM     34  O   UNL     1      28.102  34.725  18.409  1.00  0.00    -0.385 OA
ATOM     35  H   UNL     1      28.408  35.391  19.076  1.00  0.00     0.211 HD
ENDBRANCH  22  34
ENDBRANCH  16  17
ENDBRANCH  11  16
BRANCH  13  36
ATOM     36  O   UNL     1      25.960  33.225  15.144  1.00  0.00    -0.385 OA
ATOM     37  H   UNL     1      25.333  33.651  15.786  1.00  0.00     0.211 HD
ENDBRANCH  13  36
BRANCH  14  38
ATOM     38  O   UNL     1      24.779  35.265  13.128  1.00  0.00    -0.387 OA
ATOM     39  H   UNL     1      24.878  35.956  12.433  1.00  0.00     0.211 HD
ENDBRANCH  14  38
BRANCH  15  40
ATOM     40  O   UNL     1      25.923  35.349  10.995  1.00  0.00    -0.387 OA
ATOM     41  H   UNL     1      25.953  35.160  10.054  1.00  0.00     0.211 HD
ENDBRANCH  15  40
ENDBRANCH   9  10
ENDBRANCH   8   9
ENDBRANCH   3   8
BRANCH   3  42
ATOM     42  C   UNL     1      28.323  34.944   8.497  1.00  0.00     0.364 C 
ATOM     43  O   UNL     1      29.205  34.100   8.300  1.00  0.00    -0.246 OA
BRANCH  42  44
ATOM     44  O   UNL     1      27.004  34.610   8.289  1.00  0.00    -0.477 OA
ATOM     45  H   UNL     1      26.764  33.626   8.313  1.00  0.00     0.296 HD
ENDBRANCH  42  44
ENDBRANCH   3  42
BRANCH   6  46
ATOM     46  O   UNL     1      31.668  38.401   8.338  1.00  0.00    -0.391 OA
ATOM     47  H   UNL     1      31.700  39.414   8.375  1.00  0.00     0.211 HD
ENDBRANCH   6  46
BRANCH   7  48
ATOM     48  N   UNL     1      29.561  40.304   8.370  1.00  0.00    -0.348 N 
ATOM     49  C   UNL     1      30.341  41.258   9.079  1.00  0.00     0.217 C 
ATOM     50  H   UNL     1      29.105  40.604   7.490  1.00  0.00     0.163 HD
ATOM     51  C   UNL     1      30.521  42.637   8.621  1.00  0.00     0.114 C 
ATOM     52  O   UNL     1      30.909  40.896  10.167  1.00  0.00    -0.275 OA
ENDBRANCH   7  48
ENDBRANCH   1   2
BRANCH   1  53
ATOM     53  O   UNL     1      27.191  39.268  10.470  1.00  0.00    -0.388 OA
ATOM     54  H   UNL     1      26.780  40.145  10.744  1.00  0.00     0.211 HD
ENDBRANCH   1  53
BRANCH   1  55
ATOM     55  C   UNL     1      25.531  38.508   9.010  1.00  0.00     0.165 C 
BRANCH  55  56
ATOM     56  O   UNL     1      25.509  37.152   9.039  1.00  0.00    -0.388 OA
ATOM     57  H   UNL     1      24.584  36.828   8.926  1.00  0.00     0.211 HD
ENDBRANCH  55  56
BRANCH  55  58
ATOM     58  C   UNL     1      24.910  39.015   7.700  1.00  0.00     0.154 C 
BRANCH  58  59
ATOM     59  N   UNL     1      23.664  38.331   7.434  1.00  0.00    -0.319 N 
ATOM     60  C   UNL     1      22.437  38.554   8.097  1.00  0.00     0.407 C 
ATOM     61  H   UNL     1      23.620  37.587   6.669  1.00  0.00     0.167 HD
ATOM     62  O   UNL     1      22.332  39.436   8.971  1.00  0.00    -0.225 OA
BRANCH  60  63
ATOM     63  O   UNL     1      21.292  37.789   7.797  1.00  0.00    -0.443 OA
BRANCH  63  64
ATOM     64  C   UNL     1      21.460  36.375   7.558  1.00  0.00     0.294 C 
BRANCH  64  65
ATOM     65  C   UNL     1      21.993  35.857   8.871  1.00  0.00     0.120 A 
ATOM     66  C   UNL     1      21.173  35.650   9.998  1.00  0.00     0.138 A 
ATOM     67  N   UNL     1      23.214  35.555   9.265  1.00  0.00    -0.132 NA
ATOM     68  N   UNL     1      21.939  35.238  11.019  1.00  0.00    -0.249 N 
ATOM     69  N   UNL     1      23.166  35.184  10.562  1.00  0.00    -0.067 NA
BRANCH  68  70
ATOM     70  C   UNL     1      21.420  34.951  12.359  1.00  0.00     0.114 C 
ATOM     71  C   UNL     1      20.283  35.880  12.645  1.00  0.00     0.034 C 
BRANCH  70  72
ATOM     72  C   UNL     1      21.124  33.496  12.509  1.00  0.00     0.108 C 
BRANCH  72  73
ATOM     73  C   UNL     1      22.210  32.891  13.326  1.00  0.00     0.164 C 
ATOM     74  O   UNL     1      22.781  33.530  14.212  1.00  0.00    -0.294 OA
BRANCH  73  75
ATOM     75  C   UNL     1      22.577  31.497  13.034  1.00  0.00     0.018 A 
ATOM     76  C   UNL     1      23.827  31.023  13.194  1.00  0.00     0.012 A 
ATOM     77  C   UNL     1      21.549  30.656  12.577  1.00  0.00     0.012 A 
ATOM     78  C   UNL     1      24.116  29.677  12.908  1.00  0.00     0.001 A 
ATOM     79  C   UNL     1      21.851  29.353  12.304  1.00  0.00     0.001 A 
ATOM     80  C   UNL     1      23.114  28.848  12.461  1.00  0.00     0.000 A 
ENDBRANCH  73  75
ENDBRANCH  72  73
ENDBRANCH  70  72
ENDBRANCH  68  70
ENDBRANCH  64  65
ENDBRANCH  63  64
ENDBRANCH  60  63
ENDBRANCH  58  59
ENDBRANCH  55  58
ENDBRANCH   1  55
TORSDOF 33
BEGIN_RES LYS A 131
REMARK  4 active torsions:
REMARK  status: ('A' for Active; 'I' for Inactive)
REMARK    1  A    between atoms: CA   and  CB  
REMARK    2  A    between atoms: CB   and  CG  
REMARK    3  A    between atoms: CG   and  CD  
REMARK    4  A    between atoms: CD   and  CE  
ROOT
ATOM      1  CA  LYS A 131      29.867  25.555  16.977  1.00 20.52     0.186 C 
ENDROOT
BRANCH   1   2
ATOM      2  CB  LYS A 131      28.345  25.722  17.026  1.00 20.94     0.034 C 
BRANCH   2   3
ATOM      3  CG  LYS A 131      27.604  24.394  17.000  1.00 22.96     0.005 C 
BRANCH   3   4
ATOM      4  CD  LYS A 131      26.113  24.579  16.934  1.00 24.33     0.041 C 
BRANCH   4   5
ATOM      5  CE  LYS A 131      25.426  23.444  17.687  1.00 26.91     0.338 C 
ATOM      6  NZ  LYS A 131      25.877  23.410  19.099  1.00 27.40     0.618 N 
ENDBRANCH   4   5
ENDBRANCH   3   4
ENDBRANCH   2   3
ENDBRANCH   1   2
END_RES LYS A 131
BEGIN_RES LYS A 135
REMARK  4 active torsions:
REMARK  status: ('A' for Active; 'I' for Inactive)
REMARK    5  A    between atoms: CA   and  CB  
REMARK    6  A    between atoms: CB   and  CG  
REMARK    7  A    between atoms: CG   and  CD  
REMARK    8  A    between atoms: CD   and  CE  
ROOT
ATOM      7  CA  LYS A 135      33.193  34.663   9.290  1.00 25.02     0.186 C 
ENDROOT
BRANCH   7   8
ATOM      8  CB  LYS A 135      32.060  35.360  10.034  1.00 26.63     0.034 C 
BRANCH   8   9
ATOM      9  CG  LYS A 135      32.495  36.010  11.322  1.00 29.45     0.005 C 
BRANCH   9  10
ATOM     10  CD  LYS A 135      31.938  35.254  12.519  1.00 32.00     0.041 C 
BRANCH  10  11
ATOM     11  CE  LYS A 135      32.040  36.098  13.776  1.00 34.25     0.338 C 
ATOM     12  NZ  LYS A 135      32.842  35.406  14.822  1.00 35.99     0.618 N 
ENDBRANCH  10  11
ENDBRANCH   9  10
ENDBRANCH   8   9
ENDBRANCH   7   8
END_RES LYS A 135
