REMARK VINA RESULT:    -3.295      3.223      7.033
REMARK INTER + INTRA:         -22.162
REMARK INTER:                  -7.253
REMARK INTRA:                 -14.909
REMARK UNBOUND:               -13.473
REMARK SMILES CC(=O)N[C@@H]1[C@@H](O)C[C@](OC[C@H]2O[C@@H](O[C@H]3[C@H](O)[C@@H](O)[C@H](OCCN=[N+]=[N-])O[C@@H]3CO)[C@H](O)[C@@H](O)[C@H]2O)(C(=O)O)O[C@H]1C(O)[C@H](O)CNC(=O)OCc1cn(CCOC(C)=O)nn1
REMARK SMILES IDX 43 1 42 2 9 3 8 4 41 5 6 6 5 7 10 8 11 9 12 10 14 11 13 12
REMARK SMILES IDX 32 13 34 14 36 15 15 16 16 17 29 18 28 19 21 20 17 21 19 22
REMARK SMILES IDX 30 23 31 24 22 26 23 27 24 28 25 29 26 30 27 31 18 32 20 34
REMARK SMILES IDX 33 36 35 38 37 40 38 42 39 43 40 44 7 46 4 48 2 49 1 51 3 52
REMARK SMILES IDX 44 53 45 55 46 56 47 58 48 59 49 60 50 62 51 63 52 64 53 65
REMARK SMILES IDX 54 66 63 67 55 68 62 69 56 70 57 71 58 72 59 73 61 74 60 75
REMARK H PARENT 31 25 18 33 20 35 33 37 35 39 37 41 40 45 7 47 4 50 44 54
REMARK H PARENT 46 57 48 61
REMARK Flexibility Score: inf
ROOT
ATOM      1  C   UNL     1      28.944  35.994  16.938  1.00  0.00     0.176 C 
ENDROOT
BRANCH   1   2
ATOM      2  C   UNL     1      30.085  35.098  16.530  1.00  0.00     0.178 C 
ATOM      3  C   UNL     1      31.994  35.201  15.150  1.00  0.00     0.272 C 
ATOM      4  C   UNL     1      32.180  33.840  15.775  1.00  0.00     0.113 C 
ATOM      5  O   UNL     1      30.941  35.925  15.772  1.00  0.00    -0.332 OA
ATOM      6  C   UNL     1      30.952  33.003  15.733  1.00  0.00     0.145 C 
ATOM      7  C   UNL     1      29.732  33.962  15.622  1.00  0.00     0.142 C 
BRANCH   3   8
ATOM      8  O   UNL     1      31.761  35.253  13.861  1.00  0.00    -0.338 OA
BRANCH   8   9
ATOM      9  C   UNL     1      31.952  36.181  12.965  1.00  0.00     0.199 C 
BRANCH   9  10
ATOM     10  C   UNL     1      30.965  37.158  12.486  1.00  0.00     0.179 C 
ATOM     11  C   UNL     1      28.680  37.402  12.306  1.00  0.00     0.282 C 
ATOM     12  O   UNL     1      29.691  36.819  13.085  1.00  0.00    -0.341 OA
ATOM     13  C   UNL     1      28.968  38.775  11.863  1.00  0.00     0.202 C 
ATOM     14  C   UNL     1      30.178  39.442  12.416  1.00  0.00     0.179 C 
ATOM     15  C   UNL     1      31.173  38.561  13.087  1.00  0.00     0.177 C 
BRANCH  11  16
ATOM     16  O   UNL     1      27.492  37.210  12.991  1.00  0.00    -0.341 OA
BRANCH  16  17
ATOM     17  C   UNL     1      26.387  37.213  12.180  1.00  0.00     0.184 C 
ATOM     18  C   UNL     1      25.159  36.852  12.985  1.00  0.00     0.178 C 
ATOM     19  O   UNL     1      24.088  36.917  12.083  1.00  0.00    -0.341 OA
ATOM     20  C   UNL     1      24.088  35.808  11.291  1.00  0.00     0.281 C 
ATOM     21  C   UNL     1      26.536  36.253  11.011  1.00  0.00     0.180 C 
ATOM     22  C   UNL     1      25.448  35.229  10.979  1.00  0.00     0.202 C 
BRANCH  18  23
ATOM     23  C   UNL     1      24.932  37.882  14.076  1.00  0.00     0.191 C 
BRANCH  23  24
ATOM     24  O   UNL     1      25.690  37.563  15.187  1.00  0.00    -0.394 OA
ATOM     25  H   UNL     1      26.610  37.921  15.004  1.00  0.00     0.210 HD
ENDBRANCH  23  24
ENDBRANCH  18  23
BRANCH  20  26
ATOM     26  O   UNL     1      23.400  36.132  10.113  1.00  0.00    -0.350 OA
BRANCH  26  27
ATOM     27  C   UNL     1      22.503  37.173  10.321  1.00  0.00     0.169 C 
BRANCH  27  28
ATOM     28  C   UNL     1      21.145  36.646   9.843  1.00  0.00     0.119 C 
BRANCH  28  29
ATOM     29  N   UNL     1      20.392  36.219  11.009  1.00  0.00    -0.092 NA
ATOM     30  N   UNL     1      20.443  35.061  11.444  1.00  0.00     0.001 N 
ATOM     31  N   UNL     1      20.185  33.859  11.639  1.00  0.00    -0.003 NA
ENDBRANCH  28  29
ENDBRANCH  27  28
ENDBRANCH  26  27
ENDBRANCH  20  26
BRANCH  21  32
ATOM     32  O   UNL     1      26.655  36.900   9.788  1.00  0.00    -0.387 OA
ATOM     33  H   UNL     1      26.007  37.635   9.660  1.00  0.00     0.211 HD
ENDBRANCH  21  32
BRANCH  22  34
ATOM     34  O   UNL     1      25.772  34.139  11.762  1.00  0.00    -0.385 OA
ATOM     35  H   UNL     1      25.495  33.310  11.275  1.00  0.00     0.211 HD
ENDBRANCH  22  34
ENDBRANCH  16  17
ENDBRANCH  11  16
BRANCH  13  36
ATOM     36  O   UNL     1      28.922  38.891  10.448  1.00  0.00    -0.385 OA
ATOM     37  H   UNL     1      28.062  39.245  10.140  1.00  0.00     0.211 HD
ENDBRANCH  13  36
BRANCH  14  38
ATOM     38  O   UNL     1      29.839  40.466  13.314  1.00  0.00    -0.387 OA
ATOM     39  H   UNL     1      30.074  40.154  14.238  1.00  0.00     0.211 HD
ENDBRANCH  14  38
BRANCH  15  40
ATOM     40  O   UNL     1      30.797  38.488  14.456  1.00  0.00    -0.387 OA
ATOM     41  H   UNL     1      31.095  37.643  14.851  1.00  0.00     0.211 HD
ENDBRANCH  15  40
ENDBRANCH   9  10
ENDBRANCH   8   9
ENDBRANCH   3   8
BRANCH   3  42
ATOM     42  C   UNL     1      33.174  35.994  15.595  1.00  0.00     0.364 C 
ATOM     43  O   UNL     1      34.360  35.613  15.591  1.00  0.00    -0.246 OA
BRANCH  42  44
ATOM     44  O   UNL     1      32.989  37.307  16.079  1.00  0.00    -0.477 OA
ATOM     45  H   UNL     1      32.238  37.862  15.696  1.00  0.00     0.296 HD
ENDBRANCH  42  44
ENDBRANCH   3  42
BRANCH   6  46
ATOM     46  O   UNL     1      30.914  32.050  14.741  1.00  0.00    -0.391 OA
ATOM     47  H   UNL     1      31.453  32.287  13.943  1.00  0.00     0.211 HD
ENDBRANCH   6  46
BRANCH   7  48
ATOM     48  N   UNL     1      28.540  33.234  15.902  1.00  0.00    -0.348 N 
ATOM     49  C   UNL     1      27.354  33.406  15.143  1.00  0.00     0.217 C 
ATOM     50  H   UNL     1      28.538  32.539  16.666  1.00  0.00     0.163 HD
ATOM     51  C   UNL     1      26.106  32.639  15.444  1.00  0.00     0.114 C 
ATOM     52  O   UNL     1      27.297  34.220  14.171  1.00  0.00    -0.275 OA
ENDBRANCH   7  48
ENDBRANCH   1   2
BRANCH   1  53
ATOM     53  O   UNL     1      28.555  36.646  15.725  1.00  0.00    -0.388 OA
ATOM     54  H   UNL     1      29.061  37.477  15.613  1.00  0.00     0.211 HD
ENDBRANCH   1  53
BRANCH   1  55
ATOM     55  C   UNL     1      29.450  37.122  17.805  1.00  0.00     0.165 C 
BRANCH  55  56
ATOM     56  O   UNL     1      29.912  38.162  16.982  1.00  0.00    -0.388 OA
ATOM     57  H   UNL     1      29.287  38.912  17.059  1.00  0.00     0.211 HD
ENDBRANCH  55  56
BRANCH  55  58
ATOM     58  C   UNL     1      30.492  36.691  18.789  1.00  0.00     0.154 C 
BRANCH  58  59
ATOM     59  N   UNL     1      31.595  37.584  18.953  1.00  0.00    -0.319 N 
ATOM     60  C   UNL     1      31.643  38.590  19.937  1.00  0.00     0.407 C 
ATOM     61  H   UNL     1      32.456  37.530  18.325  1.00  0.00     0.167 HD
ATOM     62  O   UNL     1      30.722  38.776  20.760  1.00  0.00    -0.225 OA
BRANCH  60  63
ATOM     63  O   UNL     1      32.740  39.457  20.056  1.00  0.00    -0.443 OA
BRANCH  63  64
ATOM     64  C   UNL     1      33.369  40.033  18.947  1.00  0.00     0.294 C 
BRANCH  64  65
ATOM     65  C   UNL     1      32.387  40.461  17.912  1.00  0.00     0.120 A 
ATOM     66  C   UNL     1      31.433  41.443  18.116  1.00  0.00     0.138 A 
ATOM     67  N   UNL     1      32.217  40.047  16.660  1.00  0.00    -0.132 NA
ATOM     68  N   UNL     1      30.737  41.571  16.982  1.00  0.00    -0.249 N 
ATOM     69  N   UNL     1      31.231  40.712  16.109  1.00  0.00    -0.067 NA
BRANCH  68  70
ATOM     70  C   UNL     1      29.611  42.482  16.729  1.00  0.00     0.187 C 
BRANCH  70  71
ATOM     71  C   UNL     1      28.410  42.048  17.539  1.00  0.00     0.256 C 
BRANCH  71  72
ATOM     72  O   UNL     1      28.102  40.701  17.197  1.00  0.00    -0.464 OA
BRANCH  72  73
ATOM     73  C   UNL     1      27.508  40.401  15.975  1.00  0.00     0.302 C 
ATOM     74  O   UNL     1      28.008  39.479  15.288  1.00  0.00    -0.253 OA
ATOM     75  C   UNL     1      26.306  41.140  15.465  1.00  0.00     0.139 C 
ENDBRANCH  72  73
ENDBRANCH  71  72
ENDBRANCH  70  71
ENDBRANCH  68  70
ENDBRANCH  64  65
ENDBRANCH  63  64
ENDBRANCH  60  63
ENDBRANCH  58  59
ENDBRANCH  55  58
ENDBRANCH   1  55
TORSDOF 33
BEGIN_RES LYS A 131
REMARK  4 active torsions:
REMARK  status: ('A' for Active; 'I' for Inactive)
REMARK    1  A    between atoms: CA   and  CB  
REMARK    2  A    between atoms: CB   and  CG  
REMARK    3  A    between atoms: CG   and  CD  
REMARK    4  A    between atoms: CD   and  CE  
ROOT
ATOM      1  CA  LYS A 131      29.867  25.555  16.977  1.00 20.52     0.186 C 
ENDROOT
BRANCH   1   2
ATOM      2  CB  LYS A 131      28.345  25.722  17.026  1.00 20.94     0.034 C 
BRANCH   2   3
ATOM      3  CG  LYS A 131      27.602  24.398  16.929  1.00 22.96     0.005 C 
BRANCH   3   4
ATOM      4  CD  LYS A 131      26.619  24.217  18.052  1.00 24.33     0.041 C 
BRANCH   4   5
ATOM      5  CE  LYS A 131      26.067  25.576  18.470  1.00 26.91     0.338 C 
ATOM      6  NZ  LYS A 131      25.824  25.610  19.932  1.00 27.40     0.618 N 
ENDBRANCH   4   5
ENDBRANCH   3   4
ENDBRANCH   2   3
ENDBRANCH   1   2
END_RES LYS A 131
BEGIN_RES LYS A 135
REMARK  4 active torsions:
REMARK  status: ('A' for Active; 'I' for Inactive)
REMARK    5  A    between atoms: CA   and  CB  
REMARK    6  A    between atoms: CB   and  CG  
REMARK    7  A    between atoms: CG   and  CD  
REMARK    8  A    between atoms: CD   and  CE  
ROOT
ATOM      7  CA  LYS A 135      33.193  34.663   9.290  1.00 25.02     0.186 C 
ENDROOT
BRANCH   7   8
ATOM      8  CB  LYS A 135      32.060  35.360  10.034  1.00 26.63     0.034 C 
BRANCH   8   9
ATOM      9  CG  LYS A 135      30.729  34.668   9.889  1.00 29.45     0.005 C 
BRANCH   9  10
ATOM     10  CD  LYS A 135      30.333  34.567   8.425  1.00 32.00     0.041 C 
BRANCH  10  11
ATOM     11  CE  LYS A 135      28.826  34.468   8.286  1.00 34.25     0.338 C 
ATOM     12  NZ  LYS A 135      28.235  33.679   9.402  1.00 35.99     0.618 N 
ENDBRANCH  10  11
ENDBRANCH   9  10
ENDBRANCH   8   9
ENDBRANCH   7   8
END_RES LYS A 135
