REMARK VINA RESULT:    -4.563      6.859     11.505
REMARK INTER + INTRA:         -21.860
REMARK INTER:                  -9.981
REMARK INTRA:                 -11.879
REMARK UNBOUND:               -10.230
REMARK SMILES CC(=O)N[C@@H]1[C@@H](O)C[C@](OC[C@H]2O[C@@H](O[C@H]3[C@H](O)[C@@H](O)[C@H](OCCN=[N+]=[N-])O[C@@H]3CO)[C@H](O)[C@@H](O)[C@H]2O)(C(=O)O)O[C@H]1C(O)[C@H](O)CNC(=O)OCc1cn(C(C)(C)CO)nn1
REMARK SMILES IDX 9 1 8 2 6 3 5 4 42 5 41 6 10 7 11 8 12 9 14 10 13 11 32 12
REMARK SMILES IDX 34 13 36 14 15 15 16 16 29 17 28 18 21 19 17 20 19 21 30 22
REMARK SMILES IDX 31 23 22 25 23 26 24 27 25 28 26 29 27 30 18 31 20 33 33 35
REMARK SMILES IDX 35 37 37 39 38 41 39 42 40 43 7 45 43 47 44 48 45 50 46 51
REMARK SMILES IDX 47 53 48 54 49 55 50 57 51 58 52 59 53 60 54 61 62 62 55 63
REMARK SMILES IDX 61 64 56 65 57 66 58 67 59 68 60 69 4 71 2 72 1 74 3 75
REMARK H PARENT 31 24 18 32 20 34 33 36 35 38 37 40 40 44 7 46 44 49 46 52
REMARK H PARENT 48 56 60 70 4 73
REMARK Flexibility Score: inf
ROOT
ATOM      1  C   UNL     1      25.307  35.954   9.738  1.00  0.00     0.272 C 
ATOM      2  C   UNL     1      25.158  36.678  11.050  1.00  0.00     0.113 C 
ATOM      3  C   UNL     1      25.387  38.148  10.791  1.00  0.00     0.145 C 
ATOM      4  C   UNL     1      26.901  38.274  10.503  1.00  0.00     0.142 C 
ATOM      5  C   UNL     1      27.206  37.313   9.393  1.00  0.00     0.178 C 
ATOM      6  O   UNL     1      26.070  36.774   8.822  1.00  0.00    -0.332 OA
ENDROOT
BRANCH   1   7
ATOM      7  O   UNL     1      24.143  35.777   9.064  1.00  0.00    -0.338 OA
BRANCH   7   8
ATOM      8  C   UNL     1      22.977  35.541   9.641  1.00  0.00     0.199 C 
BRANCH   8   9
ATOM      9  C   UNL     1      21.737  36.302   9.411  1.00  0.00     0.179 C 
ATOM     10  C   UNL     1      20.986  38.481   9.324  1.00  0.00     0.282 C 
ATOM     11  O   UNL     1      22.093  37.681   9.225  1.00  0.00    -0.341 OA
ATOM     12  C   UNL     1      19.669  37.822   9.117  1.00  0.00     0.202 C 
ATOM     13  C   UNL     1      19.702  36.666   8.142  1.00  0.00     0.179 C 
ATOM     14  C   UNL     1      21.033  35.987   8.097  1.00  0.00     0.177 C 
BRANCH  10  15
ATOM     15  O   UNL     1      21.190  39.592   8.501  1.00  0.00    -0.341 OA
BRANCH  15  16
ATOM     16  C   UNL     1      22.409  40.201   8.680  1.00  0.00     0.184 C 
ATOM     17  C   UNL     1      22.317  41.562   9.335  1.00  0.00     0.178 C 
ATOM     18  O   UNL     1      23.084  42.525   8.714  1.00  0.00    -0.341 OA
ATOM     19  C   UNL     1      22.763  42.801   7.412  1.00  0.00     0.281 C 
ATOM     20  C   UNL     1      22.991  40.400   7.268  1.00  0.00     0.180 C 
ATOM     21  C   UNL     1      22.214  41.579   6.712  1.00  0.00     0.202 C 
BRANCH  17  22
ATOM     22  C   UNL     1      22.890  41.388  10.736  1.00  0.00     0.191 C 
BRANCH  22  23
ATOM     23  O   UNL     1      24.282  41.333  10.667  1.00  0.00    -0.394 OA
ATOM     24  H   UNL     1      24.661  41.876   9.951  1.00  0.00     0.210 HD
ENDBRANCH  22  23
ENDBRANCH  17  22
BRANCH  19  25
ATOM     25  O   UNL     1      23.899  43.299   6.799  1.00  0.00    -0.350 OA
BRANCH  25  26
ATOM     26  C   UNL     1      24.584  44.244   7.496  1.00  0.00     0.169 C 
BRANCH  26  27
ATOM     27  C   UNL     1      26.071  44.295   7.178  1.00  0.00     0.119 C 
BRANCH  27  28
ATOM     28  N   UNL     1      26.641  42.963   7.134  1.00  0.00    -0.092 NA
ATOM     29  N   UNL     1      26.843  42.394   8.216  1.00  0.00     0.001 N 
ATOM     30  N   UNL     1      26.748  41.612   9.187  1.00  0.00    -0.003 NA
ENDBRANCH  27  28
ENDBRANCH  26  27
ENDBRANCH  25  26
ENDBRANCH  19  25
BRANCH  20  31
ATOM     31  O   UNL     1      24.341  40.707   7.468  1.00  0.00    -0.387 OA
ATOM     32  H   UNL     1      24.686  40.975   6.575  1.00  0.00     0.211 HD
ENDBRANCH  20  31
BRANCH  21  33
ATOM     33  O   UNL     1      20.881  41.428   7.132  1.00  0.00    -0.385 OA
ATOM     34  H   UNL     1      20.832  40.767   7.885  1.00  0.00     0.211 HD
ENDBRANCH  21  33
ENDBRANCH  15  16
ENDBRANCH  10  15
BRANCH  12  35
ATOM     35  O   UNL     1      19.005  37.474  10.294  1.00  0.00    -0.385 OA
ATOM     36  H   UNL     1      19.400  36.634  10.603  1.00  0.00     0.211 HD
ENDBRANCH  12  35
BRANCH  13  37
ATOM     37  O   UNL     1      19.299  37.078   6.860  1.00  0.00    -0.387 OA
ATOM     38  H   UNL     1      18.345  37.356   6.861  1.00  0.00     0.211 HD
ENDBRANCH  13  37
BRANCH  14  39
ATOM     39  O   UNL     1      21.777  36.626   7.079  1.00  0.00    -0.387 OA
ATOM     40  H   UNL     1      21.868  37.580   7.283  1.00  0.00     0.211 HD
ENDBRANCH  14  39
ENDBRANCH   8   9
ENDBRANCH   7   8
ENDBRANCH   1   7
BRANCH   1  41
ATOM     41  C   UNL     1      26.129  34.750   9.844  1.00  0.00     0.364 C 
ATOM     42  O   UNL     1      26.379  34.209  10.924  1.00  0.00    -0.246 OA
BRANCH  41  43
ATOM     43  O   UNL     1      26.695  34.124   8.718  1.00  0.00    -0.477 OA
ATOM     44  H   UNL     1      26.340  34.405   7.811  1.00  0.00     0.296 HD
ENDBRANCH  41  43
ENDBRANCH   1  41
BRANCH   3  45
ATOM     45  O   UNL     1      24.769  38.461   9.578  1.00  0.00    -0.391 OA
ATOM     46  H   UNL     1      23.971  37.914   9.432  1.00  0.00     0.211 HD
ENDBRANCH   3  45
BRANCH   5  47
ATOM     47  C   UNL     1      27.816  38.161   8.262  1.00  0.00     0.176 C 
BRANCH  47  48
ATOM     48  O   UNL     1      26.782  38.944   7.693  1.00  0.00    -0.388 OA
ATOM     49  H   UNL     1      25.900  38.614   7.932  1.00  0.00     0.211 HD
ENDBRANCH  47  48
BRANCH  47  50
ATOM     50  C   UNL     1      28.303  37.300   7.109  1.00  0.00     0.165 C 
BRANCH  50  51
ATOM     51  O   UNL     1      29.642  37.375   6.907  1.00  0.00    -0.388 OA
ATOM     52  H   UNL     1      30.157  36.554   7.088  1.00  0.00     0.211 HD
ENDBRANCH  50  51
BRANCH  50  53
ATOM     53  C   UNL     1      27.541  37.649   5.846  1.00  0.00     0.154 C 
BRANCH  53  54
ATOM     54  N   UNL     1      28.115  38.655   5.030  1.00  0.00    -0.319 N 
ATOM     55  C   UNL     1      27.519  39.889   4.754  1.00  0.00     0.407 C 
ATOM     56  H   UNL     1      29.079  38.478   4.581  1.00  0.00     0.167 HD
ATOM     57  O   UNL     1      26.416  40.214   5.221  1.00  0.00    -0.225 OA
BRANCH  55  58
ATOM     58  O   UNL     1      28.150  40.841   3.917  1.00  0.00    -0.443 OA
BRANCH  58  59
ATOM     59  C   UNL     1      29.181  41.672   4.400  1.00  0.00     0.294 C 
BRANCH  59  60
ATOM     60  C   UNL     1      30.000  41.045   5.458  1.00  0.00     0.120 A 
ATOM     61  C   UNL     1      30.081  41.416   6.785  1.00  0.00     0.139 A 
ATOM     62  N   UNL     1      30.820  39.991   5.330  1.00  0.00    -0.132 NA
ATOM     63  N   UNL     1      30.942  40.584   7.424  1.00  0.00    -0.244 N 
ATOM     64  N   UNL     1      31.376  39.727   6.515  1.00  0.00    -0.066 NA
BRANCH  63  65
ATOM     65  C   UNL     1      31.288  40.648   8.821  1.00  0.00     0.082 C 
ATOM     66  C   UNL     1      32.719  41.074   8.970  1.00  0.00     0.039 C 
ATOM     67  C   UNL     1      31.170  39.255   9.457  1.00  0.00     0.039 C 
BRANCH  65  68
ATOM     68  C   UNL     1      30.414  41.570   9.622  1.00  0.00     0.186 C 
BRANCH  68  69
ATOM     69  O   UNL     1      29.361  40.935  10.238  1.00  0.00    -0.394 OA
ATOM     70  H   UNL     1      29.544  40.036  10.554  1.00  0.00     0.210 HD
ENDBRANCH  68  69
ENDBRANCH  65  68
ENDBRANCH  63  65
ENDBRANCH  59  60
ENDBRANCH  58  59
ENDBRANCH  55  58
ENDBRANCH  53  54
ENDBRANCH  50  53
ENDBRANCH  47  50
ENDBRANCH   5  47
BRANCH   4  71
ATOM     71  N   UNL     1      27.551  38.007  11.746  1.00  0.00    -0.348 N 
ATOM     72  C   UNL     1      27.932  38.966  12.715  1.00  0.00     0.217 C 
ATOM     73  H   UNL     1      27.795  37.005  12.006  1.00  0.00     0.163 HD
ATOM     74  C   UNL     1      28.610  38.589  13.984  1.00  0.00     0.114 C 
ATOM     75  O   UNL     1      27.695  40.167  12.507  1.00  0.00    -0.275 OA
ENDBRANCH   4  71
TORSDOF 32
BEGIN_RES LYS A 131
REMARK  4 active torsions:
REMARK  status: ('A' for Active; 'I' for Inactive)
REMARK    1  A    between atoms: CA   and  CB  
REMARK    2  A    between atoms: CB   and  CG  
REMARK    3  A    between atoms: CG   and  CD  
REMARK    4  A    between atoms: CD   and  CE  
ROOT
ATOM      1  CA  LYS A 131      29.867  25.555  16.977  1.00 20.52     0.186 C 
ENDROOT
BRANCH   1   2
ATOM      2  CB  LYS A 131      28.345  25.722  17.026  1.00 20.94     0.034 C 
BRANCH   2   3
ATOM      3  CG  LYS A 131      27.601  24.402  16.891  1.00 22.96     0.005 C 
BRANCH   3   4
ATOM      4  CD  LYS A 131      26.151  24.528  17.268  1.00 24.33     0.041 C 
BRANCH   4   5
ATOM      5  CE  LYS A 131      25.632  23.180  17.756  1.00 26.91     0.338 C 
ATOM      6  NZ  LYS A 131      25.507  23.175  19.232  1.00 27.40     0.618 N 
ENDBRANCH   4   5
ENDBRANCH   3   4
ENDBRANCH   2   3
ENDBRANCH   1   2
END_RES LYS A 131
BEGIN_RES LYS A 135
REMARK  4 active torsions:
REMARK  status: ('A' for Active; 'I' for Inactive)
REMARK    5  A    between atoms: CA   and  CB  
REMARK    6  A    between atoms: CB   and  CG  
REMARK    7  A    between atoms: CG   and  CD  
REMARK    8  A    between atoms: CD   and  CE  
ROOT
ATOM      7  CA  LYS A 135      33.193  34.663   9.290  1.00 25.02     0.186 C 
ENDROOT
BRANCH   7   8
ATOM      8  CB  LYS A 135      32.060  35.360  10.034  1.00 26.63     0.034 C 
BRANCH   8   9
ATOM      9  CG  LYS A 135      30.695  34.814   9.701  1.00 29.45     0.005 C 
BRANCH   9  10
ATOM     10  CD  LYS A 135      29.687  35.200  10.773  1.00 32.00     0.041 C 
BRANCH  10  11
ATOM     11  CE  LYS A 135      30.070  34.591  12.108  1.00 34.25     0.338 C 
ATOM     12  NZ  LYS A 135      30.281  35.645  13.138  1.00 35.99     0.618 N 
ENDBRANCH  10  11
ENDBRANCH   9  10
ENDBRANCH   8   9
ENDBRANCH   7   8
END_RES LYS A 135
