REMARK VINA RESULT:    -4.173      5.548     12.818
REMARK INTER + INTRA:         -21.217
REMARK INTER:                 -10.115
REMARK INTRA:                 -11.102
REMARK UNBOUND:               -10.944
REMARK SMILES CC(=O)N[C@@H]1[C@@H](O)C[C@](OC[C@H]2O[C@@H](O[C@H]3[C@H](O)[C@@H](O)[C@H](OCCN=[N+]=[N-])O[C@@H]3CO)[C@H](O)[C@@H](O)[C@H]2O)(C(=O)O)O[C@H]1C(O)[C@H](O)CNC(=O)OCc1cn(-c2cccnc2)nn1
REMARK SMILES IDX 9 1 8 2 6 3 5 4 42 5 41 6 10 7 11 8 12 9 14 10 13 11 32 12
REMARK SMILES IDX 34 13 36 14 15 15 16 16 29 17 28 18 21 19 17 20 19 21 30 22
REMARK SMILES IDX 31 23 22 25 23 26 24 27 25 28 26 29 27 30 18 31 20 33 33 35
REMARK SMILES IDX 35 37 37 39 38 41 39 42 40 43 7 45 43 47 44 48 45 50 46 51
REMARK SMILES IDX 47 53 48 54 49 55 50 57 51 58 52 59 53 60 54 61 63 62 55 63
REMARK SMILES IDX 62 64 56 65 57 66 61 67 58 68 60 69 59 70 4 71 2 72 1 74
REMARK SMILES IDX 3 75
REMARK H PARENT 31 24 18 32 20 34 33 36 35 38 37 40 40 44 7 46 44 49 46 52
REMARK H PARENT 48 56 4 73
REMARK Flexibility Score: inf
ROOT
ATOM      1  C   UNL     1      26.131  38.546   8.399  1.00  0.00     0.272 C 
ATOM      2  C   UNL     1      26.670  37.318   7.788  1.00  0.00     0.113 C 
ATOM      3  C   UNL     1      26.963  37.490   6.338  1.00  0.00     0.145 C 
ATOM      4  C   UNL     1      27.570  38.824   5.985  1.00  0.00     0.142 C 
ATOM      5  C   UNL     1      27.769  39.714   7.159  1.00  0.00     0.178 C 
ATOM      6  O   UNL     1      26.667  39.758   8.002  1.00  0.00    -0.332 OA
ENDROOT
BRANCH   1   7
ATOM      7  O   UNL     1      26.261  38.550   9.787  1.00  0.00    -0.338 OA
BRANCH   7   8
ATOM      8  C   UNL     1      26.913  37.499  10.347  1.00  0.00     0.199 C 
BRANCH   8   9
ATOM      9  C   UNL     1      25.904  36.780  11.264  1.00  0.00     0.179 C 
ATOM     10  C   UNL     1      27.496  35.825  12.692  1.00  0.00     0.282 C 
ATOM     11  O   UNL     1      26.457  35.681  11.798  1.00  0.00    -0.341 OA
ATOM     12  C   UNL     1      27.215  36.940  13.640  1.00  0.00     0.202 C 
ATOM     13  C   UNL     1      25.698  37.177  13.639  1.00  0.00     0.179 C 
ATOM     14  C   UNL     1      25.305  37.737  12.280  1.00  0.00     0.177 C 
BRANCH  10  15
ATOM     15  O   UNL     1      28.650  35.993  11.930  1.00  0.00    -0.341 OA
BRANCH  15  16
ATOM     16  C   UNL     1      29.781  36.185  12.652  1.00  0.00     0.184 C 
ATOM     17  C   UNL     1      30.754  37.181  12.099  1.00  0.00     0.178 C 
ATOM     18  O   UNL     1      31.508  37.664  13.169  1.00  0.00    -0.341 OA
ATOM     19  C   UNL     1      31.938  36.670  14.042  1.00  0.00     0.281 C 
ATOM     20  C   UNL     1      30.605  34.915  12.838  1.00  0.00     0.180 C 
ATOM     21  C   UNL     1      31.977  35.300  13.408  1.00  0.00     0.202 C 
BRANCH  17  22
ATOM     22  C   UNL     1      30.180  38.322  11.344  1.00  0.00     0.191 C 
BRANCH  22  23
ATOM     23  O   UNL     1      31.133  39.068  10.703  1.00  0.00    -0.394 OA
ATOM     24  H   UNL     1      31.640  39.568  11.392  1.00  0.00     0.210 HD
ENDBRANCH  22  23
ENDBRANCH  17  22
BRANCH  19  25
ATOM     25  O   UNL     1      31.214  36.607  15.197  1.00  0.00    -0.350 OA
BRANCH  25  26
ATOM     26  C   UNL     1      31.762  36.075  16.309  1.00  0.00     0.169 C 
BRANCH  26  27
ATOM     27  C   UNL     1      30.972  35.082  17.087  1.00  0.00     0.119 C 
BRANCH  27  28
ATOM     28  N   UNL     1      31.553  33.798  17.275  1.00  0.00    -0.092 NA
ATOM     29  N   UNL     1      31.577  32.931  16.377  1.00  0.00     0.001 N 
ATOM     30  N   UNL     1      31.091  32.021  15.683  1.00  0.00    -0.003 NA
ENDBRANCH  27  28
ENDBRANCH  26  27
ENDBRANCH  25  26
ENDBRANCH  19  25
BRANCH  20  31
ATOM     31  O   UNL     1      29.989  34.101  13.779  1.00  0.00    -0.387 OA
ATOM     32  H   UNL     1      30.364  34.216  14.691  1.00  0.00     0.211 HD
ENDBRANCH  20  31
BRANCH  21  33
ATOM     33  O   UNL     1      32.973  35.237  12.436  1.00  0.00    -0.385 OA
ATOM     34  H   UNL     1      33.489  36.080  12.468  1.00  0.00     0.211 HD
ENDBRANCH  21  33
ENDBRANCH  15  16
ENDBRANCH  10  15
BRANCH  12  35
ATOM     35  O   UNL     1      27.486  36.518  14.955  1.00  0.00    -0.385 OA
ATOM     36  H   UNL     1      27.713  37.331  15.502  1.00  0.00     0.211 HD
ENDBRANCH  12  35
BRANCH  13  37
ATOM     37  O   UNL     1      25.281  37.967  14.679  1.00  0.00    -0.387 OA
ATOM     38  H   UNL     1      25.147  37.414  15.489  1.00  0.00     0.211 HD
ENDBRANCH  13  37
BRANCH  14  39
ATOM     39  O   UNL     1      25.744  39.036  12.125  1.00  0.00    -0.387 OA
ATOM     40  H   UNL     1      25.854  39.202  11.150  1.00  0.00     0.211 HD
ENDBRANCH  14  39
ENDBRANCH   8   9
ENDBRANCH   7   8
ENDBRANCH   1   7
BRANCH   1  41
ATOM     41  C   UNL     1      24.644  38.566   8.105  1.00  0.00     0.364 C 
ATOM     42  O   UNL     1      23.856  38.264   9.016  1.00  0.00    -0.246 OA
BRANCH  41  43
ATOM     43  O   UNL     1      24.132  38.903   6.876  1.00  0.00    -0.477 OA
ATOM     44  H   UNL     1      23.977  38.258   6.111  1.00  0.00     0.296 HD
ENDBRANCH  41  43
ENDBRANCH   1  41
BRANCH   3  45
ATOM     45  O   UNL     1      27.847  36.444   5.985  1.00  0.00    -0.391 OA
ATOM     46  H   UNL     1      28.456  36.214   6.712  1.00  0.00     0.211 HD
ENDBRANCH   3  45
BRANCH   5  47
ATOM     47  C   UNL     1      29.044  39.523   7.910  1.00  0.00     0.176 C 
BRANCH  47  48
ATOM     48  O   UNL     1      29.152  40.583   8.847  1.00  0.00    -0.388 OA
ATOM     49  H   UNL     1      29.322  40.191   9.747  1.00  0.00     0.211 HD
ENDBRANCH  47  48
BRANCH  47  50
ATOM     50  C   UNL     1      30.309  39.553   7.111  1.00  0.00     0.165 C 
BRANCH  50  51
ATOM     51  O   UNL     1      31.088  38.494   7.749  1.00  0.00    -0.388 OA
ATOM     52  H   UNL     1      31.363  38.879   8.616  1.00  0.00     0.211 HD
ENDBRANCH  50  51
BRANCH  50  53
ATOM     53  C   UNL     1      31.180  40.750   7.318  1.00  0.00     0.154 C 
BRANCH  53  54
ATOM     54  N   UNL     1      31.882  40.835   8.558  1.00  0.00    -0.319 N 
ATOM     55  C   UNL     1      32.655  42.029   8.813  1.00  0.00     0.407 C 
ATOM     56  H   UNL     1      31.888  40.147   9.303  1.00  0.00     0.167 HD
ATOM     57  O   UNL     1      32.663  42.920   7.938  1.00  0.00    -0.225 OA
BRANCH  55  58
ATOM     58  O   UNL     1      33.365  42.194   9.975  1.00  0.00    -0.443 OA
BRANCH  58  59
ATOM     59  C   UNL     1      32.878  43.046  10.982  1.00  0.00     0.294 C 
BRANCH  59  60
ATOM     60  C   UNL     1      31.720  42.400  11.636  1.00  0.00     0.121 A 
ATOM     61  C   UNL     1      31.625  41.846  12.892  1.00  0.00     0.144 A 
ATOM     62  N   UNL     1      30.482  42.232  11.083  1.00  0.00    -0.131 NA
ATOM     63  N   UNL     1      30.382  41.372  13.074  1.00  0.00    -0.219 N 
ATOM     64  N   UNL     1      29.716  41.620  11.961  1.00  0.00    -0.062 NA
BRANCH  63  65
ATOM     65  C   UNL     1      29.787  40.719  14.191  1.00  0.00     0.085 A 
ATOM     66  C   UNL     1      30.509  40.341  15.304  1.00  0.00     0.031 A 
ATOM     67  C   UNL     1      28.437  40.425  14.206  1.00  0.00     0.139 A 
ATOM     68  C   UNL     1      29.913  39.705  16.369  1.00  0.00     0.022 A 
ATOM     69  N   UNL     1      27.861  39.797  15.261  1.00  0.00    -0.262 NA
ATOM     70  C   UNL     1      28.565  39.428  16.346  1.00  0.00     0.111 A 
ENDBRANCH  63  65
ENDBRANCH  59  60
ENDBRANCH  58  59
ENDBRANCH  55  58
ENDBRANCH  53  54
ENDBRANCH  50  53
ENDBRANCH  47  50
ENDBRANCH   5  47
BRANCH   4  71
ATOM     71  N   UNL     1      26.763  39.507   4.978  1.00  0.00    -0.348 N 
ATOM     72  C   UNL     1      27.274  40.468   4.072  1.00  0.00     0.217 C 
ATOM     73  H   UNL     1      25.731  39.296   4.891  1.00  0.00     0.163 HD
ATOM     74  C   UNL     1      26.405  41.146   3.060  1.00  0.00     0.114 C 
ATOM     75  O   UNL     1      28.496  40.778   4.100  1.00  0.00    -0.275 OA
ENDBRANCH   4  71
TORSDOF 30
BEGIN_RES LYS A 131
REMARK  4 active torsions:
REMARK  status: ('A' for Active; 'I' for Inactive)
REMARK    1  A    between atoms: CA   and  CB  
REMARK    2  A    between atoms: CB   and  CG  
REMARK    3  A    between atoms: CG   and  CD  
REMARK    4  A    between atoms: CD   and  CE  
ROOT
ATOM      1  CA  LYS A 131      29.867  25.555  16.977  1.00 20.52     0.186 C 
ENDROOT
BRANCH   1   2
ATOM      2  CB  LYS A 131      28.345  25.722  17.026  1.00 20.94     0.034 C 
BRANCH   2   3
ATOM      3  CG  LYS A 131      27.601  24.405  16.871  1.00 22.96     0.005 C 
BRANCH   3   4
ATOM      4  CD  LYS A 131      26.660  24.148  18.016  1.00 24.33     0.041 C 
BRANCH   4   5
ATOM      5  CE  LYS A 131      25.534  23.229  17.553  1.00 26.91     0.338 C 
ATOM      6  NZ  LYS A 131      24.467  24.011  16.886  1.00 27.40     0.618 N 
ENDBRANCH   4   5
ENDBRANCH   3   4
ENDBRANCH   2   3
ENDBRANCH   1   2
END_RES LYS A 131
BEGIN_RES LYS A 135
REMARK  4 active torsions:
REMARK  status: ('A' for Active; 'I' for Inactive)
REMARK    5  A    between atoms: CA   and  CB  
REMARK    6  A    between atoms: CB   and  CG  
REMARK    7  A    between atoms: CG   and  CD  
REMARK    8  A    between atoms: CD   and  CE  
ROOT
ATOM      7  CA  LYS A 135      33.193  34.663   9.290  1.00 25.02     0.186 C 
ENDROOT
BRANCH   7   8
ATOM      8  CB  LYS A 135      32.060  35.360  10.034  1.00 26.63     0.034 C 
BRANCH   8   9
ATOM      9  CG  LYS A 135      30.810  35.527   9.209  1.00 29.45     0.005 C 
BRANCH   9  10
ATOM     10  CD  LYS A 135      30.193  34.174   8.891  1.00 32.00     0.041 C 
BRANCH  10  11
ATOM     11  CE  LYS A 135      28.709  34.318   8.609  1.00 34.25     0.338 C 
ATOM     12  NZ  LYS A 135      27.897  33.623   9.646  1.00 35.99     0.618 N 
ENDBRANCH  10  11
ENDBRANCH   9  10
ENDBRANCH   8   9
ENDBRANCH   7   8
END_RES LYS A 135
