REMARK VINA RESULT:    -3.785      2.510      5.219
REMARK INTER + INTRA:         -23.862
REMARK INTER:                 -12.340
REMARK INTRA:                 -11.521
REMARK UNBOUND:               -13.881
REMARK SMILES CCOC(=O)c1cccc(-n2cc(COC(=O)NC[C@@H](O)C(O)[C@@H]3O[C@@](OC[C@H]4O[C@@H](O[C@H]5[C@H](O)[C@@H](O)[C@H](OCCN=[N+]=[N-])O[C@@H]5CO)[C@H](O)[C@@H](O)[C@H]4O)(C(=O)O)C[C@H](O)[C@H]3NC(C)=O)nn2)c1
REMARK SMILES IDX 22 1 24 2 26 3 58 4 25 5 59 6 61 7 27 8 28 9 29 10 31 11
REMARK SMILES IDX 30 12 49 13 51 14 53 15 32 16 33 17 46 18 45 19 38 20 34 21
REMARK SMILES IDX 36 22 47 23 48 24 39 26 40 27 41 28 42 29 43 30 44 31 35 32
REMARK SMILES IDX 37 34 50 36 52 38 54 40 55 42 56 43 57 44 60 46 62 48 63 49
REMARK SMILES IDX 64 51 65 52 23 53 20 55 21 56 19 58 18 59 16 60 17 62 15 63
REMARK SMILES IDX 14 64 13 65 12 66 66 67 11 68 67 69 10 70 68 71 9 72 6 73
REMARK SMILES IDX 8 74 7 75 4 76 5 77 3 78 2 79 1 80
REMARK H PARENT 48 25 35 33 37 35 50 37 52 39 54 41 57 45 60 47 62 50 23 54
REMARK H PARENT 21 57 18 61
REMARK Flexibility Score: inf
ROOT
ATOM      1  C   UNL     1      25.439  38.901  13.353  1.00  0.00     0.176 C 
ENDROOT
BRANCH   1   2
ATOM      2  C   UNL     1      26.826  39.278  13.667  1.00  0.00     0.178 C 
ATOM      3  C   UNL     1      28.945  38.824  12.723  1.00  0.00     0.272 C 
ATOM      4  C   UNL     1      29.309  39.731  13.854  1.00  0.00     0.113 C 
ATOM      5  O   UNL     1      27.666  38.299  13.131  1.00  0.00    -0.332 OA
ATOM      6  C   UNL     1      28.735  39.290  15.191  1.00  0.00     0.145 C 
ATOM      7  C   UNL     1      27.181  39.459  15.100  1.00  0.00     0.142 C 
BRANCH   3   8
ATOM      8  O   UNL     1      29.775  37.747  12.688  1.00  0.00    -0.338 OA
BRANCH   8   9
ATOM      9  C   UNL     1      31.072  37.745  12.866  1.00  0.00     0.199 C 
BRANCH   9  10
ATOM     10  C   UNL     1      31.852  36.925  13.802  1.00  0.00     0.179 C 
ATOM     11  C   UNL     1      31.702  35.256  15.435  1.00  0.00     0.282 C 
ATOM     12  O   UNL     1      31.108  36.355  14.772  1.00  0.00    -0.341 OA
ATOM     13  C   UNL     1      33.179  35.209  15.195  1.00  0.00     0.202 C 
ATOM     14  C   UNL     1      33.549  35.187  13.747  1.00  0.00     0.179 C 
ATOM     15  C   UNL     1      32.439  35.764  12.937  1.00  0.00     0.177 C 
BRANCH  11  16
ATOM     16  O   UNL     1      30.985  34.167  15.035  1.00  0.00    -0.341 OA
BRANCH  16  17
ATOM     17  C   UNL     1      29.714  34.010  15.468  1.00  0.00     0.184 C 
ATOM     18  C   UNL     1      29.570  32.622  16.036  1.00  0.00     0.178 C 
ATOM     19  O   UNL     1      28.289  32.412  16.550  1.00  0.00    -0.341 OA
ATOM     20  C   UNL     1      27.388  32.379  15.450  1.00  0.00     0.281 C 
ATOM     21  C   UNL     1      28.683  34.127  14.332  1.00  0.00     0.180 C 
ATOM     22  C   UNL     1      27.326  33.796  14.949  1.00  0.00     0.202 C 
BRANCH  18  23
ATOM     23  C   UNL     1      30.564  32.381  17.135  1.00  0.00     0.191 C 
BRANCH  23  24
ATOM     24  O   UNL     1      30.516  33.438  18.081  1.00  0.00    -0.394 OA
ATOM     25  H   UNL     1      30.475  33.074  19.001  1.00  0.00     0.210 HD
ENDBRANCH  23  24
ENDBRANCH  18  23
BRANCH  20  26
ATOM     26  O   UNL     1      26.198  31.883  15.900  1.00  0.00    -0.350 OA
BRANCH  26  27
ATOM     27  C   UNL     1      26.167  30.496  15.900  1.00  0.00     0.169 C 
BRANCH  27  28
ATOM     28  C   UNL     1      24.819  29.925  15.574  1.00  0.00     0.119 C 
BRANCH  28  29
ATOM     29  N   UNL     1      24.377  30.451  14.277  1.00  0.00    -0.092 NA
ATOM     30  N   UNL     1      24.046  29.632  13.410  1.00  0.00     0.001 N 
ATOM     31  N   UNL     1      23.457  28.959  12.541  1.00  0.00    -0.003 NA
ENDBRANCH  28  29
ENDBRANCH  27  28
ENDBRANCH  26  27
ENDBRANCH  20  26
BRANCH  21  32
ATOM     32  O   UNL     1      28.572  35.436  13.889  1.00  0.00    -0.387 OA
ATOM     33  H   UNL     1      29.325  35.602  13.272  1.00  0.00     0.211 HD
ENDBRANCH  21  32
BRANCH  22  34
ATOM     34  O   UNL     1      26.302  33.982  14.026  1.00  0.00    -0.385 OA
ATOM     35  H   UNL     1      25.837  34.867  14.128  1.00  0.00     0.211 HD
ENDBRANCH  22  34
ENDBRANCH  16  17
ENDBRANCH  11  16
BRANCH  13  36
ATOM     36  O   UNL     1      33.791  36.271  15.890  1.00  0.00    -0.385 OA
ATOM     37  H   UNL     1      34.764  36.297  15.748  1.00  0.00     0.211 HD
ENDBRANCH  13  36
BRANCH  14  38
ATOM     38  O   UNL     1      34.033  33.973  13.316  1.00  0.00    -0.387 OA
ATOM     39  H   UNL     1      34.664  34.160  12.570  1.00  0.00     0.211 HD
ENDBRANCH  14  38
BRANCH  15  40
ATOM     40  O   UNL     1      31.490  34.851  12.600  1.00  0.00    -0.387 OA
ATOM     41  H   UNL     1      31.125  34.431  13.418  1.00  0.00     0.211 HD
ENDBRANCH  15  40
ENDBRANCH   9  10
ENDBRANCH   8   9
ENDBRANCH   3   8
BRANCH   3  42
ATOM     42  C   UNL     1      28.746  39.459  11.428  1.00  0.00     0.364 C 
ATOM     43  O   UNL     1      29.401  40.446  11.059  1.00  0.00    -0.246 OA
BRANCH  42  44
ATOM     44  O   UNL     1      27.788  38.969  10.539  1.00  0.00    -0.477 OA
ATOM     45  H   UNL     1      27.110  38.276  10.779  1.00  0.00     0.296 HD
ENDBRANCH  42  44
ENDBRANCH   3  42
BRANCH   6  46
ATOM     46  O   UNL     1      28.960  37.945  15.341  1.00  0.00    -0.391 OA
ATOM     47  H   UNL     1      28.988  37.515  14.452  1.00  0.00     0.211 HD
ENDBRANCH   6  46
BRANCH   7  48
ATOM     48  N   UNL     1      26.900  40.785  15.599  1.00  0.00    -0.348 N 
ATOM     49  C   UNL     1      26.010  41.056  16.689  1.00  0.00     0.217 C 
ATOM     50  H   UNL     1      27.350  41.652  15.176  1.00  0.00     0.163 HD
ATOM     51  C   UNL     1      25.742  42.435  17.175  1.00  0.00     0.114 C 
ATOM     52  O   UNL     1      25.429  40.111  17.261  1.00  0.00    -0.275 OA
ENDBRANCH   7  48
ENDBRANCH   1   2
BRANCH   1  53
ATOM     53  O   UNL     1      25.150  38.668  12.036  1.00  0.00    -0.388 OA
ATOM     54  H   UNL     1      24.900  37.731  11.859  1.00  0.00     0.211 HD
ENDBRANCH   1  53
BRANCH   1  55
ATOM     55  C   UNL     1      24.792  37.876  14.248  1.00  0.00     0.165 C 
BRANCH  55  56
ATOM     56  O   UNL     1      25.158  36.583  13.861  1.00  0.00    -0.388 OA
ATOM     57  H   UNL     1      24.509  36.226  13.201  1.00  0.00     0.211 HD
ENDBRANCH  55  56
BRANCH  55  58
ATOM     58  C   UNL     1      23.324  38.076  14.475  1.00  0.00     0.154 C 
BRANCH  58  59
ATOM     59  N   UNL     1      22.525  37.079  13.800  1.00  0.00    -0.319 N 
ATOM     60  C   UNL     1      21.904  37.348  12.560  1.00  0.00     0.407 C 
ATOM     61  H   UNL     1      22.390  36.112  14.231  1.00  0.00     0.167 HD
ATOM     62  O   UNL     1      21.981  38.428  11.933  1.00  0.00    -0.225 OA
BRANCH  60  63
ATOM     63  O   UNL     1      21.116  36.362  11.935  1.00  0.00    -0.443 OA
BRANCH  63  64
ATOM     64  C   UNL     1      21.598  35.151  11.439  1.00  0.00     0.294 C 
BRANCH  64  65
ATOM     65  C   UNL     1      23.025  35.120  11.091  1.00  0.00     0.121 A 
ATOM     66  C   UNL     1      23.578  35.470   9.864  1.00  0.00     0.144 A 
ATOM     67  N   UNL     1      24.041  34.759  11.865  1.00  0.00    -0.131 NA
ATOM     68  N   UNL     1      24.897  35.302   9.955  1.00  0.00    -0.220 N 
ATOM     69  N   UNL     1      25.169  34.874  11.166  1.00  0.00    -0.062 NA
BRANCH  68  70
ATOM     70  C   UNL     1      25.831  35.549   8.926  1.00  0.00     0.067 A 
ATOM     71  C   UNL     1      25.987  36.817   8.371  1.00  0.00     0.044 A 
ATOM     72  C   UNL     1      26.638  34.561   8.429  1.00  0.00     0.028 A 
ATOM     73  C   UNL     1      26.886  37.108   7.380  1.00  0.00     0.062 A 
ATOM     74  C   UNL     1      27.562  34.815   7.427  1.00  0.00     0.003 A 
ATOM     75  C   UNL     1      27.689  36.079   6.901  1.00  0.00     0.016 A 
BRANCH  73  76
ATOM     76  C   UNL     1      26.995  38.449   6.845  1.00  0.00     0.338 C 
ATOM     77  O   UNL     1      27.384  38.612   5.673  1.00  0.00    -0.246 OA
BRANCH  76  78
ATOM     78  O   UNL     1      26.668  39.529   7.623  1.00  0.00    -0.462 OA
BRANCH  78  79
ATOM     79  C   UNL     1      25.989  40.669   7.151  1.00  0.00     0.230 C 
ATOM     80  C   UNL     1      24.526  40.346   6.939  1.00  0.00     0.049 C 
ENDBRANCH  78  79
ENDBRANCH  76  78
ENDBRANCH  73  76
ENDBRANCH  68  70
ENDBRANCH  64  65
ENDBRANCH  63  64
ENDBRANCH  60  63
ENDBRANCH  58  59
ENDBRANCH  55  58
ENDBRANCH   1  55
TORSDOF 33
BEGIN_RES LYS A 131
REMARK  4 active torsions:
REMARK  status: ('A' for Active; 'I' for Inactive)
REMARK    1  A    between atoms: CA   and  CB  
REMARK    2  A    between atoms: CB   and  CG  
REMARK    3  A    between atoms: CG   and  CD  
REMARK    4  A    between atoms: CD   and  CE  
ROOT
ATOM      1  CA  LYS A 131      29.867  25.555  16.977  1.00 20.52     0.186 C 
ENDROOT
BRANCH   1   2
ATOM      2  CB  LYS A 131      28.345  25.722  17.026  1.00 20.94     0.034 C 
BRANCH   2   3
ATOM      3  CG  LYS A 131      27.601  24.403  16.887  1.00 22.96     0.005 C 
BRANCH   3   4
ATOM      4  CD  LYS A 131      26.530  24.244  17.931  1.00 24.33     0.041 C 
BRANCH   4   5
ATOM      5  CE  LYS A 131      25.212  23.880  17.256  1.00 26.91     0.338 C 
ATOM      6  NZ  LYS A 131      24.845  22.475  17.557  1.00 27.40     0.618 N 
ENDBRANCH   4   5
ENDBRANCH   3   4
ENDBRANCH   2   3
ENDBRANCH   1   2
END_RES LYS A 131
BEGIN_RES LYS A 135
REMARK  4 active torsions:
REMARK  status: ('A' for Active; 'I' for Inactive)
REMARK    5  A    between atoms: CA   and  CB  
REMARK    6  A    between atoms: CB   and  CG  
REMARK    7  A    between atoms: CG   and  CD  
REMARK    8  A    between atoms: CD   and  CE  
ROOT
ATOM      7  CA  LYS A 135      33.193  34.663   9.290  1.00 25.02     0.186 C 
ENDROOT
BRANCH   7   8
ATOM      8  CB  LYS A 135      32.060  35.360  10.034  1.00 26.63     0.034 C 
BRANCH   8   9
ATOM      9  CG  LYS A 135      30.742  35.314   9.305  1.00 29.45     0.005 C 
BRANCH   9  10
ATOM     10  CD  LYS A 135      30.027  36.653   9.403  1.00 32.00     0.041 C 
BRANCH  10  11
ATOM     11  CE  LYS A 135      30.977  37.789   9.074  1.00 34.25     0.338 C 
ATOM     12  NZ  LYS A 135      30.422  38.657   7.999  1.00 35.99     0.618 N 
ENDBRANCH  10  11
ENDBRANCH   9  10
ENDBRANCH   8   9
ENDBRANCH   7   8
END_RES LYS A 135
