REMARK VINA RESULT:    -4.666      4.232      9.064
REMARK INTER + INTRA:         -23.094
REMARK INTER:                 -10.489
REMARK INTRA:                 -12.605
REMARK UNBOUND:               -11.064
REMARK SMILES CC(=O)N[C@@H]1[C@@H](O)C[C@](OC[C@H]2O[C@@H](O[C@H]3[C@H](O)[C@@H](O)[C@H](OCCN=[N+]=[N-])O[C@@H]3CO)[C@H](O)[C@@H](O)[C@H]2O)(C(=O)O)O[C@H]1C(O)[C@H](O)CNC(=O)OCc1cn(CC(=O)Nc2ncccn2)nn1
REMARK SMILES IDX 9 1 8 2 6 3 5 4 42 5 41 6 10 7 11 8 12 9 14 10 13 11 32 12
REMARK SMILES IDX 34 13 36 14 15 15 16 16 29 17 28 18 21 19 17 20 19 21 30 22
REMARK SMILES IDX 31 23 22 25 23 26 24 27 25 28 26 29 27 30 18 31 20 33 33 35
REMARK SMILES IDX 35 37 37 39 38 41 39 42 40 43 7 45 43 47 44 48 45 50 46 51
REMARK SMILES IDX 47 53 48 54 49 55 50 57 51 58 52 59 53 60 54 61 67 62 55 63
REMARK SMILES IDX 66 64 56 65 57 66 58 67 59 68 60 70 61 71 65 72 62 73 64 74
REMARK SMILES IDX 63 75 4 76 2 77 1 79 3 80
REMARK H PARENT 31 24 18 32 20 34 33 36 35 38 37 40 40 44 7 46 44 49 46 52
REMARK H PARENT 48 56 59 69 4 78
REMARK Flexibility Score: inf
ROOT
ATOM      1  C   UNL     1      29.083  38.640  15.026  1.00  0.00     0.272 C 
ATOM      2  C   UNL     1      27.571  38.796  15.029  1.00  0.00     0.113 C 
ATOM      3  C   UNL     1      27.138  39.751  13.992  1.00  0.00     0.145 C 
ATOM      4  C   UNL     1      27.788  39.581  12.628  1.00  0.00     0.142 C 
ATOM      5  C   UNL     1      29.120  38.980  12.684  1.00  0.00     0.178 C 
ATOM      6  O   UNL     1      29.254  38.059  13.713  1.00  0.00    -0.332 OA
ENDROOT
BRANCH   1   7
ATOM      7  O   UNL     1      29.419  37.693  15.892  1.00  0.00    -0.338 OA
BRANCH   7   8
ATOM      8  C   UNL     1      30.382  37.364  16.653  1.00  0.00     0.199 C 
BRANCH   8   9
ATOM      9  C   UNL     1      31.420  36.313  16.437  1.00  0.00     0.179 C 
ATOM     10  C   UNL     1      31.517  33.985  16.273  1.00  0.00     0.282 C 
ATOM     11  O   UNL     1      30.714  35.040  16.573  1.00  0.00    -0.341 OA
ATOM     12  C   UNL     1      31.626  33.840  14.720  1.00  0.00     0.202 C 
ATOM     13  C   UNL     1      31.195  35.211  14.239  1.00  0.00     0.179 C 
ATOM     14  C   UNL     1      32.027  36.200  15.088  1.00  0.00     0.177 C 
BRANCH  10  15
ATOM     15  O   UNL     1      30.934  32.803  16.748  1.00  0.00    -0.341 OA
BRANCH  15  16
ATOM     16  C   UNL     1      29.610  32.973  17.130  1.00  0.00     0.184 C 
ATOM     17  C   UNL     1      29.459  32.403  18.547  1.00  0.00     0.178 C 
ATOM     18  O   UNL     1      28.406  31.503  18.614  1.00  0.00    -0.341 OA
ATOM     19  C   UNL     1      28.642  30.387  17.797  1.00  0.00     0.281 C 
ATOM     20  C   UNL     1      28.704  32.309  16.163  1.00  0.00     0.180 C 
ATOM     21  C   UNL     1      28.446  30.849  16.381  1.00  0.00     0.202 C 
BRANCH  17  22
ATOM     22  C   UNL     1      29.143  33.528  19.518  1.00  0.00     0.191 C 
BRANCH  22  23
ATOM     23  O   UNL     1      29.998  34.613  19.321  1.00  0.00    -0.394 OA
ATOM     24  H   UNL     1      29.925  34.984  18.399  1.00  0.00     0.210 HD
ENDBRANCH  22  23
ENDBRANCH  17  22
BRANCH  19  25
ATOM     25  O   UNL     1      27.683  29.455  18.147  1.00  0.00    -0.350 OA
BRANCH  25  26
ATOM     26  C   UNL     1      26.393  29.848  17.862  1.00  0.00     0.169 C 
BRANCH  26  27
ATOM     27  C   UNL     1      25.572  28.801  17.142  1.00  0.00     0.119 C 
BRANCH  27  28
ATOM     28  N   UNL     1      24.568  29.402  16.279  1.00  0.00    -0.092 NA
ATOM     29  N   UNL     1      24.859  30.257  15.436  1.00  0.00     0.001 N 
ATOM     30  N   UNL     1      25.313  31.177  14.763  1.00  0.00    -0.003 NA
ENDBRANCH  27  28
ENDBRANCH  26  27
ENDBRANCH  25  26
ENDBRANCH  19  25
BRANCH  20  31
ATOM     31  O   UNL     1      27.427  32.933  16.229  1.00  0.00    -0.387 OA
ATOM     32  H   UNL     1      26.838  32.551  15.517  1.00  0.00     0.211 HD
ENDBRANCH  20  31
BRANCH  21  33
ATOM     33  O   UNL     1      29.273  30.118  15.534  1.00  0.00    -0.385 OA
ATOM     34  H   UNL     1      29.020  29.165  15.565  1.00  0.00     0.211 HD
ENDBRANCH  21  33
ENDBRANCH  15  16
ENDBRANCH  10  15
BRANCH  12  35
ATOM     35  O   UNL     1      32.984  33.734  14.398  1.00  0.00    -0.385 OA
ATOM     36  H   UNL     1      33.190  34.510  13.811  1.00  0.00     0.211 HD
ENDBRANCH  12  35
BRANCH  13  37
ATOM     37  O   UNL     1      29.847  35.430  14.331  1.00  0.00    -0.387 OA
ATOM     38  H   UNL     1      29.351  34.696  14.743  1.00  0.00     0.211 HD
ENDBRANCH  13  37
BRANCH  14  39
ATOM     39  O   UNL     1      32.259  37.299  14.340  1.00  0.00    -0.387 OA
ATOM     40  H   UNL     1      31.826  37.252  13.452  1.00  0.00     0.211 HD
ENDBRANCH  14  39
ENDBRANCH   8   9
ENDBRANCH   7   8
ENDBRANCH   1   7
BRANCH   1  41
ATOM     41  C   UNL     1      29.849  39.866  15.087  1.00  0.00     0.364 C 
ATOM     42  O   UNL     1      29.332  40.916  15.601  1.00  0.00    -0.246 OA
BRANCH  41  43
ATOM     43  O   UNL     1      31.132  40.031  14.622  1.00  0.00    -0.477 OA
ATOM     44  H   UNL     1      31.599  40.897  14.495  1.00  0.00     0.296 HD
ENDBRANCH  41  43
ENDBRANCH   1  41
BRANCH   3  45
ATOM     45  O   UNL     1      25.734  39.607  13.861  1.00  0.00    -0.391 OA
ATOM     46  H   UNL     1      25.323  40.522  13.793  1.00  0.00     0.211 HD
ENDBRANCH   3  45
BRANCH   5  47
ATOM     47  C   UNL     1      29.525  38.177  11.420  1.00  0.00     0.176 C 
BRANCH  47  48
ATOM     48  O   UNL     1      28.631  38.180  10.420  1.00  0.00    -0.388 OA
ATOM     49  H   UNL     1      27.776  38.658  10.608  1.00  0.00     0.211 HD
ENDBRANCH  47  48
BRANCH  47  50
ATOM     50  C   UNL     1      30.947  38.088  11.151  1.00  0.00     0.165 C 
BRANCH  50  51
ATOM     51  O   UNL     1      31.539  39.097  12.086  1.00  0.00    -0.388 OA
ATOM     52  H   UNL     1      32.415  39.336  11.745  1.00  0.00     0.211 HD
ENDBRANCH  50  51
BRANCH  50  53
ATOM     53  C   UNL     1      31.605  38.295   9.877  1.00  0.00     0.154 C 
BRANCH  53  54
ATOM     54  N   UNL     1      31.046  38.669   8.663  1.00  0.00    -0.319 N 
ATOM     55  C   UNL     1      31.518  39.343   7.518  1.00  0.00     0.407 C 
ATOM     56  H   UNL     1      29.972  38.369   8.570  1.00  0.00     0.167 HD
ATOM     57  O   UNL     1      32.689  39.761   7.453  1.00  0.00    -0.225 OA
BRANCH  55  58
ATOM     58  O   UNL     1      30.711  39.558   6.430  1.00  0.00    -0.443 OA
BRANCH  58  59
ATOM     59  C   UNL     1      29.685  38.817   5.943  1.00  0.00     0.294 C 
BRANCH  59  60
ATOM     60  C   UNL     1      28.457  38.857   6.768  1.00  0.00     0.120 A 
ATOM     61  C   UNL     1      27.317  38.059   6.600  1.00  0.00     0.138 A 
ATOM     62  N   UNL     1      28.118  39.681   7.799  1.00  0.00    -0.132 NA
ATOM     63  N   UNL     1      26.373  38.405   7.482  1.00  0.00    -0.243 N 
ATOM     64  N   UNL     1      26.898  39.390   8.190  1.00  0.00    -0.067 NA
BRANCH  63  65
ATOM     65  C   UNL     1      25.043  37.860   7.676  1.00  0.00     0.246 C 
BRANCH  65  66
ATOM     66  C   UNL     1      25.092  36.963   8.895  1.00  0.00     0.248 C 
ATOM     67  O   UNL     1      24.546  35.833   8.907  1.00  0.00    -0.272 OA
ATOM     68  N   UNL     1      25.769  37.392  10.063  1.00  0.00    -0.293 N 
ATOM     69  H   UNL     1      26.208  38.345   9.997  1.00  0.00     0.173 HD
BRANCH  68  70
ATOM     70  C   UNL     1      25.909  36.663  11.263  1.00  0.00     0.229 A 
ATOM     71  N   UNL     1      25.165  36.860  12.365  1.00  0.00    -0.221 NA
ATOM     72  N   UNL     1      26.858  35.707  11.314  1.00  0.00    -0.221 NA
ATOM     73  C   UNL     1      25.339  36.138  13.512  1.00  0.00     0.117 A 
ATOM     74  C   UNL     1      27.070  34.971  12.406  1.00  0.00     0.117 A 
ATOM     75  C   UNL     1      26.318  35.168  13.532  1.00  0.00     0.040 A 
ENDBRANCH  68  70
ENDBRANCH  65  66
ENDBRANCH  63  65
ENDBRANCH  59  60
ENDBRANCH  58  59
ENDBRANCH  55  58
ENDBRANCH  53  54
ENDBRANCH  50  53
ENDBRANCH  47  50
ENDBRANCH   5  47
BRANCH   4  76
ATOM     76  N   UNL     1      27.656  40.846  11.972  1.00  0.00    -0.348 N 
ATOM     77  C   UNL     1      26.501  41.156  11.160  1.00  0.00     0.217 C 
ATOM     78  H   UNL     1      28.390  41.599  12.053  1.00  0.00     0.163 HD
ATOM     79  C   UNL     1      26.426  42.484  10.516  1.00  0.00     0.114 C 
ATOM     80  O   UNL     1      25.595  40.310  11.014  1.00  0.00    -0.275 OA
ENDBRANCH   4  76
TORSDOF 32
BEGIN_RES LYS A 131
REMARK  4 active torsions:
REMARK  status: ('A' for Active; 'I' for Inactive)
REMARK    1  A    between atoms: CA   and  CB  
REMARK    2  A    between atoms: CB   and  CG  
REMARK    3  A    between atoms: CG   and  CD  
REMARK    4  A    between atoms: CD   and  CE  
ROOT
ATOM      1  CA  LYS A 131      29.867  25.555  16.977  1.00 20.52     0.186 C 
ENDROOT
BRANCH   1   2
ATOM      2  CB  LYS A 131      28.345  25.722  17.026  1.00 20.94     0.034 C 
BRANCH   2   3
ATOM      3  CG  LYS A 131      27.601  24.402  16.889  1.00 22.96     0.005 C 
BRANCH   3   4
ATOM      4  CD  LYS A 131      26.185  24.496  17.385  1.00 24.33     0.041 C 
BRANCH   4   5
ATOM      5  CE  LYS A 131      25.626  23.093  17.599  1.00 26.91     0.338 C 
ATOM      6  NZ  LYS A 131      25.181  22.920  19.002  1.00 27.40     0.618 N 
ENDBRANCH   4   5
ENDBRANCH   3   4
ENDBRANCH   2   3
ENDBRANCH   1   2
END_RES LYS A 131
BEGIN_RES LYS A 135
REMARK  4 active torsions:
REMARK  status: ('A' for Active; 'I' for Inactive)
REMARK    5  A    between atoms: CA   and  CB  
REMARK    6  A    between atoms: CB   and  CG  
REMARK    7  A    between atoms: CG   and  CD  
REMARK    8  A    between atoms: CD   and  CE  
ROOT
ATOM      7  CA  LYS A 135      33.193  34.663   9.290  1.00 25.02     0.186 C 
ENDROOT
BRANCH   7   8
ATOM      8  CB  LYS A 135      32.060  35.360  10.034  1.00 26.63     0.034 C 
BRANCH   8   9
ATOM      9  CG  LYS A 135      30.764  34.592  10.014  1.00 29.45     0.005 C 
BRANCH   9  10
ATOM     10  CD  LYS A 135      30.294  34.369   8.585  1.00 32.00     0.041 C 
BRANCH  10  11
ATOM     11  CE  LYS A 135      29.266  35.414   8.194  1.00 34.25     0.338 C 
ATOM     12  NZ  LYS A 135      27.917  34.805   8.033  1.00 35.99     0.618 N 
ENDBRANCH  10  11
ENDBRANCH   9  10
ENDBRANCH   8   9
ENDBRANCH   7   8
END_RES LYS A 135
