REMARK VINA RESULT:    -2.874      2.890      8.619
REMARK INTER + INTRA:         -21.812
REMARK INTER:                  -8.083
REMARK INTRA:                 -13.729
REMARK UNBOUND:               -13.729
REMARK SMILES CCOC(CCn1cc(COC(=O)NC[C@@H](O)C(O)[C@@H]2O[C@@](OC[C@H]3O[C@@H](O[C@H]4[C@H](O)[C@@H](O)[C@H](OCCN=[N+]=[N-])O[C@@H]4CO)[C@H](O)[C@@H](O)[C@H]3O)(C(=O)O)C[C@H](O)[C@H]2NC(C)=O)nn1)OCC
REMARK SMILES IDX 18 1 20 2 22 3 54 4 21 5 55 6 57 7 23 8 24 9 25 10 27 11
REMARK SMILES IDX 26 12 45 13 47 14 49 15 28 16 29 17 42 18 41 19 34 20 30 21
REMARK SMILES IDX 32 22 43 23 44 24 35 26 36 27 37 28 38 29 39 30 40 31 31 32
REMARK SMILES IDX 33 34 46 36 48 38 50 40 51 42 52 43 53 44 56 46 58 48 59 49
REMARK SMILES IDX 60 51 61 52 19 53 16 55 17 56 15 58 14 59 12 60 13 62 11 63
REMARK SMILES IDX 10 64 9 65 8 66 62 67 7 68 63 69 6 70 5 71 4 72 3 73 2 74
REMARK SMILES IDX 1 75 64 76 65 77 66 78
REMARK H PARENT 44 25 31 33 33 35 46 37 48 39 50 41 53 45 56 47 58 50 19 54
REMARK H PARENT 17 57 14 61
REMARK Flexibility Score: inf
ROOT
ATOM      1  C   UNL     1      28.181  35.235  13.329  1.00  0.00     0.176 C 
ENDROOT
BRANCH   1   2
ATOM      2  C   UNL     1      29.142  34.277  13.968  1.00  0.00     0.178 C 
ATOM      3  C   UNL     1      29.548  33.009  15.860  1.00  0.00     0.272 C 
ATOM      4  C   UNL     1      30.676  32.571  14.995  1.00  0.00     0.113 C 
ATOM      5  O   UNL     1      28.717  33.978  15.253  1.00  0.00    -0.332 OA
ATOM      6  C   UNL     1      31.425  33.650  14.294  1.00  0.00     0.145 C 
ATOM      7  C   UNL     1      30.534  34.891  14.149  1.00  0.00     0.142 C 
BRANCH   3   8
ATOM      8  O   UNL     1      29.815  33.420  17.103  1.00  0.00    -0.338 OA
BRANCH   8   9
ATOM      9  C   UNL     1      30.659  32.753  17.910  1.00  0.00     0.199 C 
BRANCH   9  10
ATOM     10  C   UNL     1      29.978  32.338  19.195  1.00  0.00     0.179 C 
ATOM     11  C   UNL     1      28.155  32.505  20.495  1.00  0.00     0.282 C 
ATOM     12  O   UNL     1      28.599  32.427  19.148  1.00  0.00    -0.341 OA
ATOM     13  C   UNL     1      28.349  31.175  21.121  1.00  0.00     0.202 C 
ATOM     14  C   UNL     1      29.801  30.770  21.017  1.00  0.00     0.179 C 
ATOM     15  C   UNL     1      30.387  30.938  19.640  1.00  0.00     0.177 C 
BRANCH  11  16
ATOM     16  O   UNL     1      26.840  32.983  20.507  1.00  0.00    -0.341 OA
BRANCH  16  17
ATOM     17  C   UNL     1      26.744  34.037  19.655  1.00  0.00     0.184 C 
ATOM     18  C   UNL     1      26.556  35.395  20.214  1.00  0.00     0.178 C 
ATOM     19  O   UNL     1      26.878  36.323  19.214  1.00  0.00    -0.341 OA
ATOM     20  C   UNL     1      25.932  36.270  18.178  1.00  0.00     0.281 C 
ATOM     21  C   UNL     1      25.529  33.851  18.690  1.00  0.00     0.180 C 
ATOM     22  C   UNL     1      25.802  34.883  17.587  1.00  0.00     0.202 C 
BRANCH  18  23
ATOM     23  C   UNL     1      27.460  35.638  21.385  1.00  0.00     0.191 C 
BRANCH  23  24
ATOM     24  O   UNL     1      28.390  36.648  21.136  1.00  0.00    -0.394 OA
ATOM     25  H   UNL     1      28.022  37.541  21.256  1.00  0.00     0.210 HD
ENDBRANCH  23  24
ENDBRANCH  18  23
BRANCH  20  26
ATOM     26  O   UNL     1      26.390  37.116  17.184  1.00  0.00    -0.350 OA
BRANCH  26  27
ATOM     27  C   UNL     1      27.736  37.149  16.981  1.00  0.00     0.169 C 
BRANCH  27  28
ATOM     28  C   UNL     1      28.158  38.504  16.476  1.00  0.00     0.119 C 
BRANCH  28  29
ATOM     29  N   UNL     1      29.237  39.016  17.319  1.00  0.00    -0.092 NA
ATOM     30  N   UNL     1      29.026  38.924  18.546  1.00  0.00     0.001 N 
ATOM     31  N   UNL     1      28.873  39.279  19.717  1.00  0.00    -0.003 NA
ENDBRANCH  28  29
ENDBRANCH  27  28
ENDBRANCH  26  27
ENDBRANCH  20  26
BRANCH  21  32
ATOM     32  O   UNL     1      25.497  32.584  18.172  1.00  0.00    -0.387 OA
ATOM     33  H   UNL     1      24.585  32.207  18.123  1.00  0.00     0.211 HD
ENDBRANCH  21  32
BRANCH  22  34
ATOM     34  O   UNL     1      24.804  34.883  16.651  1.00  0.00    -0.385 OA
ATOM     35  H   UNL     1      23.931  34.838  17.153  1.00  0.00     0.211 HD
ENDBRANCH  22  34
ENDBRANCH  16  17
ENDBRANCH  11  16
BRANCH  13  36
ATOM     36  O   UNL     1      28.062  31.207  22.495  1.00  0.00    -0.385 OA
ATOM     37  H   UNL     1      27.423  31.921  22.716  1.00  0.00     0.211 HD
ENDBRANCH  13  36
BRANCH  14  38
ATOM     38  O   UNL     1      30.025  29.501  21.538  1.00  0.00    -0.387 OA
ATOM     39  H   UNL     1      30.865  29.106  21.179  1.00  0.00     0.211 HD
ENDBRANCH  14  38
BRANCH  15  40
ATOM     40  O   UNL     1      29.901  30.007  18.735  1.00  0.00    -0.387 OA
ATOM     41  H   UNL     1      30.571  29.799  18.046  1.00  0.00     0.211 HD
ENDBRANCH  15  40
ENDBRANCH   9  10
ENDBRANCH   8   9
ENDBRANCH   3   8
BRANCH   3  42
ATOM     42  C   UNL     1      28.638  31.827  15.994  1.00  0.00     0.364 C 
ATOM     43  O   UNL     1      29.062  30.660  15.896  1.00  0.00    -0.246 OA
BRANCH  42  44
ATOM     44  O   UNL     1      27.277  31.985  16.234  1.00  0.00    -0.477 OA
ATOM     45  H   UNL     1      26.957  32.866  16.620  1.00  0.00     0.296 HD
ENDBRANCH  42  44
ENDBRANCH   3  42
BRANCH   6  46
ATOM     46  O   UNL     1      32.634  33.977  14.855  1.00  0.00    -0.391 OA
ATOM     47  H   UNL     1      32.842  33.487  15.689  1.00  0.00     0.211 HD
ENDBRANCH   6  46
BRANCH   7  48
ATOM     48  N   UNL     1      30.933  35.725  13.063  1.00  0.00    -0.348 N 
ATOM     49  C   UNL     1      31.183  37.101  13.327  1.00  0.00     0.217 C 
ATOM     50  H   UNL     1      31.053  35.380  12.091  1.00  0.00     0.163 HD
ATOM     51  C   UNL     1      31.599  37.996  12.217  1.00  0.00     0.114 C 
ATOM     52  O   UNL     1      31.056  37.584  14.503  1.00  0.00    -0.275 OA
ENDBRANCH   7  48
ENDBRANCH   1   2
BRANCH   1  53
ATOM     53  O   UNL     1      27.876  34.708  12.061  1.00  0.00    -0.388 OA
ATOM     54  H   UNL     1      28.620  34.119  11.741  1.00  0.00     0.211 HD
ENDBRANCH   1  53
BRANCH   1  55
ATOM     55  C   UNL     1      26.895  35.210  14.132  1.00  0.00     0.165 C 
BRANCH  55  56
ATOM     56  O   UNL     1      26.310  33.978  14.090  1.00  0.00    -0.388 OA
ATOM     57  H   UNL     1      26.840  33.253  14.507  1.00  0.00     0.211 HD
ENDBRANCH  55  56
BRANCH  55  58
ATOM     58  C   UNL     1      25.948  36.266  13.636  1.00  0.00     0.154 C 
BRANCH  58  59
ATOM     59  N   UNL     1      24.579  35.861  13.502  1.00  0.00    -0.319 N 
ATOM     60  C   UNL     1      24.049  35.141  12.419  1.00  0.00     0.407 C 
ATOM     61  H   UNL     1      23.937  36.144  14.305  1.00  0.00     0.167 HD
ATOM     62  O   UNL     1      24.733  34.769  11.451  1.00  0.00    -0.225 OA
BRANCH  60  63
ATOM     63  O   UNL     1      22.678  34.803  12.388  1.00  0.00    -0.443 OA
BRANCH  63  64
ATOM     64  C   UNL     1      22.306  33.417  12.389  1.00  0.00     0.294 C 
BRANCH  64  65
ATOM     65  C   UNL     1      23.068  32.726  13.461  1.00  0.00     0.120 A 
ATOM     66  C   UNL     1      23.558  31.442  13.445  1.00  0.00     0.138 A 
ATOM     67  N   UNL     1      23.404  33.246  14.644  1.00  0.00    -0.132 NA
ATOM     68  N   UNL     1      24.171  31.241  14.629  1.00  0.00    -0.252 N 
ATOM     69  N   UNL     1      24.061  32.354  15.331  1.00  0.00    -0.067 NA
BRANCH  68  70
ATOM     70  C   UNL     1      24.816  30.017  15.005  1.00  0.00     0.151 C 
BRANCH  70  71
ATOM     71  C   UNL     1      24.034  29.161  15.960  1.00  0.00     0.086 C 
BRANCH  71  72
ATOM     72  C   UNL     1      24.611  29.329  17.365  1.00  0.00     0.251 C 
BRANCH  72  73
ATOM     73  O   UNL     1      23.742  30.155  18.052  1.00  0.00    -0.353 OA
BRANCH  73  74
ATOM     74  C   UNL     1      22.819  29.443  18.806  1.00  0.00     0.160 C 
ATOM     75  C   UNL     1      23.417  28.161  19.351  1.00  0.00     0.035 C 
ENDBRANCH  73  74
ENDBRANCH  72  73
BRANCH  72  76
ATOM     76  O   UNL     1      25.917  29.717  17.345  1.00  0.00    -0.353 OA
BRANCH  76  77
ATOM     77  C   UNL     1      26.733  29.234  18.331  1.00  0.00     0.160 C 
ATOM     78  C   UNL     1      27.023  27.775  18.067  1.00  0.00     0.035 C 
ENDBRANCH  76  77
ENDBRANCH  72  76
ENDBRANCH  71  72
ENDBRANCH  70  71
ENDBRANCH  68  70
ENDBRANCH  64  65
ENDBRANCH  63  64
ENDBRANCH  60  63
ENDBRANCH  58  59
ENDBRANCH  55  58
ENDBRANCH   1  55
TORSDOF 36
BEGIN_RES LYS A 131
REMARK  4 active torsions:
REMARK  status: ('A' for Active; 'I' for Inactive)
REMARK    1  A    between atoms: CA   and  CB  
REMARK    2  A    between atoms: CB   and  CG  
REMARK    3  A    between atoms: CG   and  CD  
REMARK    4  A    between atoms: CD   and  CE  
ROOT
ATOM      1  CA  LYS A 131      29.867  25.555  16.977  1.00 20.52     0.186 C 
ENDROOT
BRANCH   1   2
ATOM      2  CB  LYS A 131      28.345  25.722  17.026  1.00 20.94     0.034 C 
BRANCH   2   3
ATOM      3  CG  LYS A 131      27.599  24.456  16.635  1.00 22.96     0.005 C 
BRANCH   3   4
ATOM      4  CD  LYS A 131      27.033  23.740  17.830  1.00 24.33     0.041 C 
BRANCH   4   5
ATOM      5  CE  LYS A 131      25.661  24.315  18.166  1.00 26.91     0.338 C 
ATOM      6  NZ  LYS A 131      25.572  24.636  19.610  1.00 27.40     0.618 N 
ENDBRANCH   4   5
ENDBRANCH   3   4
ENDBRANCH   2   3
ENDBRANCH   1   2
END_RES LYS A 131
BEGIN_RES LYS A 135
REMARK  4 active torsions:
REMARK  status: ('A' for Active; 'I' for Inactive)
REMARK    5  A    between atoms: CA   and  CB  
REMARK    6  A    between atoms: CB   and  CG  
REMARK    7  A    between atoms: CG   and  CD  
REMARK    8  A    between atoms: CD   and  CE  
ROOT
ATOM      7  CA  LYS A 135      33.193  34.663   9.290  1.00 25.02     0.186 C 
ENDROOT
BRANCH   7   8
ATOM      8  CB  LYS A 135      32.060  35.360  10.034  1.00 26.63     0.034 C 
BRANCH   8   9
ATOM      9  CG  LYS A 135      30.703  34.765   9.759  1.00 29.45     0.005 C 
BRANCH   9  10
ATOM     10  CD  LYS A 135      30.531  34.486   8.274  1.00 32.00     0.041 C 
BRANCH  10  11
ATOM     11  CE  LYS A 135      29.394  35.314   7.704  1.00 34.25     0.338 C 
ATOM     12  NZ  LYS A 135      28.475  35.775   8.781  1.00 35.99     0.618 N 
ENDBRANCH  10  11
ENDBRANCH   9  10
ENDBRANCH   8   9
ENDBRANCH   7   8
END_RES LYS A 135
