REMARK VINA RESULT:    -4.131      4.068      8.629
REMARK INTER + INTRA:         -23.593
REMARK INTER:                 -11.606
REMARK INTRA:                 -11.988
REMARK UNBOUND:               -13.184
REMARK SMILES CC(=O)N[C@@H]1[C@@H](O)C[C@](OC[C@H]2O[C@@H](O[C@H]3[C@H](O)[C@@H](O)[C@H](OCCN=[N+]=[N-])O[C@@H]3CO)[C@H](O)[C@@H](O)[C@H]2O)(C(=O)O)O[C@H]1C(O)[C@H](O)CNC(=O)OCc1cn(-c2cc(Cl)ccc2C(=O)N(C)C)nn1
REMARK SMILES IDX 9 1 8 2 6 3 5 4 42 5 41 6 10 7 11 8 12 9 14 10 13 11 32 12
REMARK SMILES IDX 34 13 36 14 15 15 16 16 29 17 28 18 21 19 17 20 19 21 30 22
REMARK SMILES IDX 31 23 22 25 23 26 24 27 25 28 26 29 27 30 18 31 20 33 33 35
REMARK SMILES IDX 35 37 37 39 38 41 39 42 40 43 7 45 43 47 44 48 45 50 46 51
REMARK SMILES IDX 47 53 48 54 49 55 50 57 51 58 52 59 53 60 54 61 69 62 55 63
REMARK SMILES IDX 68 64 56 65 57 66 62 67 58 68 61 69 59 70 60 71 63 72 64 73
REMARK SMILES IDX 65 74 66 75 67 76 4 77 2 78 1 80 3 81
REMARK H PARENT 31 24 18 32 20 34 33 36 35 38 37 40 40 44 7 46 44 49 46 52
REMARK H PARENT 48 56 4 79
REMARK Flexibility Score: inf
ROOT
ATOM      1  C   UNL     1      25.694  36.590  13.536  1.00  0.00     0.272 C 
ATOM      2  C   UNL     1      25.023  35.275  13.669  1.00  0.00     0.113 C 
ATOM      3  C   UNL     1      24.993  34.570  12.337  1.00  0.00     0.145 C 
ATOM      4  C   UNL     1      24.235  35.467  11.388  1.00  0.00     0.142 C 
ATOM      5  C   UNL     1      24.825  36.812  11.325  1.00  0.00     0.178 C 
ATOM      6  O   UNL     1      25.556  37.278  12.372  1.00  0.00    -0.332 OA
ENDROOT
BRANCH   1   7
ATOM      7  O   UNL     1      27.053  36.501  13.790  1.00  0.00    -0.338 OA
BRANCH   7   8
ATOM      8  C   UNL     1      27.868  37.468  13.318  1.00  0.00     0.199 C 
BRANCH   8   9
ATOM      9  C   UNL     1      29.333  37.052  13.525  1.00  0.00     0.179 C 
ATOM     10  C   UNL     1      30.538  35.941  15.148  1.00  0.00     0.282 C 
ATOM     11  O   UNL     1      29.574  36.979  14.866  1.00  0.00    -0.341 OA
ATOM     12  C   UNL     1      31.639  36.082  14.121  1.00  0.00     0.202 C 
ATOM     13  C   UNL     1      31.160  35.683  12.741  1.00  0.00     0.179 C 
ATOM     14  C   UNL     1      29.658  35.900  12.672  1.00  0.00     0.177 C 
BRANCH  10  15
ATOM     15  O   UNL     1      29.857  34.800  15.125  1.00  0.00    -0.341 OA
BRANCH  15  16
ATOM     16  C   UNL     1      29.276  34.261  16.260  1.00  0.00     0.184 C 
ATOM     17  C   UNL     1      29.434  32.779  16.148  1.00  0.00     0.178 C 
ATOM     18  O   UNL     1      28.850  32.146  17.260  1.00  0.00    -0.341 OA
ATOM     19  C   UNL     1      27.452  32.244  16.936  1.00  0.00     0.281 C 
ATOM     20  C   UNL     1      27.818  34.633  16.334  1.00  0.00     0.180 C 
ATOM     21  C   UNL     1      27.032  33.651  17.149  1.00  0.00     0.202 C 
BRANCH  17  22
ATOM     22  C   UNL     1      30.893  32.386  16.047  1.00  0.00     0.191 C 
BRANCH  22  23
ATOM     23  O   UNL     1      31.236  32.311  14.714  1.00  0.00    -0.394 OA
ATOM     24  H   UNL     1      32.074  32.811  14.551  1.00  0.00     0.210 HD
ENDBRANCH  22  23
ENDBRANCH  17  22
BRANCH  19  25
ATOM     25  O   UNL     1      26.793  31.346  17.681  1.00  0.00    -0.350 OA
BRANCH  25  26
ATOM     26  C   UNL     1      26.291  30.252  16.997  1.00  0.00     0.169 C 
BRANCH  26  27
ATOM     27  C   UNL     1      26.344  30.400  15.490  1.00  0.00     0.119 C 
BRANCH  27  28
ATOM     28  N   UNL     1      25.015  30.345  14.920  1.00  0.00    -0.092 NA
ATOM     29  N   UNL     1      24.210  31.246  15.126  1.00  0.00     0.001 N 
ATOM     30  N   UNL     1      23.566  32.288  15.369  1.00  0.00    -0.003 NA
ENDBRANCH  27  28
ENDBRANCH  26  27
ENDBRANCH  25  26
ENDBRANCH  19  25
BRANCH  20  31
ATOM     31  O   UNL     1      27.637  35.888  16.926  1.00  0.00    -0.387 OA
ATOM     32  H   UNL     1      26.736  35.944  17.360  1.00  0.00     0.211 HD
ENDBRANCH  20  31
BRANCH  21  33
ATOM     33  O   UNL     1      25.681  33.792  16.839  1.00  0.00    -0.385 OA
ATOM     34  H   UNL     1      25.395  34.725  16.740  1.00  0.00     0.211 HD
ENDBRANCH  21  33
ENDBRANCH  15  16
ENDBRANCH  10  15
BRANCH  12  35
ATOM     35  O   UNL     1      31.951  37.455  14.061  1.00  0.00    -0.385 OA
ATOM     36  H   UNL     1      31.533  37.957  14.832  1.00  0.00     0.211 HD
ENDBRANCH  12  35
BRANCH  13  37
ATOM     37  O   UNL     1      31.433  34.387  12.393  1.00  0.00    -0.387 OA
ATOM     38  H   UNL     1      30.712  33.954  11.877  1.00  0.00     0.211 HD
ENDBRANCH  13  37
BRANCH  14  39
ATOM     39  O   UNL     1      28.913  34.763  12.802  1.00  0.00    -0.387 OA
ATOM     40  H   UNL     1      28.394  34.510  12.007  1.00  0.00     0.211 HD
ENDBRANCH  14  39
ENDBRANCH   8   9
ENDBRANCH   7   8
ENDBRANCH   1   7
BRANCH   1  41
ATOM     41  C   UNL     1      25.178  37.497  14.670  1.00  0.00     0.364 C 
ATOM     42  O   UNL     1      24.683  38.589  14.311  1.00  0.00    -0.246 OA
BRANCH  41  43
ATOM     43  O   UNL     1      25.243  37.165  15.986  1.00  0.00    -0.477 OA
ATOM     44  H   UNL     1      26.064  37.172  16.550  1.00  0.00     0.296 HD
ENDBRANCH  41  43
ENDBRANCH   1  41
BRANCH   3  45
ATOM     45  O   UNL     1      26.263  34.255  11.946  1.00  0.00    -0.391 OA
ATOM     46  H   UNL     1      26.558  33.345  12.048  1.00  0.00     0.211 HD
ENDBRANCH   3  45
BRANCH   5  47
ATOM     47  C   UNL     1      25.644  37.108  10.075  1.00  0.00     0.176 C 
BRANCH  47  48
ATOM     48  O   UNL     1      26.978  36.836  10.185  1.00  0.00    -0.388 OA
ATOM     49  H   UNL     1      27.221  36.217  10.924  1.00  0.00     0.211 HD
ENDBRANCH  47  48
BRANCH  47  50
ATOM     50  C   UNL     1      25.101  36.569   8.803  1.00  0.00     0.165 C 
BRANCH  50  51
ATOM     51  O   UNL     1      26.032  36.651   7.740  1.00  0.00    -0.388 OA
ATOM     52  H   UNL     1      26.407  35.764   7.527  1.00  0.00     0.211 HD
ENDBRANCH  50  51
BRANCH  50  53
ATOM     53  C   UNL     1      23.997  37.557   8.358  1.00  0.00     0.154 C 
BRANCH  53  54
ATOM     54  N   UNL     1      24.524  38.492   7.404  1.00  0.00    -0.319 N 
ATOM     55  C   UNL     1      24.641  39.863   7.706  1.00  0.00     0.407 C 
ATOM     56  H   UNL     1      24.843  38.181   6.439  1.00  0.00     0.167 HD
ATOM     57  O   UNL     1      24.309  40.308   8.828  1.00  0.00    -0.225 OA
BRANCH  55  58
ATOM     58  O   UNL     1      25.130  40.773   6.760  1.00  0.00    -0.443 OA
BRANCH  58  59
ATOM     59  C   UNL     1      25.894  40.359   5.662  1.00  0.00     0.294 C 
BRANCH  59  60
ATOM     60  C   UNL     1      27.151  39.685   6.106  1.00  0.00     0.121 A 
ATOM     61  C   UNL     1      28.266  40.364   6.638  1.00  0.00     0.144 A 
ATOM     62  N   UNL     1      27.487  38.404   6.107  1.00  0.00    -0.131 NA
ATOM     63  N   UNL     1      29.205  39.476   6.932  1.00  0.00    -0.219 N 
ATOM     64  N   UNL     1      28.695  38.284   6.593  1.00  0.00    -0.062 NA
BRANCH  63  65
ATOM     65  C   UNL     1      30.501  39.603   7.486  1.00  0.00     0.081 A 
ATOM     66  C   UNL     1      31.606  39.690   6.629  1.00  0.00     0.049 A 
ATOM     67  C   UNL     1      30.782  39.619   8.822  1.00  0.00     0.065 A 
ATOM     68  C   UNL     1      32.872  39.780   7.109  1.00  0.00     0.043 A 
ATOM     69  C   UNL     1      32.095  39.712   9.321  1.00  0.00     0.017 A 
ATOM     70  Cl  UNL     1      34.214  39.885   5.978  1.00  0.00    -0.084 Cl
ATOM     71  C   UNL     1      33.152  39.794   8.448  1.00  0.00     0.021 A 
BRANCH  67  72
ATOM     72  C   UNL     1      29.720  39.588   9.832  1.00  0.00     0.255 C 
ATOM     73  O   UNL     1      29.330  38.480  10.254  1.00  0.00    -0.269 OA
ATOM     74  N   UNL     1      29.161  40.777  10.307  1.00  0.00    -0.345 N 
ATOM     75  C   UNL     1      29.626  42.066   9.802  1.00  0.00     0.146 C 
ATOM     76  C   UNL     1      28.108  40.774  11.320  1.00  0.00     0.146 C 
ENDBRANCH  67  72
ENDBRANCH  63  65
ENDBRANCH  59  60
ENDBRANCH  58  59
ENDBRANCH  55  58
ENDBRANCH  53  54
ENDBRANCH  50  53
ENDBRANCH  47  50
ENDBRANCH   5  47
BRANCH   4  77
ATOM     77  N   UNL     1      22.843  35.468  11.849  1.00  0.00    -0.348 N 
ATOM     78  C   UNL     1      21.750  35.373  10.962  1.00  0.00     0.217 C 
ATOM     79  H   UNL     1      22.638  35.545  12.864  1.00  0.00     0.163 HD
ATOM     80  C   UNL     1      20.340  35.375  11.421  1.00  0.00     0.114 C 
ATOM     81  O   UNL     1      21.980  35.281   9.727  1.00  0.00    -0.275 OA
ENDBRANCH   4  77
TORSDOF 31
BEGIN_RES LYS A 131
REMARK  4 active torsions:
REMARK  status: ('A' for Active; 'I' for Inactive)
REMARK    1  A    between atoms: CA   and  CB  
REMARK    2  A    between atoms: CB   and  CG  
REMARK    3  A    between atoms: CG   and  CD  
REMARK    4  A    between atoms: CD   and  CE  
ROOT
ATOM      1  CA  LYS A 131      29.867  25.555  16.977  1.00 20.52     0.186 C 
ENDROOT
BRANCH   1   2
ATOM      2  CB  LYS A 131      28.345  25.722  17.026  1.00 20.94     0.034 C 
BRANCH   2   3
ATOM      3  CG  LYS A 131      27.599  24.475  16.576  1.00 22.96     0.005 C 
BRANCH   3   4
ATOM      4  CD  LYS A 131      27.019  23.713  17.734  1.00 24.33     0.041 C 
BRANCH   4   5
ATOM      5  CE  LYS A 131      25.940  24.554  18.409  1.00 26.91     0.338 C 
ATOM      6  NZ  LYS A 131      24.772  24.716  17.511  1.00 27.40     0.618 N 
ENDBRANCH   4   5
ENDBRANCH   3   4
ENDBRANCH   2   3
ENDBRANCH   1   2
END_RES LYS A 131
BEGIN_RES LYS A 135
REMARK  4 active torsions:
REMARK  status: ('A' for Active; 'I' for Inactive)
REMARK    5  A    between atoms: CA   and  CB  
REMARK    6  A    between atoms: CB   and  CG  
REMARK    7  A    between atoms: CG   and  CD  
REMARK    8  A    between atoms: CD   and  CE  
ROOT
ATOM      7  CA  LYS A 135      33.193  34.663   9.290  1.00 25.02     0.186 C 
ENDROOT
BRANCH   7   8
ATOM      8  CB  LYS A 135      32.060  35.360  10.034  1.00 26.63     0.034 C 
BRANCH   8   9
ATOM      9  CG  LYS A 135      30.862  35.654   9.168  1.00 29.45     0.005 C 
BRANCH   9  10
ATOM     10  CD  LYS A 135      30.301  34.371   8.575  1.00 32.00     0.041 C 
BRANCH  10  11
ATOM     11  CE  LYS A 135      28.817  34.517   8.298  1.00 34.25     0.338 C 
ATOM     12  NZ  LYS A 135      28.009  33.771   9.302  1.00 35.99     0.618 N 
ENDBRANCH  10  11
ENDBRANCH   9  10
ENDBRANCH   8   9
ENDBRANCH   7   8
END_RES LYS A 135
