REMARK VINA RESULT:    -4.020      4.570      9.335
REMARK INTER + INTRA:         -21.069
REMARK INTER:                  -9.908
REMARK INTRA:                 -11.162
REMARK UNBOUND:               -10.939
REMARK SMILES CC(=O)N[C@@H]1[C@@H](O)C[C@](OC[C@H]2O[C@@H](O[C@H]3[C@H](O)[C@@H](O)[C@H](OCCN=[N+]=[N-])O[C@@H]3CO)[C@H](O)[C@@H](O)[C@H]2O)(C(=O)O)O[C@H]1C(O)[C@H](O)CNC(=O)OCc1cn(Cc2ccsc2)nn1
REMARK SMILES IDX 9 1 8 2 6 3 5 4 42 5 41 6 10 7 11 8 12 9 14 10 13 11 32 12
REMARK SMILES IDX 34 13 36 14 15 15 16 16 29 17 28 18 21 19 17 20 19 21 30 22
REMARK SMILES IDX 31 23 22 25 23 26 24 27 25 28 26 29 27 30 18 31 20 33 33 35
REMARK SMILES IDX 35 37 37 39 38 41 39 42 40 43 7 45 43 47 44 48 45 50 46 51
REMARK SMILES IDX 47 53 48 54 49 55 50 57 51 58 52 59 53 60 54 61 63 62 55 63
REMARK SMILES IDX 62 64 56 65 57 66 58 67 61 68 59 69 60 70 4 71 2 72 1 74
REMARK SMILES IDX 3 75
REMARK H PARENT 31 24 18 32 20 34 33 36 35 38 37 40 40 44 7 46 44 49 46 52
REMARK H PARENT 48 56 4 73
REMARK Flexibility Score: inf
ROOT
ATOM      1  C   UNL     1      24.888  36.859   8.872  1.00  0.00     0.272 C 
ATOM      2  C   UNL     1      23.967  37.613   7.961  1.00  0.00     0.113 C 
ATOM      3  C   UNL     1      22.670  38.047   8.588  1.00  0.00     0.145 C 
ATOM      4  C   UNL     1      22.835  38.587   9.955  1.00  0.00     0.142 C 
ATOM      5  C   UNL     1      24.029  38.040  10.713  1.00  0.00     0.178 C 
ATOM      6  O   UNL     1      25.127  37.767   9.979  1.00  0.00    -0.332 OA
ENDROOT
BRANCH   1   7
ATOM      7  O   UNL     1      26.117  36.781   8.319  1.00  0.00    -0.338 OA
BRANCH   7   8
ATOM      8  C   UNL     1      26.632  37.638   7.457  1.00  0.00     0.199 C 
BRANCH   8   9
ATOM      9  C   UNL     1      27.752  38.552   7.735  1.00  0.00     0.179 C 
ATOM     10  C   UNL     1      29.117  39.025   9.493  1.00  0.00     0.282 C 
ATOM     11  O   UNL     1      28.480  37.950   8.830  1.00  0.00    -0.341 OA
ATOM     12  C   UNL     1      29.859  39.921   8.562  1.00  0.00     0.202 C 
ATOM     13  C   UNL     1      29.945  39.484   7.145  1.00  0.00     0.179 C 
ATOM     14  C   UNL     1      28.823  38.611   6.659  1.00  0.00     0.177 C 
BRANCH  10  15
ATOM     15  O   UNL     1      29.895  38.498  10.492  1.00  0.00    -0.341 OA
BRANCH  15  16
ATOM     16  C   UNL     1      29.181  38.180  11.660  1.00  0.00     0.184 C 
ATOM     17  C   UNL     1      29.918  38.572  12.890  1.00  0.00     0.178 C 
ATOM     18  O   UNL     1      30.661  37.615  13.510  1.00  0.00    -0.341 OA
ATOM     19  C   UNL     1      30.712  36.379  12.843  1.00  0.00     0.281 C 
ATOM     20  C   UNL     1      28.659  36.779  11.633  1.00  0.00     0.180 C 
ATOM     21  C   UNL     1      29.284  35.918  12.740  1.00  0.00     0.202 C 
BRANCH  17  22
ATOM     22  C   UNL     1      29.018  39.225  13.928  1.00  0.00     0.191 C 
BRANCH  22  23
ATOM     23  O   UNL     1      27.797  39.471  13.302  1.00  0.00    -0.394 OA
ATOM     24  H   UNL     1      27.826  39.229  12.329  1.00  0.00     0.210 HD
ENDBRANCH  22  23
ENDBRANCH  17  22
BRANCH  19  25
ATOM     25  O   UNL     1      31.545  35.563  13.560  1.00  0.00    -0.350 OA
BRANCH  25  26
ATOM     26  C   UNL     1      31.731  35.956  14.871  1.00  0.00     0.169 C 
BRANCH  26  27
ATOM     27  C   UNL     1      32.627  35.086  15.689  1.00  0.00     0.119 C 
BRANCH  27  28
ATOM     28  N   UNL     1      31.868  34.150  16.474  1.00  0.00    -0.092 NA
ATOM     29  N   UNL     1      31.540  33.075  15.946  1.00  0.00     0.001 N 
ATOM     30  N   UNL     1      31.172  31.921  15.729  1.00  0.00    -0.003 NA
ENDBRANCH  27  28
ENDBRANCH  26  27
ENDBRANCH  25  26
ENDBRANCH  19  25
BRANCH  20  31
ATOM     31  O   UNL     1      27.284  36.682  11.653  1.00  0.00    -0.387 OA
ATOM     32  H   UNL     1      26.974  36.133  12.403  1.00  0.00     0.211 HD
ENDBRANCH  20  31
BRANCH  21  33
ATOM     33  O   UNL     1      29.176  34.575  12.486  1.00  0.00    -0.385 OA
ATOM     34  H   UNL     1      29.908  34.235  11.901  1.00  0.00     0.211 HD
ENDBRANCH  21  33
ENDBRANCH  15  16
ENDBRANCH  10  15
BRANCH  12  35
ATOM     35  O   UNL     1      29.411  41.264   8.669  1.00  0.00    -0.385 OA
ATOM     36  H   UNL     1      29.368  41.673   7.765  1.00  0.00     0.211 HD
ENDBRANCH  12  35
BRANCH  13  37
ATOM     37  O   UNL     1      31.137  38.752   6.968  1.00  0.00    -0.387 OA
ATOM     38  H   UNL     1      30.903  37.799   6.890  1.00  0.00     0.211 HD
ENDBRANCH  13  37
BRANCH  14  39
ATOM     39  O   UNL     1      29.265  37.272   6.519  1.00  0.00    -0.387 OA
ATOM     40  H   UNL     1      28.472  36.788   6.132  1.00  0.00     0.211 HD
ENDBRANCH  14  39
ENDBRANCH   8   9
ENDBRANCH   7   8
ENDBRANCH   1   7
BRANCH   1  41
ATOM     41  C   UNL     1      24.306  35.677   9.506  1.00  0.00     0.364 C 
ATOM     42  O   UNL     1      23.287  35.103   9.075  1.00  0.00    -0.246 OA
BRANCH  41  43
ATOM     43  O   UNL     1      24.861  35.100  10.663  1.00  0.00    -0.477 OA
ATOM     44  H   UNL     1      24.276  34.648  11.352  1.00  0.00     0.296 HD
ENDBRANCH  41  43
ENDBRANCH   1  41
BRANCH   3  45
ATOM     45  O   UNL     1      22.214  39.103   7.752  1.00  0.00    -0.391 OA
ATOM     46  H   UNL     1      21.292  38.903   7.427  1.00  0.00     0.211 HD
ENDBRANCH   3  45
BRANCH   5  47
ATOM     47  C   UNL     1      24.481  39.123  11.724  1.00  0.00     0.176 C 
BRANCH  47  48
ATOM     48  O   UNL     1      25.753  39.566  11.371  1.00  0.00    -0.388 OA
ATOM     49  H   UNL     1      25.734  39.964  10.472  1.00  0.00     0.211 HD
ENDBRANCH  47  48
BRANCH  47  50
ATOM     50  C   UNL     1      24.562  38.488  13.066  1.00  0.00     0.165 C 
BRANCH  50  51
ATOM     51  O   UNL     1      24.942  37.155  12.917  1.00  0.00    -0.388 OA
ATOM     52  H   UNL     1      24.620  36.607  13.673  1.00  0.00     0.211 HD
ENDBRANCH  50  51
BRANCH  50  53
ATOM     53  C   UNL     1      23.277  38.513  13.851  1.00  0.00     0.154 C 
BRANCH  53  54
ATOM     54  N   UNL     1      23.021  37.296  14.561  1.00  0.00    -0.319 N 
ATOM     55  C   UNL     1      22.332  36.188  14.051  1.00  0.00     0.407 C 
ATOM     56  H   UNL     1      23.385  37.229  15.559  1.00  0.00     0.167 HD
ATOM     57  O   UNL     1      21.891  36.230  12.883  1.00  0.00    -0.225 OA
BRANCH  55  58
ATOM     58  O   UNL     1      22.155  35.075  14.846  1.00  0.00    -0.443 OA
BRANCH  58  59
ATOM     59  C   UNL     1      22.750  33.833  14.604  1.00  0.00     0.294 C 
BRANCH  59  60
ATOM     60  C   UNL     1      24.207  34.013  14.453  1.00  0.00     0.120 A 
ATOM     61  C   UNL     1      25.127  34.106  15.451  1.00  0.00     0.138 A 
ATOM     62  N   UNL     1      24.855  34.112  13.283  1.00  0.00    -0.132 NA
ATOM     63  N   UNL     1      26.327  34.261  14.865  1.00  0.00    -0.248 N 
ATOM     64  N   UNL     1      26.154  34.264  13.559  1.00  0.00    -0.067 NA
BRANCH  63  65
ATOM     65  C   UNL     1      27.579  34.398  15.564  1.00  0.00     0.182 C 
BRANCH  65  66
ATOM     66  C   UNL     1      27.779  33.162  16.449  1.00  0.00    -0.016 A 
ATOM     67  C   UNL     1      28.076  33.220  17.732  1.00  0.00     0.017 A 
ATOM     68  C   UNL     1      27.634  31.915  15.844  1.00  0.00     0.070 A 
ATOM     69  C   UNL     1      28.245  32.072  18.484  1.00  0.00     0.065 A 
ATOM     70  S   UNL     1      27.948  30.786  17.214  1.00  0.00    -0.152 S 
ENDBRANCH  65  66
ENDBRANCH  63  65
ENDBRANCH  59  60
ENDBRANCH  58  59
ENDBRANCH  55  58
ENDBRANCH  53  54
ENDBRANCH  50  53
ENDBRANCH  47  50
ENDBRANCH   5  47
BRANCH   4  71
ATOM     71  N   UNL     1      21.688  38.446  10.800  1.00  0.00    -0.348 N 
ATOM     72  C   UNL     1      20.703  39.459  10.933  1.00  0.00     0.217 C 
ATOM     73  H   UNL     1      21.549  37.570  11.351  1.00  0.00     0.163 HD
ATOM     74  C   UNL     1      19.501  39.322  11.812  1.00  0.00     0.114 C 
ATOM     75  O   UNL     1      20.903  40.506  10.252  1.00  0.00    -0.275 OA
ENDBRANCH   4  71
TORSDOF 31
BEGIN_RES LYS A 131
REMARK  4 active torsions:
REMARK  status: ('A' for Active; 'I' for Inactive)
REMARK    1  A    between atoms: CA   and  CB  
REMARK    2  A    between atoms: CB   and  CG  
REMARK    3  A    between atoms: CG   and  CD  
REMARK    4  A    between atoms: CD   and  CE  
ROOT
ATOM      1  CA  LYS A 131      29.867  25.555  16.977  1.00 20.52     0.186 C 
ENDROOT
BRANCH   1   2
ATOM      2  CB  LYS A 131      28.345  25.722  17.026  1.00 20.94     0.034 C 
BRANCH   2   3
ATOM      3  CG  LYS A 131      27.601  24.403  16.888  1.00 22.96     0.005 C 
BRANCH   3   4
ATOM      4  CD  LYS A 131      26.185  24.496  17.385  1.00 24.33     0.041 C 
BRANCH   4   5
ATOM      5  CE  LYS A 131      25.996  25.809  18.138  1.00 26.91     0.338 C 
ATOM      6  NZ  LYS A 131      24.749  26.482  17.702  1.00 27.40     0.618 N 
ENDBRANCH   4   5
ENDBRANCH   3   4
ENDBRANCH   2   3
ENDBRANCH   1   2
END_RES LYS A 131
BEGIN_RES LYS A 135
REMARK  4 active torsions:
REMARK  status: ('A' for Active; 'I' for Inactive)
REMARK    5  A    between atoms: CA   and  CB  
REMARK    6  A    between atoms: CB   and  CG  
REMARK    7  A    between atoms: CG   and  CD  
REMARK    8  A    between atoms: CD   and  CE  
ROOT
ATOM      7  CA  LYS A 135      33.193  34.663   9.290  1.00 25.02     0.186 C 
ENDROOT
BRANCH   7   8
ATOM      8  CB  LYS A 135      32.060  35.360  10.034  1.00 26.63     0.034 C 
BRANCH   8   9
ATOM      9  CG  LYS A 135      30.802  35.504   9.217  1.00 29.45     0.005 C 
BRANCH   9  10
ATOM     10  CD  LYS A 135      30.107  34.160   9.061  1.00 32.00     0.041 C 
BRANCH  10  11
ATOM     11  CE  LYS A 135      28.659  34.353   8.652  1.00 34.25     0.338 C 
ATOM     12  NZ  LYS A 135      27.739  33.656   9.593  1.00 35.99     0.618 N 
ENDBRANCH  10  11
ENDBRANCH   9  10
ENDBRANCH   8   9
ENDBRANCH   7   8
END_RES LYS A 135
