REMARK VINA RESULT:    -4.727      3.621      9.156
REMARK INTER + INTRA:         -22.300
REMARK INTER:                 -11.637
REMARK INTRA:                 -10.663
REMARK UNBOUND:               -10.664
REMARK SMILES CC(=O)N[C@@H]1[C@@H](O)C[C@](OC[C@H]2O[C@@H](O[C@H]3[C@H](O)[C@@H](O)[C@H](OCCN=[N+]=[N-])O[C@@H]3CO)[C@H](O)[C@@H](O)[C@H]2O)(C(=O)O)O[C@H]1C(O)[C@H](O)CNC(=O)OCc1cn(-c2ccc(Br)cc2)nn1
REMARK SMILES IDX 9 1 8 2 6 3 5 4 42 5 41 6 10 7 11 8 12 9 14 10 13 11 32 12
REMARK SMILES IDX 34 13 36 14 15 15 16 16 29 17 28 18 21 19 17 20 19 21 30 22
REMARK SMILES IDX 31 23 22 25 23 26 24 27 25 28 26 29 27 30 18 31 20 33 33 35
REMARK SMILES IDX 35 37 37 39 38 41 39 42 40 43 7 45 43 47 44 48 45 50 46 51
REMARK SMILES IDX 47 53 48 54 49 55 50 57 51 58 52 59 53 60 54 61 64 62 55 63
REMARK SMILES IDX 63 64 56 65 57 66 62 67 58 68 61 69 59 70 60 71 4 72 2 73
REMARK SMILES IDX 1 75 3 76
REMARK H PARENT 31 24 18 32 20 34 33 36 35 38 37 40 40 44 7 46 44 49 46 52
REMARK H PARENT 48 56 4 74
REMARK Flexibility Score: inf
ROOT
ATOM      1  C   UNL     1      26.971  33.624  14.997  1.00  0.00     0.272 C 
ATOM      2  C   UNL     1      26.762  34.363  16.347  1.00  0.00     0.113 C 
ATOM      3  C   UNL     1      25.662  33.682  17.073  1.00  0.00     0.145 C 
ATOM      4  C   UNL     1      26.084  32.209  17.243  1.00  0.00     0.142 C 
ATOM      5  C   UNL     1      26.066  31.644  15.842  1.00  0.00     0.178 C 
ATOM      6  O   UNL     1      27.088  32.275  15.171  1.00  0.00    -0.332 OA
ENDROOT
BRANCH   1   7
ATOM      7  O   UNL     1      28.206  34.125  14.571  1.00  0.00    -0.338 OA
BRANCH   7   8
ATOM      8  C   UNL     1      28.156  35.207  13.745  1.00  0.00     0.199 C 
BRANCH   8   9
ATOM      9  C   UNL     1      29.486  35.965  13.930  1.00  0.00     0.179 C 
ATOM     10  C   UNL     1      31.346  35.833  15.320  1.00  0.00     0.282 C 
ATOM     11  O   UNL     1      29.979  35.802  15.193  1.00  0.00    -0.341 OA
ATOM     12  C   UNL     1      32.046  36.559  14.243  1.00  0.00     0.202 C 
ATOM     13  C   UNL     1      31.656  36.201  12.845  1.00  0.00     0.179 C 
ATOM     14  C   UNL     1      30.405  35.385  12.866  1.00  0.00     0.177 C 
BRANCH  10  15
ATOM     15  O   UNL     1      31.752  34.520  15.555  1.00  0.00    -0.341 OA
BRANCH  15  16
ATOM     16  C   UNL     1      31.093  33.958  16.634  1.00  0.00     0.184 C 
ATOM     17  C   UNL     1      31.929  33.979  17.873  1.00  0.00     0.178 C 
ATOM     18  O   UNL     1      31.189  33.563  18.943  1.00  0.00    -0.341 OA
ATOM     19  C   UNL     1      30.039  32.870  18.716  1.00  0.00     0.281 C 
ATOM     20  C   UNL     1      30.813  32.469  16.373  1.00  0.00     0.180 C 
ATOM     21  C   UNL     1      30.078  31.892  17.564  1.00  0.00     0.202 C 
BRANCH  17  22
ATOM     22  C   UNL     1      32.393  35.397  18.146  1.00  0.00     0.191 C 
BRANCH  22  23
ATOM     23  O   UNL     1      33.681  35.584  17.704  1.00  0.00    -0.394 OA
ATOM     24  H   UNL     1      33.880  35.014  16.940  1.00  0.00     0.210 HD
ENDBRANCH  22  23
ENDBRANCH  17  22
BRANCH  19  25
ATOM     25  O   UNL     1      28.909  33.679  18.674  1.00  0.00    -0.350 OA
BRANCH  25  26
ATOM     26  C   UNL     1      28.659  34.366  19.846  1.00  0.00     0.169 C 
BRANCH  26  27
ATOM     27  C   UNL     1      28.457  33.496  21.042  1.00  0.00     0.119 C 
BRANCH  27  28
ATOM     28  N   UNL     1      29.398  33.866  22.085  1.00  0.00    -0.092 NA
ATOM     29  N   UNL     1      30.293  33.058  22.348  1.00  0.00     0.001 N 
ATOM     30  N   UNL     1      31.300  32.361  22.594  1.00  0.00    -0.003 NA
ENDBRANCH  27  28
ENDBRANCH  26  27
ENDBRANCH  25  26
ENDBRANCH  19  25
BRANCH  20  31
ATOM     31  O   UNL     1      30.142  32.309  15.173  1.00  0.00    -0.387 OA
ATOM     32  H   UNL     1      30.204  33.125  14.608  1.00  0.00     0.211 HD
ENDBRANCH  20  31
BRANCH  21  33
ATOM     33  O   UNL     1      30.564  30.674  17.981  1.00  0.00    -0.385 OA
ATOM     34  H   UNL     1      31.097  30.815  18.799  1.00  0.00     0.211 HD
ENDBRANCH  21  33
ENDBRANCH  15  16
ENDBRANCH  10  15
BRANCH  12  35
ATOM     35  O   UNL     1      31.839  37.945  14.485  1.00  0.00    -0.385 OA
ATOM     36  H   UNL     1      31.408  38.357  13.682  1.00  0.00     0.211 HD
ENDBRANCH  12  35
BRANCH  13  37
ATOM     37  O   UNL     1      32.677  35.444  12.222  1.00  0.00    -0.387 OA
ATOM     38  H   UNL     1      32.869  34.701  12.848  1.00  0.00     0.211 HD
ENDBRANCH  13  37
BRANCH  14  39
ATOM     39  O   UNL     1      30.655  34.032  13.081  1.00  0.00    -0.387 OA
ATOM     40  H   UNL     1      31.496  33.905  13.586  1.00  0.00     0.211 HD
ENDBRANCH  14  39
ENDBRANCH   8   9
ENDBRANCH   7   8
ENDBRANCH   1   7
BRANCH   1  41
ATOM     41  C   UNL     1      25.925  34.103  14.096  1.00  0.00     0.364 C 
ATOM     42  O   UNL     1      25.299  35.177  14.267  1.00  0.00    -0.246 OA
BRANCH  41  43
ATOM     43  O   UNL     1      25.573  33.368  12.980  1.00  0.00    -0.477 OA
ATOM     44  H   UNL     1      24.858  32.642  12.979  1.00  0.00     0.296 HD
ENDBRANCH  41  43
ENDBRANCH   1  41
BRANCH   3  45
ATOM     45  O   UNL     1      25.510  34.168  18.364  1.00  0.00    -0.391 OA
ATOM     46  H   UNL     1      25.912  35.059  18.427  1.00  0.00     0.211 HD
ENDBRANCH   3  45
BRANCH   5  47
ATOM     47  C   UNL     1      26.308  30.176  15.750  1.00  0.00     0.176 C 
BRANCH  47  48
ATOM     48  O   UNL     1      25.134  29.570  16.281  1.00  0.00    -0.388 OA
ATOM     49  H   UNL     1      24.366  29.840  15.716  1.00  0.00     0.211 HD
ENDBRANCH  47  48
BRANCH  47  50
ATOM     50  C   UNL     1      27.413  29.658  16.659  1.00  0.00     0.165 C 
BRANCH  50  51
ATOM     51  O   UNL     1      28.539  29.585  15.792  1.00  0.00    -0.388 OA
ATOM     52  H   UNL     1      28.702  28.619  15.552  1.00  0.00     0.211 HD
ENDBRANCH  50  51
BRANCH  50  53
ATOM     53  C   UNL     1      27.147  28.268  17.123  1.00  0.00     0.154 C 
BRANCH  53  54
ATOM     54  N   UNL     1      27.695  28.021  18.417  1.00  0.00    -0.319 N 
ATOM     55  C   UNL     1      26.980  27.447  19.516  1.00  0.00     0.407 C 
ATOM     56  H   UNL     1      28.714  28.268  18.629  1.00  0.00     0.167 HD
ATOM     57  O   UNL     1      25.777  27.136  19.352  1.00  0.00    -0.225 OA
BRANCH  55  58
ATOM     58  O   UNL     1      27.572  27.225  20.737  1.00  0.00    -0.443 OA
BRANCH  58  59
ATOM     59  C   UNL     1      27.868  28.304  21.585  1.00  0.00     0.294 C 
BRANCH  59  60
ATOM     60  C   UNL     1      29.276  28.707  21.370  1.00  0.00     0.121 A 
ATOM     61  C   UNL     1      30.341  28.321  22.193  1.00  0.00     0.144 A 
ATOM     62  N   UNL     1      29.833  29.478  20.424  1.00  0.00    -0.131 NA
ATOM     63  N   UNL     1      31.472  28.867  21.714  1.00  0.00    -0.220 N 
ATOM     64  N   UNL     1      31.132  29.560  20.646  1.00  0.00    -0.062 NA
BRANCH  63  65
ATOM     65  C   UNL     1      32.748  28.683  22.314  1.00  0.00     0.066 A 
ATOM     66  C   UNL     1      33.774  29.571  22.254  1.00  0.00     0.029 A 
ATOM     67  C   UNL     1      32.927  27.497  23.019  1.00  0.00     0.029 A 
ATOM     68  C   UNL     1      34.961  29.275  22.890  1.00  0.00     0.018 A 
ATOM     69  C   UNL     1      34.118  27.215  23.649  1.00  0.00     0.018 A 
ATOM     70  C   UNL     1      35.165  28.112  23.592  1.00  0.00     0.018 A 
ATOM     71  Br  UNL     1      36.823  27.743  24.461  1.00  0.00    -0.051 Br
ENDBRANCH  63  65
ENDBRANCH  59  60
ENDBRANCH  58  59
ENDBRANCH  55  58
ENDBRANCH  53  54
ENDBRANCH  50  53
ENDBRANCH  47  50
ENDBRANCH   5  47
BRANCH   4  72
ATOM     72  N   UNL     1      25.143  31.623  18.149  1.00  0.00    -0.348 N 
ATOM     73  C   UNL     1      25.546  30.984  19.354  1.00  0.00     0.217 C 
ATOM     74  H   UNL     1      24.133  31.660  17.928  1.00  0.00     0.163 HD
ATOM     75  C   UNL     1      24.596  30.367  20.309  1.00  0.00     0.114 C 
ATOM     76  O   UNL     1      26.783  30.925  19.649  1.00  0.00    -0.275 OA
ENDBRANCH   4  72
TORSDOF 30
BEGIN_RES LYS A 131
REMARK  4 active torsions:
REMARK  status: ('A' for Active; 'I' for Inactive)
REMARK    1  A    between atoms: CA   and  CB  
REMARK    2  A    between atoms: CB   and  CG  
REMARK    3  A    between atoms: CG   and  CD  
REMARK    4  A    between atoms: CD   and  CE  
ROOT
ATOM      1  CA  LYS A 131      29.867  25.555  16.977  1.00 20.52     0.186 C 
ENDROOT
BRANCH   1   2
ATOM      2  CB  LYS A 131      28.345  25.722  17.026  1.00 20.94     0.034 C 
BRANCH   2   3
ATOM      3  CG  LYS A 131      27.599  24.419  16.779  1.00 22.96     0.005 C 
BRANCH   3   4
ATOM      4  CD  LYS A 131      26.817  23.978  17.985  1.00 24.33     0.041 C 
BRANCH   4   5
ATOM      5  CE  LYS A 131      25.454  23.454  17.543  1.00 26.91     0.338 C 
ATOM      6  NZ  LYS A 131      24.384  23.993  18.415  1.00 27.40     0.618 N 
ENDBRANCH   4   5
ENDBRANCH   3   4
ENDBRANCH   2   3
ENDBRANCH   1   2
END_RES LYS A 131
BEGIN_RES LYS A 135
REMARK  4 active torsions:
REMARK  status: ('A' for Active; 'I' for Inactive)
REMARK    5  A    between atoms: CA   and  CB  
REMARK    6  A    between atoms: CB   and  CG  
REMARK    7  A    between atoms: CG   and  CD  
REMARK    8  A    between atoms: CD   and  CE  
ROOT
ATOM      7  CA  LYS A 135      33.193  34.663   9.290  1.00 25.02     0.186 C 
ENDROOT
BRANCH   7   8
ATOM      8  CB  LYS A 135      32.060  35.360  10.034  1.00 26.63     0.034 C 
BRANCH   8   9
ATOM      9  CG  LYS A 135      30.805  35.513   9.214  1.00 29.45     0.005 C 
BRANCH   9  10
ATOM     10  CD  LYS A 135      30.130  34.166   9.009  1.00 32.00     0.041 C 
BRANCH  10  11
ATOM     11  CE  LYS A 135      28.668  34.351   8.652  1.00 34.25     0.338 C 
ATOM     12  NZ  LYS A 135      27.782  33.788   9.709  1.00 35.99     0.618 N 
ENDBRANCH  10  11
ENDBRANCH   9  10
ENDBRANCH   8   9
ENDBRANCH   7   8
END_RES LYS A 135
