REMARK VINA RESULT:    -4.792      6.243     11.489
REMARK INTER + INTRA:         -23.543
REMARK INTER:                 -11.367
REMARK INTRA:                 -12.176
REMARK UNBOUND:               -10.207
REMARK SMILES CC(=O)N[C@@H]1[C@@H](O)C[C@](OC[C@H]2O[C@@H](O[C@H]3[C@H](O)[C@@H](O)[C@H](OCCN=[N+]=[N-])O[C@@H]3CO)[C@H](O)[C@@H](O)[C@H]2O)(C(=O)O)O[C@H]1C(O)[C@H](O)CNC(=O)OCc1cn(C[C@H](CC(=O)O)CC(C)C)nn1
REMARK SMILES IDX 43 1 42 2 9 3 8 4 41 5 6 6 5 7 10 8 11 9 12 10 14 11 13 12
REMARK SMILES IDX 32 13 34 14 36 15 15 16 16 17 29 18 28 19 21 20 17 21 19 22
REMARK SMILES IDX 30 23 31 24 22 26 23 27 24 28 25 29 26 30 27 31 18 32 20 34
REMARK SMILES IDX 33 36 35 38 37 40 38 42 39 43 40 44 7 46 4 48 2 49 1 51 3 52
REMARK SMILES IDX 44 53 45 55 46 56 47 58 48 59 49 60 50 62 51 63 52 64 53 65
REMARK SMILES IDX 54 66 67 67 55 68 66 69 56 70 57 71 58 72 59 73 60 74 61 75
REMARK SMILES IDX 62 77 63 78 64 79 65 80
REMARK H PARENT 31 25 18 33 20 35 33 37 35 39 37 41 40 45 7 47 4 50 44 54
REMARK H PARENT 46 57 48 61 61 76
REMARK Flexibility Score: inf
ROOT
ATOM      1  C   UNL     1      22.741  39.553   8.919  1.00  0.00     0.176 C 
ENDROOT
BRANCH   1   2
ATOM      2  C   UNL     1      22.700  38.345   9.812  1.00  0.00     0.178 C 
ATOM      3  C   UNL     1      24.393  36.645   9.581  1.00  0.00     0.272 C 
ATOM      4  C   UNL     1      23.474  35.809   8.766  1.00  0.00     0.113 C 
ATOM      5  O   UNL     1      23.970  37.864   9.843  1.00  0.00    -0.332 OA
ATOM      6  C   UNL     1      22.223  36.429   8.291  1.00  0.00     0.145 C 
ATOM      7  C   UNL     1      21.645  37.430   9.293  1.00  0.00     0.142 C 
BRANCH   3   8
ATOM      8  O   UNL     1      25.652  36.732   8.926  1.00  0.00    -0.338 OA
BRANCH   8   9
ATOM      9  C   UNL     1      25.626  36.439   7.599  1.00  0.00     0.199 C 
BRANCH   9  10
ATOM     10  C   UNL     1      26.499  37.444   6.815  1.00  0.00     0.179 C 
ATOM     11  C   UNL     1      27.950  39.228   7.128  1.00  0.00     0.282 C 
ATOM     12  O   UNL     1      27.401  38.068   7.653  1.00  0.00    -0.341 OA
ATOM     13  C   UNL     1      28.096  38.997   5.615  1.00  0.00     0.202 C 
ATOM     14  C   UNL     1      28.439  37.548   5.339  1.00  0.00     0.179 C 
ATOM     15  C   UNL     1      27.318  36.667   5.775  1.00  0.00     0.177 C 
BRANCH  11  16
ATOM     16  O   UNL     1      29.235  39.357   7.593  1.00  0.00    -0.341 OA
BRANCH  16  17
ATOM     17  C   UNL     1      29.442  39.053   8.912  1.00  0.00     0.184 C 
ATOM     18  C   UNL     1      29.186  40.184   9.864  1.00  0.00     0.178 C 
ATOM     19  O   UNL     1      30.277  40.633  10.548  1.00  0.00    -0.341 OA
ATOM     20  C   UNL     1      30.961  39.675  11.271  1.00  0.00     0.281 C 
ATOM     21  C   UNL     1      30.896  38.653   9.060  1.00  0.00     0.180 C 
ATOM     22  C   UNL     1      31.157  38.388  10.549  1.00  0.00     0.202 C 
BRANCH  18  23
ATOM     23  C   UNL     1      28.039  39.774  10.771  1.00  0.00     0.191 C 
BRANCH  23  24
ATOM     24  O   UNL     1      27.464  38.577  10.351  1.00  0.00    -0.394 OA
ATOM     25  H   UNL     1      26.490  38.534  10.556  1.00  0.00     0.210 HD
ENDBRANCH  23  24
ENDBRANCH  18  23
BRANCH  20  26
ATOM     26  O   UNL     1      30.341  39.554  12.505  1.00  0.00    -0.350 OA
BRANCH  26  27
ATOM     27  C   UNL     1      30.404  38.272  13.025  1.00  0.00     0.169 C 
BRANCH  27  28
ATOM     28  C   UNL     1      29.138  38.066  13.845  1.00  0.00     0.119 C 
BRANCH  28  29
ATOM     29  N   UNL     1      28.306  37.159  13.068  1.00  0.00    -0.092 NA
ATOM     30  N   UNL     1      28.460  35.968  13.207  1.00  0.00     0.001 N 
ATOM     31  N   UNL     1      28.505  34.742  13.037  1.00  0.00    -0.003 NA
ENDBRANCH  28  29
ENDBRANCH  27  28
ENDBRANCH  26  27
ENDBRANCH  20  26
BRANCH  21  32
ATOM     32  O   UNL     1      31.166  37.538   8.287  1.00  0.00    -0.387 OA
ATOM     33  H   UNL     1      32.140  37.318   8.427  1.00  0.00     0.211 HD
ENDBRANCH  21  32
BRANCH  22  34
ATOM     34  O   UNL     1      32.490  37.929  10.602  1.00  0.00    -0.385 OA
ATOM     35  H   UNL     1      33.070  38.715  10.511  1.00  0.00     0.211 HD
ENDBRANCH  22  34
ENDBRANCH  16  17
ENDBRANCH  11  16
BRANCH  13  36
ATOM     36  O   UNL     1      27.023  39.465   4.898  1.00  0.00    -0.385 OA
ATOM     37  H   UNL     1      26.647  38.831   4.263  1.00  0.00     0.211 HD
ENDBRANCH  13  36
BRANCH  14  38
ATOM     38  O   UNL     1      29.571  37.273   6.133  1.00  0.00    -0.387 OA
ATOM     39  H   UNL     1      30.395  37.300   5.623  1.00  0.00     0.211 HD
ENDBRANCH  14  38
BRANCH  15  40
ATOM     40  O   UNL     1      27.888  35.528   6.382  1.00  0.00    -0.387 OA
ATOM     41  H   UNL     1      27.202  34.906   6.671  1.00  0.00     0.211 HD
ENDBRANCH  15  40
ENDBRANCH   9  10
ENDBRANCH   8   9
ENDBRANCH   3   8
BRANCH   3  42
ATOM     42  C   UNL     1      24.747  35.906  10.858  1.00  0.00     0.364 C 
ATOM     43  O   UNL     1      23.974  35.062  11.329  1.00  0.00    -0.246 OA
BRANCH  42  44
ATOM     44  O   UNL     1      25.922  36.165  11.504  1.00  0.00    -0.477 OA
ATOM     45  H   UNL     1      26.170  35.746  12.399  1.00  0.00     0.296 HD
ENDBRANCH  42  44
ENDBRANCH   3  42
BRANCH   6  46
ATOM     46  O   UNL     1      22.245  36.999   7.036  1.00  0.00    -0.391 OA
ATOM     47  H   UNL     1      21.742  37.848   7.100  1.00  0.00     0.211 HD
ENDBRANCH   6  46
BRANCH   7  48
ATOM     48  N   UNL     1      20.956  36.635  10.274  1.00  0.00    -0.348 N 
ATOM     49  C   UNL     1      19.532  36.444  10.117  1.00  0.00     0.217 C 
ATOM     50  H   UNL     1      21.388  36.178  11.107  1.00  0.00     0.163 HD
ATOM     51  C   UNL     1      18.816  35.607  11.141  1.00  0.00     0.114 C 
ATOM     52  O   UNL     1      18.888  36.949   9.166  1.00  0.00    -0.275 OA
ENDBRANCH   7  48
ENDBRANCH   1   2
BRANCH   1  53
ATOM     53  O   UNL     1      21.641  39.476   8.013  1.00  0.00    -0.388 OA
ATOM     54  H   UNL     1      20.794  39.521   8.528  1.00  0.00     0.211 HD
ENDBRANCH   1  53
BRANCH   1  55
ATOM     55  C   UNL     1      23.938  39.694   8.007  1.00  0.00     0.165 C 
BRANCH  55  56
ATOM     56  O   UNL     1      24.931  40.222   8.942  1.00  0.00    -0.388 OA
ATOM     57  H   UNL     1      24.554  41.141   9.130  1.00  0.00     0.211 HD
ENDBRANCH  55  56
BRANCH  55  58
ATOM     58  C   UNL     1      23.795  40.810   7.030  1.00  0.00     0.154 C 
BRANCH  58  59
ATOM     59  N   UNL     1      24.925  40.941   6.181  1.00  0.00    -0.319 N 
ATOM     60  C   UNL     1      25.773  42.087   6.418  1.00  0.00     0.407 C 
ATOM     61  H   UNL     1      25.224  40.324   5.404  1.00  0.00     0.167 HD
ATOM     62  O   UNL     1      25.485  42.896   7.345  1.00  0.00    -0.225 OA
BRANCH  60  63
ATOM     63  O   UNL     1      26.900  42.364   5.677  1.00  0.00    -0.443 OA
BRANCH  63  64
ATOM     64  C   UNL     1      28.091  42.940   6.171  1.00  0.00     0.294 C 
BRANCH  64  65
ATOM     65  C   UNL     1      29.289  42.597   5.354  1.00  0.00     0.120 A 
ATOM     66  C   UNL     1      30.563  43.107   5.440  1.00  0.00     0.138 A 
ATOM     67  N   UNL     1      29.301  41.692   4.370  1.00  0.00    -0.132 NA
ATOM     68  N   UNL     1      31.333  42.493   4.490  1.00  0.00    -0.252 N 
ATOM     69  N   UNL     1      30.527  41.657   3.880  1.00  0.00    -0.067 NA
BRANCH  68  70
ATOM     70  C   UNL     1      32.701  42.732   4.208  1.00  0.00     0.150 C 
BRANCH  70  71
ATOM     71  C   UNL     1      33.665  41.966   5.012  1.00  0.00     0.022 C 
BRANCH  71  72
ATOM     72  C   UNL     1      33.632  40.489   4.887  1.00  0.00     0.128 C 
BRANCH  72  73
ATOM     73  C   UNL     1      32.852  39.750   5.889  1.00  0.00     0.303 C 
ATOM     74  O   UNL     1      33.428  39.319   6.922  1.00  0.00    -0.252 OA
BRANCH  73  75
ATOM     75  O   UNL     1      31.493  39.492   5.768  1.00  0.00    -0.481 OA
ATOM     76  H   UNL     1      31.020  39.657   4.892  1.00  0.00     0.296 HD
ENDBRANCH  73  75
ENDBRANCH  72  73
ENDBRANCH  71  72
BRANCH  71  77
ATOM     77  C   UNL     1      33.812  42.433   6.432  1.00  0.00     0.009 C 
BRANCH  77  78
ATOM     78  C   UNL     1      35.147  42.611   7.000  1.00  0.00    -0.017 C 
ATOM     79  C   UNL     1      36.308  42.755   6.083  1.00  0.00     0.007 C 
ATOM     80  C   UNL     1      35.242  43.700   8.052  1.00  0.00     0.007 C 
ENDBRANCH  77  78
ENDBRANCH  71  77
ENDBRANCH  70  71
ENDBRANCH  68  70
ENDBRANCH  64  65
ENDBRANCH  63  64
ENDBRANCH  60  63
ENDBRANCH  58  59
ENDBRANCH  55  58
ENDBRANCH   1  55
TORSDOF 36
BEGIN_RES LYS A 131
REMARK  4 active torsions:
REMARK  status: ('A' for Active; 'I' for Inactive)
REMARK    1  A    between atoms: CA   and  CB  
REMARK    2  A    between atoms: CB   and  CG  
REMARK    3  A    between atoms: CG   and  CD  
REMARK    4  A    between atoms: CD   and  CE  
ROOT
ATOM      1  CA  LYS A 131      29.867  25.555  16.977  1.00 20.52     0.186 C 
ENDROOT
BRANCH   1   2
ATOM      2  CB  LYS A 131      28.345  25.722  17.026  1.00 20.94     0.034 C 
BRANCH   2   3
ATOM      3  CG  LYS A 131      27.600  24.412  16.818  1.00 22.96     0.005 C 
BRANCH   3   4
ATOM      4  CD  LYS A 131      26.802  24.016  18.029  1.00 24.33     0.041 C 
BRANCH   4   5
ATOM      5  CE  LYS A 131      25.561  23.246  17.592  1.00 26.91     0.338 C 
ATOM      6  NZ  LYS A 131      24.616  24.143  16.885  1.00 27.40     0.618 N 
ENDBRANCH   4   5
ENDBRANCH   3   4
ENDBRANCH   2   3
ENDBRANCH   1   2
END_RES LYS A 131
BEGIN_RES LYS A 135
REMARK  4 active torsions:
REMARK  status: ('A' for Active; 'I' for Inactive)
REMARK    5  A    between atoms: CA   and  CB  
REMARK    6  A    between atoms: CB   and  CG  
REMARK    7  A    between atoms: CG   and  CD  
REMARK    8  A    between atoms: CD   and  CE  
ROOT
ATOM      7  CA  LYS A 135      33.193  34.663   9.290  1.00 25.02     0.186 C 
ENDROOT
BRANCH   7   8
ATOM      8  CB  LYS A 135      32.060  35.360  10.034  1.00 26.63     0.034 C 
BRANCH   8   9
ATOM      9  CG  LYS A 135      30.904  34.450  10.360  1.00 29.45     0.005 C 
BRANCH   9  10
ATOM     10  CD  LYS A 135      29.975  34.314   9.164  1.00 32.00     0.041 C 
BRANCH  10  11
ATOM     11  CE  LYS A 135      28.605  34.881   9.486  1.00 34.25     0.338 C 
ATOM     12  NZ  LYS A 135      27.565  33.815   9.467  1.00 35.99     0.618 N 
ENDBRANCH  10  11
ENDBRANCH   9  10
ENDBRANCH   8   9
ENDBRANCH   7   8
END_RES LYS A 135
