REMARK VINA RESULT:    -3.753      4.846      9.556
REMARK INTER + INTRA:         -22.995
REMARK INTER:                 -11.286
REMARK INTRA:                 -11.709
REMARK UNBOUND:               -13.100
REMARK SMILES CC(=O)N[C@@H]1[C@@H](O)C[C@](OC[C@H]2O[C@@H](O[C@H]3[C@H](O)[C@@H](O)[C@H](OCCN=[N+]=[N-])O[C@@H]3CO)[C@H](O)[C@@H](O)[C@H]2O)(C(=O)O)O[C@H]1C(O)[C@H](O)CNC(=O)OCc1cn(CCNS(C)(=O)=O)nn1
REMARK SMILES IDX 43 1 42 2 9 3 8 4 41 5 6 6 5 7 10 8 11 9 12 10 14 11 13 12
REMARK SMILES IDX 32 13 34 14 36 15 15 16 16 17 29 18 28 19 21 20 17 21 19 22
REMARK SMILES IDX 30 23 31 24 22 26 23 27 24 28 25 29 26 30 27 31 18 32 20 34
REMARK SMILES IDX 33 36 35 38 37 40 38 42 39 43 40 44 7 46 4 48 2 49 1 51 3 52
REMARK SMILES IDX 44 53 45 55 46 56 47 58 48 59 49 60 50 62 51 63 52 64 53 65
REMARK SMILES IDX 54 66 64 67 55 68 63 69 56 70 57 71 58 72 59 74 61 75 62 76
REMARK SMILES IDX 60 77
REMARK H PARENT 31 25 18 33 20 35 33 37 35 39 37 41 40 45 7 47 4 50 44 54
REMARK H PARENT 46 57 48 61 58 73
REMARK Flexibility Score: inf
ROOT
ATOM      1  C   UNL     1      28.735  36.553  12.963  1.00  0.00     0.176 C 
ENDROOT
BRANCH   1   2
ATOM      2  C   UNL     1      27.374  36.162  13.569  1.00  0.00     0.178 C 
ATOM      3  C   UNL     1      25.279  35.477  12.778  1.00  0.00     0.272 C 
ATOM      4  C   UNL     1      24.553  36.650  13.302  1.00  0.00     0.113 C 
ATOM      5  O   UNL     1      26.616  35.757  12.523  1.00  0.00    -0.332 OA
ATOM      6  C   UNL     1      25.403  37.693  13.972  1.00  0.00     0.145 C 
ATOM      7  C   UNL     1      26.801  37.304  14.312  1.00  0.00     0.142 C 
BRANCH   3   8
ATOM      8  O   UNL     1      24.808  34.951  11.570  1.00  0.00    -0.338 OA
BRANCH   8   9
ATOM      9  C   UNL     1      23.471  35.234  11.350  1.00  0.00     0.199 C 
BRANCH   9  10
ATOM     10  C   UNL     1      23.327  36.235  10.257  1.00  0.00     0.179 C 
ATOM     11  C   UNL     1      24.301  37.182   8.393  1.00  0.00     0.282 C 
ATOM     12  O   UNL     1      24.309  36.101   9.291  1.00  0.00    -0.341 OA
ATOM     13  C   UNL     1      23.026  37.251   7.626  1.00  0.00     0.202 C 
ATOM     14  C   UNL     1      21.913  37.480   8.626  1.00  0.00     0.179 C 
ATOM     15  C   UNL     1      21.961  36.441   9.695  1.00  0.00     0.177 C 
BRANCH  11  16
ATOM     16  O   UNL     1      25.384  37.030   7.581  1.00  0.00    -0.341 OA
BRANCH  16  17
ATOM     17  C   UNL     1      26.339  37.985   7.658  1.00  0.00     0.184 C 
ATOM     18  C   UNL     1      27.756  37.655   7.409  1.00  0.00     0.178 C 
ATOM     19  O   UNL     1      28.550  38.584   8.084  1.00  0.00    -0.341 OA
ATOM     20  C   UNL     1      28.588  38.356   9.430  1.00  0.00     0.281 C 
ATOM     21  C   UNL     1      26.250  38.758   9.003  1.00  0.00     0.180 C 
ATOM     22  C   UNL     1      27.196  38.005   9.914  1.00  0.00     0.202 C 
BRANCH  18  23
ATOM     23  C   UNL     1      28.103  37.860   5.938  1.00  0.00     0.191 C 
BRANCH  23  24
ATOM     24  O   UNL     1      27.187  37.147   5.131  1.00  0.00    -0.394 OA
ATOM     25  H   UNL     1      26.717  36.453   5.642  1.00  0.00     0.210 HD
ENDBRANCH  23  24
ENDBRANCH  18  23
BRANCH  20  26
ATOM     26  O   UNL     1      29.103  39.459  10.126  1.00  0.00    -0.350 OA
BRANCH  26  27
ATOM     27  C   UNL     1      30.454  39.644   9.977  1.00  0.00     0.169 C 
BRANCH  27  28
ATOM     28  C   UNL     1      31.157  38.916  11.079  1.00  0.00     0.119 C 
BRANCH  28  29
ATOM     29  N   UNL     1      30.851  39.475  12.389  1.00  0.00    -0.092 NA
ATOM     30  N   UNL     1      31.153  40.673  12.530  1.00  0.00     0.001 N 
ATOM     31  N   UNL     1      31.390  41.788  12.982  1.00  0.00    -0.003 NA
ENDBRANCH  28  29
ENDBRANCH  27  28
ENDBRANCH  26  27
ENDBRANCH  20  26
BRANCH  21  32
ATOM     32  O   UNL     1      26.759  40.050   8.837  1.00  0.00    -0.387 OA
ATOM     33  H   UNL     1      27.591  40.000   8.296  1.00  0.00     0.211 HD
ENDBRANCH  21  32
BRANCH  22  34
ATOM     34  O   UNL     1      26.973  36.647   9.957  1.00  0.00    -0.385 OA
ATOM     35  H   UNL     1      27.284  36.211  10.791  1.00  0.00     0.211 HD
ENDBRANCH  22  34
ENDBRANCH  16  17
ENDBRANCH  11  16
BRANCH  13  36
ATOM     36  O   UNL     1      23.002  38.376   6.788  1.00  0.00    -0.385 OA
ATOM     37  H   UNL     1      22.493  38.208   5.955  1.00  0.00     0.211 HD
ENDBRANCH  13  36
BRANCH  14  38
ATOM     38  O   UNL     1      20.690  37.631   8.021  1.00  0.00    -0.387 OA
ATOM     39  H   UNL     1      20.194  38.441   8.361  1.00  0.00     0.211 HD
ENDBRANCH  14  38
BRANCH  15  40
ATOM     40  O   UNL     1      21.517  35.235   9.162  1.00  0.00    -0.387 OA
ATOM     41  H   UNL     1      21.658  35.167   8.183  1.00  0.00     0.211 HD
ENDBRANCH  15  40
ENDBRANCH   9  10
ENDBRANCH   8   9
ENDBRANCH   3   8
BRANCH   3  42
ATOM     42  C   UNL     1      25.208  34.337  13.722  1.00  0.00     0.364 C 
ATOM     43  O   UNL     1      25.477  33.144  13.360  1.00  0.00    -0.246 OA
BRANCH  42  44
ATOM     44  O   UNL     1      24.851  34.451  15.051  1.00  0.00    -0.477 OA
ATOM     45  H   UNL     1      24.920  33.686  15.717  1.00  0.00     0.296 HD
ENDBRANCH  42  44
ENDBRANCH   3  42
BRANCH   6  46
ATOM     46  O   UNL     1      25.411  38.875  13.247  1.00  0.00    -0.391 OA
ATOM     47  H   UNL     1      25.147  39.678  13.740  1.00  0.00     0.211 HD
ENDBRANCH   6  46
BRANCH   7  48
ATOM     48  N   UNL     1      26.850  37.027  15.757  1.00  0.00    -0.348 N 
ATOM     49  C   UNL     1      27.641  37.692  16.699  1.00  0.00     0.217 C 
ATOM     50  H   UNL     1      26.197  36.263  16.154  1.00  0.00     0.163 HD
ATOM     51  C   UNL     1      27.615  37.308  18.154  1.00  0.00     0.114 C 
ATOM     52  O   UNL     1      28.411  38.637  16.374  1.00  0.00    -0.275 OA
ENDBRANCH   7  48
ENDBRANCH   1   2
BRANCH   1  53
ATOM     53  O   UNL     1      29.488  37.212  13.951  1.00  0.00    -0.388 OA
ATOM     54  H   UNL     1      29.275  36.789  14.802  1.00  0.00     0.211 HD
ENDBRANCH   1  53
BRANCH   1  55
ATOM     55  C   UNL     1      29.477  35.338  12.541  1.00  0.00     0.165 C 
BRANCH  55  56
ATOM     56  O   UNL     1      29.038  34.148  13.067  1.00  0.00    -0.388 OA
ATOM     57  H   UNL     1      29.496  33.895  13.911  1.00  0.00     0.211 HD
ENDBRANCH  55  56
BRANCH  55  58
ATOM     58  C   UNL     1      30.970  35.441  12.590  1.00  0.00     0.154 C 
BRANCH  58  59
ATOM     59  N   UNL     1      31.536  34.637  13.640  1.00  0.00    -0.319 N 
ATOM     60  C   UNL     1      32.179  35.327  14.738  1.00  0.00     0.407 C 
ATOM     61  H   UNL     1      31.516  33.605  13.662  1.00  0.00     0.167 HD
ATOM     62  O   UNL     1      32.169  36.584  14.697  1.00  0.00    -0.225 OA
BRANCH  60  63
ATOM     63  O   UNL     1      32.764  34.629  15.762  1.00  0.00    -0.443 OA
BRANCH  63  64
ATOM     64  C   UNL     1      32.001  34.219  16.872  1.00  0.00     0.294 C 
BRANCH  64  65
ATOM     65  C   UNL     1      30.790  33.496  16.444  1.00  0.00     0.120 A 
ATOM     66  C   UNL     1      30.625  32.125  16.330  1.00  0.00     0.138 A 
ATOM     67  N   UNL     1      29.616  34.019  16.122  1.00  0.00    -0.132 NA
ATOM     68  N   UNL     1      29.376  31.856  15.948  1.00  0.00    -0.251 N 
ATOM     69  N   UNL     1      28.761  33.033  15.821  1.00  0.00    -0.067 NA
BRANCH  68  70
ATOM     70  C   UNL     1      28.806  30.541  15.709  1.00  0.00     0.162 C 
BRANCH  70  71
ATOM     71  C   UNL     1      27.390  30.482  16.278  1.00  0.00     0.122 C 
BRANCH  71  72
ATOM     72  N   UNL     1      26.447  31.053  15.360  1.00  0.00    -0.214 NA
ATOM     73  H   UNL     1      26.701  30.756  14.380  1.00  0.00     0.141 HD
BRANCH  72  74
ATOM     74  S   UNL     1      24.834  30.525  15.638  1.00  0.00     0.208 S 
ATOM     75  O   UNL     1      24.820  29.440  16.703  1.00  0.00    -0.213 OA
ATOM     76  O   UNL     1      24.080  31.728  16.171  1.00  0.00    -0.213 OA
ATOM     77  C   UNL     1      24.086  29.949  14.146  1.00  0.00     0.176 C 
ENDBRANCH  72  74
ENDBRANCH  71  72
ENDBRANCH  70  71
ENDBRANCH  68  70
ENDBRANCH  64  65
ENDBRANCH  63  64
ENDBRANCH  60  63
ENDBRANCH  58  59
ENDBRANCH  55  58
ENDBRANCH   1  55
TORSDOF 33
BEGIN_RES LYS A 131
REMARK  4 active torsions:
REMARK  status: ('A' for Active; 'I' for Inactive)
REMARK    1  A    between atoms: CA   and  CB  
REMARK    2  A    between atoms: CB   and  CG  
REMARK    3  A    between atoms: CG   and  CD  
REMARK    4  A    between atoms: CD   and  CE  
ROOT
ATOM      1  CA  LYS A 131      29.867  25.555  16.977  1.00 20.52     0.186 C 
ENDROOT
BRANCH   1   2
ATOM      2  CB  LYS A 131      28.345  25.722  17.026  1.00 20.94     0.034 C 
BRANCH   2   3
ATOM      3  CG  LYS A 131      27.599  24.441  16.686  1.00 22.96     0.005 C 
BRANCH   3   4
ATOM      4  CD  LYS A 131      27.010  23.788  17.906  1.00 24.33     0.041 C 
BRANCH   4   5
ATOM      5  CE  LYS A 131      25.619  23.257  17.577  1.00 26.91     0.338 C 
ATOM      6  NZ  LYS A 131      24.795  24.314  16.945  1.00 27.40     0.618 N 
ENDBRANCH   4   5
ENDBRANCH   3   4
ENDBRANCH   2   3
ENDBRANCH   1   2
END_RES LYS A 131
BEGIN_RES LYS A 135
REMARK  4 active torsions:
REMARK  status: ('A' for Active; 'I' for Inactive)
REMARK    5  A    between atoms: CA   and  CB  
REMARK    6  A    between atoms: CB   and  CG  
REMARK    7  A    between atoms: CG   and  CD  
REMARK    8  A    between atoms: CD   and  CE  
ROOT
ATOM      7  CA  LYS A 135      33.193  34.663   9.290  1.00 25.02     0.186 C 
ENDROOT
BRANCH   7   8
ATOM      8  CB  LYS A 135      32.060  35.360  10.034  1.00 26.63     0.034 C 
BRANCH   8   9
ATOM      9  CG  LYS A 135      30.863  35.657   9.168  1.00 29.45     0.005 C 
BRANCH   9  10
ATOM     10  CD  LYS A 135      30.398  34.402   8.446  1.00 32.00     0.041 C 
BRANCH  10  11
ATOM     11  CE  LYS A 135      28.884  34.350   8.390  1.00 34.25     0.338 C 
ATOM     12  NZ  LYS A 135      28.328  33.626   9.567  1.00 35.99     0.618 N 
ENDBRANCH  10  11
ENDBRANCH   9  10
ENDBRANCH   8   9
ENDBRANCH   7   8
END_RES LYS A 135
